MODEL        1
REMARK 921   NORMALIZED FREE ENERGY PREDICTED BY IDOCK:   -6.67 KCAL/MOL
REMARK 922        TOTAL FREE ENERGY PREDICTED BY IDOCK:  -11.00 KCAL/MOL
REMARK 923 INTER-LIGAND FREE ENERGY PREDICTED BY IDOCK:   -9.79 KCAL/MOL
REMARK 924 INTRA-LIGAND FREE ENERGY PREDICTED BY IDOCK:   -1.21 KCAL/MOL
REMARK 927      BINDING AFFINITY PREDICTED BY RF-SCORE:    0.00 PKD
ROOT
HETATM    1  C   UNL     1     -10.705   7.075  73.091  1.00  0.00    -0.326 C  
HETATM    2  O   UNL     1     -11.903   7.386  72.390  1.00  0.00    -0.284 OA 
ENDROOT
BRANCH   2   3
HETATM    3  C   UNL     1     -11.981   8.639  71.836  1.00  0.00    -0.356 A  
HETATM    4  C   UNL     1     -13.046   9.422  72.293  1.00  0.00    -0.428 A  
HETATM    5  O   UNL     1     -13.928   8.920  73.209  1.00  0.00    -1.203 OA 
HETATM    6  C   UNL     1     -13.250  10.714  71.828  1.00  0.00    -0.526 A  
HETATM    7  C   UNL     1     -12.395  11.230  70.854  1.00  0.00    -0.490 A  
HETATM    8  H   UNL     1     -14.652   9.452  73.521  1.00  0.00     0.000 HD 
HETATM    9  C   UNL     1     -11.346  10.450  70.342  1.00  0.00    -0.417 A  
HETATM   10  C   UNL     1     -11.125   9.163  70.866  1.00  0.00    -0.356 A  
BRANCH   9  11
HETATM   11  C   UNL     1     -10.492  10.977  69.218  1.00  0.00    -0.180 C  
BRANCH  11  12
HETATM   12  N   UNL     1     -10.807  12.347  68.893  1.00  0.00    -0.319 N  
HETATM   13  C   UNL     1     -11.529  12.640  67.760  1.00  0.00    -0.322 C  
HETATM   14  H   UNL     1     -10.495  13.100  69.506  1.00  0.00     0.000 HD 
HETATM   15  O   UNL     1     -11.940  11.785  66.983  1.00  0.00    -0.610 OA 
BRANCH  13  16
HETATM   16  C   UNL     1     -11.757  14.123  67.544  1.00  0.00    -0.418 C  
BRANCH  16  17
HETATM   17  C   UNL     1     -10.447  14.906  67.452  1.00  0.00    -0.255 C  
BRANCH  17  18
HETATM   18  C   UNL     1     -10.454  16.150  68.348  1.00  0.00    -0.274 C  
BRANCH  18  19
HETATM   19  C   UNL     1     -10.075  15.804  69.788  1.00  0.00    -0.277 C  
BRANCH  19  20
HETATM   20  C   UNL     1     -11.235  16.026  70.717  1.00  0.00    -0.381 C  
HETATM   21  C   UNL     1     -11.650  15.131  71.623  1.00  0.00    -0.463 C  
HETATM   22  C   UNL     1     -12.818  15.354  72.552  1.00  0.00    -0.491 C  
HETATM   23  C   UNL     1     -12.344  15.350  74.005  1.00  0.00    -0.792 C  
HETATM   24  C   UNL     1     -13.879  14.275  72.328  1.00  0.00    -0.622 C  
ENDBRANCH  19  20
ENDBRANCH  18  19
ENDBRANCH  17  18
ENDBRANCH  16  17
ENDBRANCH  13  16
ENDBRANCH  11  12
ENDBRANCH   9  11
ENDBRANCH   2   3
TORSDOF 8
ENDMDL
MODEL        2
REMARK 921   NORMALIZED FREE ENERGY PREDICTED BY IDOCK:   -6.28 KCAL/MOL
REMARK 922        TOTAL FREE ENERGY PREDICTED BY IDOCK:  -10.43 KCAL/MOL
REMARK 923 INTER-LIGAND FREE ENERGY PREDICTED BY IDOCK:   -9.01 KCAL/MOL
REMARK 924 INTRA-LIGAND FREE ENERGY PREDICTED BY IDOCK:   -1.41 KCAL/MOL
REMARK 927      BINDING AFFINITY PREDICTED BY RF-SCORE:    0.00 PKD
ROOT
HETATM    1  C   UNL     1      -9.740  11.342  63.301  1.00  0.00    -0.394 C  
HETATM    2  O   UNL     1     -11.058  11.866  63.401  1.00  0.00    -0.400 OA 
ENDROOT
BRANCH   2   3
HETATM    3  C   UNL     1     -11.446  12.316  64.638  1.00  0.00    -0.336 A  
HETATM    4  C   UNL     1     -12.213  13.486  64.627  1.00  0.00    -0.406 A  
HETATM    5  O   UNL     1     -12.508  14.107  63.445  1.00  0.00    -1.122 OA 
HETATM    6  C   UNL     1     -12.682  14.058  65.801  1.00  0.00    -0.487 A  
HETATM    7  C   UNL     1     -12.350  13.473  67.023  1.00  0.00    -0.260 A  
HETATM    8  H   UNL     1     -13.028  14.902  63.437  1.00  0.00     0.000 HD 
HETATM    9  C   UNL     1     -11.543  12.325  67.068  1.00  0.00    -0.418 A  
HETATM   10  C   UNL     1     -11.123  11.732  65.863  1.00  0.00    -0.355 A  
BRANCH   9  11
HETATM   11  C   UNL     1     -11.105  11.761  68.395  1.00  0.00    -0.237 C  
BRANCH  11  12
HETATM   12  N   UNL     1     -12.029  12.085  69.454  1.00  0.00    -0.296 N  
HETATM   13  C   UNL     1     -12.094  11.299  70.579  1.00  0.00    -0.387 C  
HETATM   14  H   UNL     1     -12.635  12.901  69.368  1.00  0.00     0.000 HD 
HETATM   15  O   UNL     1     -11.391  10.308  70.751  1.00  0.00    -0.328 OA 
BRANCH  13  16
HETATM   16  C   UNL     1     -13.129  11.755  71.588  1.00  0.00    -0.443 C  
BRANCH  16  17
HETATM   17  C   UNL     1     -12.840  13.157  72.126  1.00  0.00    -0.265 C  
BRANCH  17  18
HETATM   18  C   UNL     1     -14.089  14.045  72.120  1.00  0.00    -0.641 C  
BRANCH  18  19
HETATM   19  C   UNL     1     -13.978  15.162  71.082  1.00  0.00    -0.487 C  
BRANCH  19  20
HETATM   20  C   UNL     1     -12.554  15.620  70.938  1.00  0.00    -0.503 C  
HETATM   21  C   UNL     1     -11.902  15.678  69.768  1.00  0.00    -0.376 C  
HETATM   22  C   UNL     1     -10.471  16.135  69.626  1.00  0.00    -0.291 C  
HETATM   23  C   UNL     1     -10.404  17.395  68.764  1.00  0.00    -0.357 C  
HETATM   24  C   UNL     1      -9.624  15.019  69.015  1.00  0.00    -0.225 C  
ENDBRANCH  19  20
ENDBRANCH  18  19
ENDBRANCH  17  18
ENDBRANCH  16  17
ENDBRANCH  13  16
ENDBRANCH  11  12
ENDBRANCH   9  11
ENDBRANCH   2   3
TORSDOF 8
ENDMDL
MODEL        3
REMARK 921   NORMALIZED FREE ENERGY PREDICTED BY IDOCK:   -6.06 KCAL/MOL
REMARK 922        TOTAL FREE ENERGY PREDICTED BY IDOCK:  -10.11 KCAL/MOL
REMARK 923 INTER-LIGAND FREE ENERGY PREDICTED BY IDOCK:   -9.24 KCAL/MOL
REMARK 924 INTRA-LIGAND FREE ENERGY PREDICTED BY IDOCK:   -0.87 KCAL/MOL
REMARK 927      BINDING AFFINITY PREDICTED BY RF-SCORE:    0.00 PKD
ROOT
HETATM    1  C   UNL     1     -10.573   7.214  73.264  1.00  0.00    -0.364 C  
HETATM    2  O   UNL     1     -11.753   7.454  72.507  1.00  0.00    -0.286 OA 
ENDROOT
BRANCH   2   3
HETATM    3  C   UNL     1     -11.851   8.679  71.897  1.00  0.00    -0.351 A  
HETATM    4  C   UNL     1     -12.930   9.464  72.316  1.00  0.00    -0.400 A  
HETATM    5  O   UNL     1     -13.807   8.989  73.252  1.00  0.00    -1.159 OA 
HETATM    6  C   UNL     1     -13.156  10.730  71.792  1.00  0.00    -0.573 A  
HETATM    7  C   UNL     1     -12.307  11.215  70.798  1.00  0.00    -0.504 A  
HETATM    8  H   UNL     1     -14.540   9.521  73.537  1.00  0.00     0.000 HD 
HETATM    9  C   UNL     1     -11.243  10.431  70.324  1.00  0.00    -0.395 A  
HETATM   10  C   UNL     1     -11.001   9.173  70.906  1.00  0.00    -0.349 A  
BRANCH   9  11
HETATM   11  C   UNL     1     -10.395  10.922  69.178  1.00  0.00    -0.208 C  
BRANCH  11  12
HETATM   12  N   UNL     1     -10.756  12.256  68.768  1.00  0.00    -0.278 N  
HETATM   13  C   UNL     1     -11.587  12.447  67.690  1.00  0.00    -0.357 C  
HETATM   14  H   UNL     1     -10.394  13.061  69.280  1.00  0.00     0.000 HD 
HETATM   15  O   UNL     1     -12.062  11.527  67.034  1.00  0.00    -0.443 OA 
BRANCH  13  16
HETATM   16  C   UNL     1     -11.852  13.905  67.370  1.00  0.00    -0.437 C  
BRANCH  16  17
HETATM   17  C   UNL     1     -12.602  14.084  66.050  1.00  0.00    -0.452 C  
BRANCH  17  18
HETATM   18  C   UNL     1     -11.656  14.079  64.843  1.00  0.00    -0.369 C  
BRANCH  18  19
HETATM   19  C   UNL     1     -12.247  13.294  63.672  1.00  0.00    -0.522 C  
BRANCH  19  20
HETATM   20  C   UNL     1     -11.656  11.915  63.597  1.00  0.00    -0.559 C  
HETATM   21  C   UNL     1     -10.379  11.631  63.890  1.00  0.00    -0.417 C  
HETATM   22  C   UNL     1      -9.786  10.246  63.810  1.00  0.00    -0.298 C  
HETATM   23  C   UNL     1      -9.325   9.790  65.193  1.00  0.00    -0.322 C  
HETATM   24  C   UNL     1      -8.620  10.233  62.821  1.00  0.00    -0.199 C  
ENDBRANCH  19  20
ENDBRANCH  18  19
ENDBRANCH  17  18
ENDBRANCH  16  17
ENDBRANCH  13  16
ENDBRANCH  11  12
ENDBRANCH   9  11
ENDBRANCH   2   3
TORSDOF 8
ENDMDL
MODEL        4
REMARK 921   NORMALIZED FREE ENERGY PREDICTED BY IDOCK:   -6.06 KCAL/MOL
REMARK 922        TOTAL FREE ENERGY PREDICTED BY IDOCK:  -10.10 KCAL/MOL
REMARK 923 INTER-LIGAND FREE ENERGY PREDICTED BY IDOCK:   -9.79 KCAL/MOL
REMARK 924 INTRA-LIGAND FREE ENERGY PREDICTED BY IDOCK:   -0.31 KCAL/MOL
REMARK 927      BINDING AFFINITY PREDICTED BY RF-SCORE:    0.00 PKD
ROOT
HETATM    1  C   UNL     1     -12.298  12.507  63.256  1.00  0.00    -0.371 C  
HETATM    2  O   UNL     1     -12.413  13.808  63.819  1.00  0.00    -0.713 OA 
ENDROOT
BRANCH   2   3
HETATM    3  C   UNL     1     -11.475  14.155  64.758  1.00  0.00    -0.383 A  
HETATM    4  C   UNL     1     -11.078  15.497  64.729  1.00  0.00    -0.407 A  
HETATM    5  O   UNL     1     -11.603  16.352  63.800  1.00  0.00    -1.605 OA 
HETATM    6  C   UNL     1     -10.140  15.997  65.621  1.00  0.00    -0.384 A  
HETATM    7  C   UNL     1      -9.551  15.132  66.544  1.00  0.00    -0.293 A  
HETATM    8  H   UNL     1     -11.334  17.263  63.780  1.00  0.00     0.000 HD 
HETATM    9  C   UNL     1      -9.894  13.771  66.565  1.00  0.00    -0.294 A  
HETATM   10  C   UNL     1     -10.886  13.297  65.687  1.00  0.00    -0.291 A  
BRANCH   9  11
HETATM   11  C   UNL     1      -9.178  12.826  67.495  1.00  0.00    -0.191 C  
BRANCH  11  12
HETATM   12  N   UNL     1     -10.029  11.746  67.933  1.00  0.00    -0.177 N  
HETATM   13  C   UNL     1     -11.033  11.981  68.842  1.00  0.00    -0.232 C  
HETATM   14  H   UNL     1      -9.886  10.805  67.565  1.00  0.00     0.000 HD 
HETATM   15  O   UNL     1     -11.264  13.087  69.320  1.00  0.00    -0.250 OA 
BRANCH  13  16
HETATM   16  C   UNL     1     -11.821  10.743  69.220  1.00  0.00    -0.359 C  
BRANCH  16  17
HETATM   17  C   UNL     1     -11.447  10.214  70.604  1.00  0.00    -0.432 C  
BRANCH  17  18
HETATM   18  C   UNL     1     -12.625   9.517  71.294  1.00  0.00    -0.425 C  
BRANCH  18  19
HETATM   19  C   UNL     1     -13.534  10.523  72.000  1.00  0.00    -0.330 C  
BRANCH  19  20
HETATM   20  C   UNL     1     -12.959  11.909  71.928  1.00  0.00    -0.434 C  
HETATM   21  C   UNL     1     -13.639  13.018  72.251  1.00  0.00    -0.643 C  
HETATM   22  C   UNL     1     -13.062  14.410  72.174  1.00  0.00    -0.450 C  
HETATM   23  C   UNL     1     -13.023  15.042  73.566  1.00  0.00    -0.564 C  
HETATM   24  C   UNL     1     -13.888  15.268  71.216  1.00  0.00    -0.562 C  
ENDBRANCH  19  20
ENDBRANCH  18  19
ENDBRANCH  17  18
ENDBRANCH  16  17
ENDBRANCH  13  16
ENDBRANCH  11  12
ENDBRANCH   9  11
ENDBRANCH   2   3
TORSDOF 8
ENDMDL
MODEL        5
REMARK 921   NORMALIZED FREE ENERGY PREDICTED BY IDOCK:   -5.97 KCAL/MOL
REMARK 922        TOTAL FREE ENERGY PREDICTED BY IDOCK:   -9.97 KCAL/MOL
REMARK 923 INTER-LIGAND FREE ENERGY PREDICTED BY IDOCK:   -9.29 KCAL/MOL
REMARK 924 INTRA-LIGAND FREE ENERGY PREDICTED BY IDOCK:   -0.68 KCAL/MOL
REMARK 927      BINDING AFFINITY PREDICTED BY RF-SCORE:    0.00 PKD
ROOT
HETATM    1  C   UNL     1     -10.806   7.153  73.314  1.00  0.00    -0.338 C  
HETATM    2  O   UNL     1     -11.995   7.454  72.594  1.00  0.00    -0.188 OA 
ENDROOT
BRANCH   2   3
HETATM    3  C   UNL     1     -12.056   8.688  71.999  1.00  0.00    -0.375 A  
HETATM    4  C   UNL     1     -13.170   9.458  72.348  1.00  0.00    -0.403 A  
HETATM    5  O   UNL     1     -14.112   8.961  73.206  1.00  0.00    -1.211 OA 
HETATM    6  C   UNL     1     -13.365  10.731  71.830  1.00  0.00    -0.445 A  
HETATM    7  C   UNL     1     -12.447  11.240  70.912  1.00  0.00    -0.493 A  
HETATM    8  H   UNL     1     -14.869   9.483  73.443  1.00  0.00     0.000 HD 
HETATM    9  C   UNL     1     -11.344  10.472  70.507  1.00  0.00    -0.400 A  
HETATM   10  C   UNL     1     -11.137   9.206  71.085  1.00  0.00    -0.393 A  
BRANCH   9  11
HETATM   11  C   UNL     1     -10.415  10.988  69.439  1.00  0.00    -0.142 C  
BRANCH  11  12
HETATM   12  N   UNL     1     -10.809  12.290  68.959  1.00  0.00    -0.358 N  
HETATM   13  C   UNL     1     -11.511  12.411  67.784  1.00  0.00    -0.324 C  
HETATM   14  H   UNL     1     -10.566  13.124  69.495  1.00  0.00     0.000 HD 
HETATM   15  O   UNL     1     -11.840  11.452  67.094  1.00  0.00    -0.566 OA 
BRANCH  13  16
HETATM   16  C   UNL     1     -11.829  13.843  67.403  1.00  0.00    -0.437 C  
BRANCH  16  17
HETATM   17  C   UNL     1     -11.977  14.024  65.892  1.00  0.00    -0.424 C  
BRANCH  17  18
HETATM   18  C   UNL     1     -11.118  15.178  65.362  1.00  0.00    -0.371 C  
BRANCH  18  19
HETATM   19  C   UNL     1      -9.742  15.203  66.027  1.00  0.00    -0.361 C  
BRANCH  19  20
HETATM   20  C   UNL     1      -9.258  16.613  66.208  1.00  0.00    -0.328 C  
HETATM   21  C   UNL     1     -10.040  17.628  66.605  1.00  0.00    -0.335 C  
HETATM   22  C   UNL     1      -9.553  19.045  66.782  1.00  0.00    -0.374 C  
HETATM   23  C   UNL     1      -9.697  19.472  68.242  1.00  0.00    -0.495 C  
HETATM   24  C   UNL     1     -10.336  19.986  65.865  1.00  0.00    -0.529 C  
ENDBRANCH  19  20
ENDBRANCH  18  19
ENDBRANCH  17  18
ENDBRANCH  16  17
ENDBRANCH  13  16
ENDBRANCH  11  12
ENDBRANCH   9  11
ENDBRANCH   2   3
TORSDOF 8
ENDMDL
MODEL        6
REMARK 921   NORMALIZED FREE ENERGY PREDICTED BY IDOCK:   -5.92 KCAL/MOL
REMARK 922        TOTAL FREE ENERGY PREDICTED BY IDOCK:   -9.90 KCAL/MOL
REMARK 923 INTER-LIGAND FREE ENERGY PREDICTED BY IDOCK:   -8.46 KCAL/MOL
REMARK 924 INTRA-LIGAND FREE ENERGY PREDICTED BY IDOCK:   -1.44 KCAL/MOL
REMARK 927      BINDING AFFINITY PREDICTED BY RF-SCORE:    0.00 PKD
ROOT
HETATM    1  C   UNL     1     -13.204  15.986  73.468  1.00  0.00    -0.492 C  
HETATM    2  O   UNL     1     -14.016  15.364  72.479  1.00  0.00    -0.519 OA 
ENDROOT
BRANCH   2   3
HETATM    3  C   UNL     1     -13.447  14.327  71.784  1.00  0.00    -0.381 A  
HETATM    4  C   UNL     1     -12.882  14.680  70.553  1.00  0.00    -0.317 A  
HETATM    5  O   UNL     1     -12.939  15.974  70.114  1.00  0.00    -0.639 OA 
HETATM    6  C   UNL     1     -12.266  13.740  69.739  1.00  0.00    -0.368 A  
HETATM    7  C   UNL     1     -12.241  12.404  70.141  1.00  0.00    -0.303 A  
HETATM    8  H   UNL     1     -12.556  16.215  69.279  1.00  0.00     0.000 HD 
HETATM    9  C   UNL     1     -12.841  12.012  71.348  1.00  0.00    -0.391 A  
HETATM   10  C   UNL     1     -13.414  12.990  72.183  1.00  0.00    -0.638 A  
BRANCH   9  11
HETATM   11  C   UNL     1     -12.900  10.554  71.724  1.00  0.00    -0.454 C  
BRANCH  11  12
HETATM   12  N   UNL     1     -12.355   9.705  70.693  1.00  0.00    -0.476 N  
HETATM   13  C   UNL     1     -11.207   8.987  70.924  1.00  0.00    -0.287 C  
HETATM   14  H   UNL     1     -12.824   9.638  69.789  1.00  0.00     0.000 HD 
HETATM   15  O   UNL     1     -10.596   9.016  71.987  1.00  0.00    -0.345 OA 
BRANCH  13  16
HETATM   16  C   UNL     1     -10.748   8.163  69.737  1.00  0.00    -0.229 C  
BRANCH  16  17
HETATM   17  C   UNL     1     -10.336   9.034  68.549  1.00  0.00    -0.233 C  
BRANCH  17  18
HETATM   18  C   UNL     1      -9.341  10.128  68.953  1.00  0.00    -0.179 C  
BRANCH  18  19
HETATM   19  C   UNL     1      -9.237  11.212  67.881  1.00  0.00    -0.154 C  
BRANCH  19  20
HETATM   20  C   UNL     1     -10.490  11.272  67.054  1.00  0.00    -0.272 C  
HETATM   21  C   UNL     1     -10.735  12.216  66.134  1.00  0.00    -0.307 C  
HETATM   22  C   UNL     1     -11.996  12.277  65.307  1.00  0.00    -0.391 C  
HETATM   23  C   UNL     1     -11.662  12.111  63.825  1.00  0.00    -0.576 C  
HETATM   24  C   UNL     1     -12.718  13.602  65.552  1.00  0.00    -0.514 C  
ENDBRANCH  19  20
ENDBRANCH  18  19
ENDBRANCH  17  18
ENDBRANCH  16  17
ENDBRANCH  13  16
ENDBRANCH  11  12
ENDBRANCH   9  11
ENDBRANCH   2   3
TORSDOF 8
ENDMDL
MODEL        7
REMARK 921   NORMALIZED FREE ENERGY PREDICTED BY IDOCK:   -5.92 KCAL/MOL
REMARK 922        TOTAL FREE ENERGY PREDICTED BY IDOCK:   -9.90 KCAL/MOL
REMARK 923 INTER-LIGAND FREE ENERGY PREDICTED BY IDOCK:   -8.51 KCAL/MOL
REMARK 924 INTRA-LIGAND FREE ENERGY PREDICTED BY IDOCK:   -1.39 KCAL/MOL
REMARK 927      BINDING AFFINITY PREDICTED BY RF-SCORE:    0.00 PKD
ROOT
HETATM    1  C   UNL     1     -12.802  12.245  63.855  1.00  0.00    -0.298 C  
HETATM    2  O   UNL     1     -12.666  13.299  64.800  1.00  0.00    -0.641 OA 
ENDROOT
BRANCH   2   3
HETATM    3  C   UNL     1     -11.798  13.081  65.840  1.00  0.00    -0.416 A  
HETATM    4  C   UNL     1     -10.483  13.501  65.610  1.00  0.00    -0.293 A  
HETATM    5  O   UNL     1     -10.137  14.061  64.411  1.00  0.00    -0.706 OA 
HETATM    6  C   UNL     1      -9.494  13.351  66.572  1.00  0.00    -0.252 A  
HETATM    7  C   UNL     1      -9.810  12.735  67.782  1.00  0.00    -0.220 A  
HETATM    8  H   UNL     1      -9.245  14.346  64.254  1.00  0.00     0.000 HD 
HETATM    9  C   UNL     1     -11.109  12.261  68.023  1.00  0.00    -0.285 A  
HETATM   10  C   UNL     1     -12.109  12.470  67.056  1.00  0.00    -0.147 A  
BRANCH   9  11
HETATM   11  C   UNL     1     -11.415  11.505  69.290  1.00  0.00    -0.305 C  
BRANCH  11  12
HETATM   12  N   UNL     1     -11.991  12.354  70.304  1.00  0.00    -0.488 N  
HETATM   13  C   UNL     1     -12.848  11.828  71.241  1.00  0.00    -0.308 C  
HETATM   14  H   UNL     1     -11.762  13.348  70.325  1.00  0.00     0.000 HD 
HETATM   15  O   UNL     1     -13.162  10.643  71.278  1.00  0.00    -0.351 OA 
BRANCH  13  16
HETATM   16  C   UNL     1     -13.388  12.851  72.221  1.00  0.00    -0.597 C  
BRANCH  16  17
HETATM   17  C   UNL     1     -14.130  13.991  71.523  1.00  0.00    -0.270 C  
BRANCH  17  18
HETATM   18  C   UNL     1     -13.969  15.323  72.264  1.00  0.00    -0.646 C  
BRANCH  18  19
HETATM   19  C   UNL     1     -12.530  15.529  72.738  1.00  0.00    -0.519 C  
BRANCH  19  20
HETATM   20  C   UNL     1     -11.719  16.247  71.697  1.00  0.00    -0.490 C  
HETATM   21  C   UNL     1     -11.236  15.663  70.592  1.00  0.00    -0.382 C  
HETATM   22  C   UNL     1     -10.417  16.383  69.549  1.00  0.00    -0.301 C  
HETATM   23  C   UNL     1     -11.153  16.385  68.210  1.00  0.00    -0.337 C  
HETATM   24  C   UNL     1      -9.046  15.721  69.411  1.00  0.00    -0.254 C  
ENDBRANCH  19  20
ENDBRANCH  18  19
ENDBRANCH  17  18
ENDBRANCH  16  17
ENDBRANCH  13  16
ENDBRANCH  11  12
ENDBRANCH   9  11
ENDBRANCH   2   3
TORSDOF 8
ENDMDL
MODEL        8
REMARK 921   NORMALIZED FREE ENERGY PREDICTED BY IDOCK:   -5.92 KCAL/MOL
REMARK 922        TOTAL FREE ENERGY PREDICTED BY IDOCK:   -9.90 KCAL/MOL
REMARK 923 INTER-LIGAND FREE ENERGY PREDICTED BY IDOCK:   -9.13 KCAL/MOL
REMARK 924 INTRA-LIGAND FREE ENERGY PREDICTED BY IDOCK:   -0.76 KCAL/MOL
REMARK 927      BINDING AFFINITY PREDICTED BY RF-SCORE:    0.00 PKD
ROOT
HETATM    1  C   UNL     1     -10.885  17.301  65.075  1.00  0.00     0.167 C  
HETATM    2  O   UNL     1     -11.176  16.130  64.323  1.00  0.00    -0.660 OA 
ENDROOT
BRANCH   2   3
HETATM    3  C   UNL     1     -11.288  14.960  65.031  1.00  0.00    -0.398 A  
HETATM    4  C   UNL     1     -11.927  13.917  64.351  1.00  0.00    -0.450 A  
HETATM    5  O   UNL     1     -12.405  14.109  63.084  1.00  0.00    -1.125 OA 
HETATM    6  C   UNL     1     -12.108  12.671  64.937  1.00  0.00    -0.494 A  
HETATM    7  C   UNL     1     -11.677  12.467  66.247  1.00  0.00    -0.457 A  
HETATM    8  H   UNL     1     -12.838  13.401  62.622  1.00  0.00     0.000 HD 
HETATM    9  C   UNL     1     -11.075  13.509  66.970  1.00  0.00    -0.310 A  
HETATM   10  C   UNL     1     -10.853  14.746  66.339  1.00  0.00    -0.322 A  
BRANCH   9  11
HETATM   11  C   UNL     1     -10.706  13.309  68.418  1.00  0.00    -0.257 C  
BRANCH  11  12
HETATM   12  N   UNL     1     -11.271  14.328  69.268  1.00  0.00    -0.265 N  
HETATM   13  C   UNL     1     -10.482  15.349  69.741  1.00  0.00    -0.293 C  
HETATM   14  H   UNL     1     -12.259  14.291  69.518  1.00  0.00     0.000 HD 
HETATM   15  O   UNL     1      -9.289  15.457  69.477  1.00  0.00    -0.265 OA 
BRANCH  13  16
HETATM   16  C   UNL     1     -11.214  16.325  70.641  1.00  0.00    -0.310 C  
BRANCH  16  17
HETATM   17  C   UNL     1     -11.710  15.669  71.930  1.00  0.00    -0.544 C  
BRANCH  17  18
HETATM   18  C   UNL     1     -13.221  15.413  71.902  1.00  0.00    -0.534 C  
BRANCH  18  19
HETATM   19  C   UNL     1     -13.575  14.079  72.558  1.00  0.00    -0.670 C  
BRANCH  19  20
HETATM   20  C   UNL     1     -13.411  12.944  71.588  1.00  0.00    -0.358 C  
HETATM   21  C   UNL     1     -13.024  11.709  71.938  1.00  0.00    -0.442 C  
HETATM   22  C   UNL     1     -12.855  10.571  70.962  1.00  0.00    -0.502 C  
HETATM   23  C   UNL     1     -13.836   9.447  71.290  1.00  0.00    -0.183 C  
HETATM   24  C   UNL     1     -11.416  10.059  70.999  1.00  0.00    -0.463 C  
ENDBRANCH  19  20
ENDBRANCH  18  19
ENDBRANCH  17  18
ENDBRANCH  16  17
ENDBRANCH  13  16
ENDBRANCH  11  12
ENDBRANCH   9  11
ENDBRANCH   2   3
TORSDOF 8
ENDMDL
MODEL        9
REMARK 921   NORMALIZED FREE ENERGY PREDICTED BY IDOCK:   -5.92 KCAL/MOL
REMARK 922        TOTAL FREE ENERGY PREDICTED BY IDOCK:   -9.89 KCAL/MOL
REMARK 923 INTER-LIGAND FREE ENERGY PREDICTED BY IDOCK:   -8.69 KCAL/MOL
REMARK 924 INTRA-LIGAND FREE ENERGY PREDICTED BY IDOCK:   -1.21 KCAL/MOL
REMARK 927      BINDING AFFINITY PREDICTED BY RF-SCORE:    0.00 PKD
ROOT
HETATM    1  C   UNL     1     -14.120  14.710  72.237  1.00  0.00    -0.491 C  
HETATM    2  O   UNL     1     -13.680  13.368  72.405  1.00  0.00    -0.562 OA 
ENDROOT
BRANCH   2   3
HETATM    3  C   UNL     1     -12.956  12.827  71.372  1.00  0.00    -0.266 A  
HETATM    4  C   UNL     1     -12.859  11.432  71.387  1.00  0.00    -0.397 A  
HETATM    5  O   UNL     1     -13.443  10.709  72.390  1.00  0.00    -0.603 OA 
HETATM    6  C   UNL     1     -12.164  10.741  70.403  1.00  0.00    -0.437 A  
HETATM    7  C   UNL     1     -11.515  11.459  69.399  1.00  0.00    -0.378 A  
HETATM    8  H   UNL     1     -13.378   9.761  72.400  1.00  0.00     0.000 HD 
HETATM    9  C   UNL     1     -11.555  12.862  69.385  1.00  0.00    -0.363 A  
HETATM   10  C   UNL     1     -12.310  13.539  70.361  1.00  0.00    -0.397 A  
BRANCH   9  11
HETATM   11  C   UNL     1     -10.766  13.631  68.357  1.00  0.00    -0.258 C  
BRANCH  11  12
HETATM   12  N   UNL     1     -11.323  13.495  67.033  1.00  0.00    -0.312 N  
HETATM   13  C   UNL     1     -11.340  14.570  66.177  1.00  0.00    -0.348 C  
HETATM   14  H   UNL     1     -11.705  12.598  66.731  1.00  0.00     0.000 HD 
HETATM   15  O   UNL     1     -10.894  15.674  66.472  1.00  0.00    -0.311 OA 
BRANCH  13  16
HETATM   16  C   UNL     1     -11.980  14.276  64.835  1.00  0.00    -0.430 C  
BRANCH  16  17
HETATM   17  C   UNL     1     -12.598  12.879  64.778  1.00  0.00    -0.493 C  
BRANCH  17  18
HETATM   18  C   UNL     1     -12.070  12.062  63.593  1.00  0.00    -0.627 C  
BRANCH  18  19
HETATM   19  C   UNL     1     -10.545  11.973  63.610  1.00  0.00    -0.503 C  
BRANCH  19  20
HETATM   20  C   UNL     1     -10.089  10.679  64.222  1.00  0.00    -0.411 C  
HETATM   21  C   UNL     1      -9.879  10.506  65.534  1.00  0.00    -0.324 C  
HETATM   22  C   UNL     1      -9.416   9.207  66.148  1.00  0.00    -0.309 C  
HETATM   23  C   UNL     1     -10.480   8.667  67.103  1.00  0.00    -0.360 C  
HETATM   24  C   UNL     1      -8.090   9.417  66.880  1.00  0.00    -0.109 C  
ENDBRANCH  19  20
ENDBRANCH  18  19
ENDBRANCH  17  18
ENDBRANCH  16  17
ENDBRANCH  13  16
ENDBRANCH  11  12
ENDBRANCH   9  11
ENDBRANCH   2   3
TORSDOF 8
ENDMDL
MODEL       10
REMARK 921   NORMALIZED FREE ENERGY PREDICTED BY IDOCK:   -5.85 KCAL/MOL
REMARK 922        TOTAL FREE ENERGY PREDICTED BY IDOCK:   -9.79 KCAL/MOL
REMARK 923 INTER-LIGAND FREE ENERGY PREDICTED BY IDOCK:   -8.80 KCAL/MOL
REMARK 924 INTRA-LIGAND FREE ENERGY PREDICTED BY IDOCK:   -0.99 KCAL/MOL
REMARK 927      BINDING AFFINITY PREDICTED BY RF-SCORE:    0.00 PKD
ROOT
HETATM    1  C   UNL     1     -10.645   9.350  70.669  1.00  0.00    -0.290 C  
HETATM    2  O   UNL     1     -11.961   9.804  70.379  1.00  0.00    -0.235 OA 
ENDROOT
BRANCH   2   3
HETATM    3  C   UNL     1     -12.209  11.138  70.585  1.00  0.00    -0.397 A  
HETATM    4  C   UNL     1     -13.047  11.422  71.668  1.00  0.00    -0.393 A  
HETATM    5  O   UNL     1     -13.572  10.408  72.420  1.00  0.00    -0.593 OA 
HETATM    6  C   UNL     1     -13.384  12.727  72.003  1.00  0.00    -0.565 A  
HETATM    7  C   UNL     1     -12.905  13.776  71.219  1.00  0.00    -0.434 A  
HETATM    8  H   UNL     1     -14.141  10.601  73.156  1.00  0.00     0.000 HD 
HETATM    9  C   UNL     1     -12.100  13.517  70.098  1.00  0.00    -0.425 A  
HETATM   10  C   UNL     1     -11.727  12.192  69.808  1.00  0.00    -0.381 A  
BRANCH   9  11
HETATM   11  C   UNL     1     -11.672  14.648  69.198  1.00  0.00    -0.309 C  
BRANCH  11  12
HETATM   12  N   UNL     1     -12.211  14.517  67.867  1.00  0.00    -0.622 N  
HETATM   13  C   UNL     1     -11.367  14.384  66.790  1.00  0.00    -0.352 C  
HETATM   14  H   UNL     1     -13.221  14.521  67.724  1.00  0.00     0.000 HD 
HETATM   15  O   UNL     1     -10.145  14.366  66.889  1.00  0.00    -0.252 OA 
BRANCH  13  16
HETATM   16  C   UNL     1     -12.084  14.282  65.458  1.00  0.00    -0.397 C  
BRANCH  16  17
HETATM   17  C   UNL     1     -12.549  12.857  65.155  1.00  0.00    -0.536 C  
BRANCH  17  18
HETATM   18  C   UNL     1     -12.189  12.424  63.729  1.00  0.00    -0.626 C  
BRANCH  18  19
HETATM   19  C   UNL     1     -10.685  12.201  63.575  1.00  0.00    -0.509 C  
BRANCH  19  20
HETATM   20  C   UNL     1     -10.288  10.843  64.079  1.00  0.00    -0.417 C  
HETATM   21  C   UNL     1      -9.969  10.582  65.355  1.00  0.00    -0.353 C  
HETATM   22  C   UNL     1      -9.566   9.218  65.858  1.00  0.00    -0.345 C  
HETATM   23  C   UNL     1     -10.576   8.718  66.890  1.00  0.00    -0.263 C  
HETATM   24  C   UNL     1      -8.163   9.276  66.462  1.00  0.00    -0.107 C  
ENDBRANCH  19  20
ENDBRANCH  18  19
ENDBRANCH  17  18
ENDBRANCH  16  17
ENDBRANCH  13  16
ENDBRANCH  11  12
ENDBRANCH   9  11
ENDBRANCH   2   3
TORSDOF 8
ENDMDL
MODEL       11
REMARK 921   NORMALIZED FREE ENERGY PREDICTED BY IDOCK:   -5.83 KCAL/MOL
REMARK 922        TOTAL FREE ENERGY PREDICTED BY IDOCK:   -9.77 KCAL/MOL
REMARK 923 INTER-LIGAND FREE ENERGY PREDICTED BY IDOCK:   -8.46 KCAL/MOL
REMARK 924 INTRA-LIGAND FREE ENERGY PREDICTED BY IDOCK:   -1.31 KCAL/MOL
REMARK 927      BINDING AFFINITY PREDICTED BY RF-SCORE:    0.00 PKD
ROOT
HETATM    1  C   UNL     1     -12.407  14.764  64.699  1.00  0.00    -0.333 C  
HETATM    2  O   UNL     1     -12.811  13.406  64.829  1.00  0.00    -0.680 OA 
ENDROOT
BRANCH   2   3
HETATM    3  C   UNL     1     -11.924  12.560  65.444  1.00  0.00    -0.437 A  
HETATM    4  C   UNL     1     -11.282  11.655  64.592  1.00  0.00    -0.253 A  
HETATM    5  O   UNL     1     -11.570  11.643  63.255  1.00  0.00    -0.744 OA 
HETATM    6  C   UNL     1     -10.354  10.740  65.068  1.00  0.00    -0.357 A  
HETATM    7  C   UNL     1     -10.083  10.696  66.436  1.00  0.00    -0.279 A  
HETATM    8  H   UNL     1     -11.135  11.030  62.675  1.00  0.00     0.000 HD 
HETATM    9  C   UNL     1     -10.746  11.560  67.322  1.00  0.00    -0.286 A  
HETATM   10  C   UNL     1     -11.643  12.515  66.811  1.00  0.00    -0.446 A  
BRANCH   9  11
HETATM   11  C   UNL     1     -10.523  11.435  68.807  1.00  0.00    -0.204 C  
BRANCH  11  12
HETATM   12  N   UNL     1     -11.656  11.901  69.568  1.00  0.00    -0.312 N  
HETATM   13  C   UNL     1     -12.060  11.222  70.692  1.00  0.00    -0.383 C  
HETATM   14  H   UNL     1     -12.159  12.737  69.270  1.00  0.00     0.000 HD 
HETATM   15  O   UNL     1     -11.499  10.214  71.110  1.00  0.00    -0.357 OA 
BRANCH  13  16
HETATM   16  C   UNL     1     -13.279  11.820  71.366  1.00  0.00    -0.193 C  
BRANCH  16  17
HETATM   17  C   UNL     1     -12.918  12.969  72.309  1.00  0.00    -0.330 C  
BRANCH  17  18
HETATM   18  C   UNL     1     -13.959  14.094  72.272  1.00  0.00    -0.646 C  
BRANCH  18  19
HETATM   19  C   UNL     1     -13.338  15.416  71.819  1.00  0.00    -0.567 C  
BRANCH  19  20
HETATM   20  C   UNL     1     -12.711  15.278  70.461  1.00  0.00    -0.440 C  
HETATM   21  C   UNL     1     -11.537  15.826  70.120  1.00  0.00    -0.364 C  
HETATM   22  C   UNL     1     -10.911  15.690  68.754  1.00  0.00    -0.262 C  
HETATM   23  C   UNL     1      -9.579  14.949  68.856  1.00  0.00    -0.215 C  
HETATM   24  C   UNL     1     -10.712  17.072  68.129  1.00  0.00    -0.374 C  
ENDBRANCH  19  20
ENDBRANCH  18  19
ENDBRANCH  17  18
ENDBRANCH  16  17
ENDBRANCH  13  16
ENDBRANCH  11  12
ENDBRANCH   9  11
ENDBRANCH   2   3
TORSDOF 8
ENDMDL
MODEL       12
REMARK 921   NORMALIZED FREE ENERGY PREDICTED BY IDOCK:   -5.82 KCAL/MOL
REMARK 922        TOTAL FREE ENERGY PREDICTED BY IDOCK:   -9.75 KCAL/MOL
REMARK 923 INTER-LIGAND FREE ENERGY PREDICTED BY IDOCK:   -8.68 KCAL/MOL
REMARK 924 INTRA-LIGAND FREE ENERGY PREDICTED BY IDOCK:   -1.08 KCAL/MOL
REMARK 927      BINDING AFFINITY PREDICTED BY RF-SCORE:    0.00 PKD
ROOT
HETATM    1  C   UNL     1      -8.831  18.459  66.285  1.00  0.00    -0.188 C  
HETATM    2  O   UNL     1      -9.897  17.830  65.584  1.00  0.00    -0.528 OA 
ENDROOT
BRANCH   2   3
HETATM    3  C   UNL     1     -10.079  16.490  65.820  1.00  0.00    -0.303 A  
HETATM    4  C   UNL     1     -10.945  15.846  64.931  1.00  0.00    -0.411 A  
HETATM    5  O   UNL     1     -11.557  16.550  63.930  1.00  0.00    -1.598 OA 
HETATM    6  C   UNL     1     -11.223  14.490  65.040  1.00  0.00    -0.384 A  
HETATM    7  C   UNL     1     -10.653  13.761  66.085  1.00  0.00    -0.291 A  
HETATM    8  H   UNL     1     -12.145  16.112  63.326  1.00  0.00     0.000 HD 
HETATM    9  C   UNL     1      -9.817  14.392  67.020  1.00  0.00    -0.252 A  
HETATM   10  C   UNL     1      -9.507  15.754  66.859  1.00  0.00    -0.244 A  
BRANCH   9  11
HETATM   11  C   UNL     1      -9.289  13.620  68.202  1.00  0.00    -0.212 C  
BRANCH  11  12
HETATM   12  N   UNL     1     -10.091  12.457  68.493  1.00  0.00    -0.302 N  
HETATM   13  C   UNL     1      -9.489  11.266  68.820  1.00  0.00    -0.139 C  
HETATM   14  H   UNL     1     -11.109  12.518  68.456  1.00  0.00     0.000 HD 
HETATM   15  O   UNL     1      -8.272  11.122  68.888  1.00  0.00    -0.145 OA 
BRANCH  13  16
HETATM   16  C   UNL     1     -10.464  10.133  69.073  1.00  0.00    -0.239 C  
BRANCH  16  17
HETATM   17  C   UNL     1     -11.077  10.194  70.472  1.00  0.00    -0.400 C  
BRANCH  17  18
HETATM   18  C   UNL     1     -12.492  10.784  70.456  1.00  0.00    -0.447 C  
BRANCH  18  19
HETATM   19  C   UNL     1     -12.811  11.508  71.764  1.00  0.00    -0.441 C  
BRANCH  19  20
HETATM   20  C   UNL     1     -13.105  12.960  71.517  1.00  0.00    -0.390 C  
HETATM   21  C   UNL     1     -12.164  13.912  71.443  1.00  0.00    -0.296 C  
HETATM   22  C   UNL     1     -12.461  15.372  71.199  1.00  0.00    -0.463 C  
HETATM   23  C   UNL     1     -11.828  15.825  69.885  1.00  0.00    -0.355 C  
HETATM   24  C   UNL     1     -11.944  16.213  72.366  1.00  0.00    -0.649 C  
ENDBRANCH  19  20
ENDBRANCH  18  19
ENDBRANCH  17  18
ENDBRANCH  16  17
ENDBRANCH  13  16
ENDBRANCH  11  12
ENDBRANCH   9  11
ENDBRANCH   2   3
TORSDOF 8
ENDMDL
MODEL       13
REMARK 921   NORMALIZED FREE ENERGY PREDICTED BY IDOCK:   -5.80 KCAL/MOL
REMARK 922        TOTAL FREE ENERGY PREDICTED BY IDOCK:   -9.72 KCAL/MOL
REMARK 923 INTER-LIGAND FREE ENERGY PREDICTED BY IDOCK:   -8.95 KCAL/MOL
REMARK 924 INTRA-LIGAND FREE ENERGY PREDICTED BY IDOCK:   -0.77 KCAL/MOL
REMARK 927      BINDING AFFINITY PREDICTED BY RF-SCORE:    0.00 PKD
ROOT
HETATM    1  C   UNL     1     -12.121  12.391  63.503  1.00  0.00    -0.558 C  
HETATM    2  O   UNL     1     -12.696  13.519  64.152  1.00  0.00    -0.650 OA 
ENDROOT
BRANCH   2   3
HETATM    3  C   UNL     1     -11.935  14.122  65.122  1.00  0.00    -0.388 A  
HETATM    4  C   UNL     1     -11.558  15.440  64.842  1.00  0.00    -0.248 A  
HETATM    5  O   UNL     1     -11.929  16.029  63.665  1.00  0.00    -1.344 OA 
HETATM    6  C   UNL     1     -10.792  16.181  65.732  1.00  0.00    -0.206 A  
HETATM    7  C   UNL     1     -10.357  15.584  66.915  1.00  0.00    -0.290 A  
HETATM    8  H   UNL     1     -11.673  16.924  63.475  1.00  0.00     0.000 HD 
HETATM    9  C   UNL     1     -10.681  14.248  67.201  1.00  0.00    -0.282 A  
HETATM   10  C   UNL     1     -11.502  13.533  66.310  1.00  0.00    -0.350 A  
BRANCH   9  11
HETATM   11  C   UNL     1     -10.121  13.582  68.431  1.00  0.00    -0.240 C  
BRANCH  11  12
HETATM   12  N   UNL     1     -10.834  12.374  68.767  1.00  0.00    -0.241 N  
HETATM   13  C   UNL     1     -11.767  12.380  69.776  1.00  0.00    -0.291 C  
HETATM   14  H   UNL     1     -10.646  11.513  68.253  1.00  0.00     0.000 HD 
HETATM   15  O   UNL     1     -12.046  13.379  70.430  1.00  0.00    -0.340 OA 
BRANCH  13  16
HETATM   16  C   UNL     1     -12.411  11.030  70.025  1.00  0.00    -0.377 C  
BRANCH  16  17
HETATM   17  C   UNL     1     -12.997  10.915  71.432  1.00  0.00    -0.527 C  
BRANCH  17  18
HETATM   18  C   UNL     1     -12.688   9.559  72.077  1.00  0.00    -0.479 C  
BRANCH  18  19
HETATM   19  C   UNL     1     -13.752   8.519  71.727  1.00  0.00    -0.444 C  
BRANCH  19  20
HETATM   20  C   UNL     1     -13.125   7.283  71.148  1.00  0.00    -0.291 C  
HETATM   21  C   UNL     1     -11.853   7.215  70.729  1.00  0.00    -0.367 C  
HETATM   22  C   UNL     1     -11.226   5.974  70.142  1.00  0.00    -0.412 C  
HETATM   23  C   UNL     1     -10.076   5.497  71.028  1.00  0.00    -0.271 C  
HETATM   24  C   UNL     1     -10.733   6.257  68.723  1.00  0.00    -0.352 C  
ENDBRANCH  19  20
ENDBRANCH  18  19
ENDBRANCH  17  18
ENDBRANCH  16  17
ENDBRANCH  13  16
ENDBRANCH  11  12
ENDBRANCH   9  11
ENDBRANCH   2   3
TORSDOF 8
ENDMDL
MODEL       14
REMARK 921   NORMALIZED FREE ENERGY PREDICTED BY IDOCK:   -5.80 KCAL/MOL
REMARK 922        TOTAL FREE ENERGY PREDICTED BY IDOCK:   -9.72 KCAL/MOL
REMARK 923 INTER-LIGAND FREE ENERGY PREDICTED BY IDOCK:   -8.83 KCAL/MOL
REMARK 924 INTRA-LIGAND FREE ENERGY PREDICTED BY IDOCK:   -0.89 KCAL/MOL
REMARK 927      BINDING AFFINITY PREDICTED BY RF-SCORE:    0.00 PKD
ROOT
HETATM    1  C   UNL     1      -9.081   9.822  64.382  1.00  0.00    -0.248 C  
HETATM    2  O   UNL     1      -9.515  11.095  63.920  1.00  0.00    -0.226 OA 
ENDROOT
BRANCH   2   3
HETATM    3  C   UNL     1     -10.309  11.819  64.773  1.00  0.00    -0.288 A  
HETATM    4  C   UNL     1     -11.605  12.067  64.306  1.00  0.00    -0.358 A  
HETATM    5  O   UNL     1     -11.993  11.617  63.074  1.00  0.00    -0.887 OA 
HETATM    6  C   UNL     1     -12.525  12.781  65.060  1.00  0.00    -0.572 A  
HETATM    7  C   UNL     1     -12.137  13.296  66.297  1.00  0.00    -0.472 A  
HETATM    8  H   UNL     1     -12.872  11.784  62.756  1.00  0.00     0.000 HD 
HETATM    9  C   UNL     1     -10.829  13.103  66.771  1.00  0.00    -0.289 A  
HETATM   10  C   UNL     1      -9.929  12.331  66.014  1.00  0.00    -0.270 A  
BRANCH   9  11
HETATM   11  C   UNL     1     -10.390  13.750  68.059  1.00  0.00    -0.246 C  
BRANCH  11  12
HETATM   12  N   UNL     1     -11.508  14.107  68.897  1.00  0.00    -0.273 N  
HETATM   13  C   UNL     1     -11.503  15.295  69.588  1.00  0.00    -0.305 C  
HETATM   14  H   UNL     1     -12.305  13.475  68.977  1.00  0.00     0.000 HD 
HETATM   15  O   UNL     1     -10.582  16.103  69.534  1.00  0.00    -0.260 OA 
BRANCH  13  16
HETATM   16  C   UNL     1     -12.736  15.513  70.442  1.00  0.00    -0.382 C  
BRANCH  16  17
HETATM   17  C   UNL     1     -12.397  15.669  71.925  1.00  0.00    -0.502 C  
BRANCH  17  18
HETATM   18  C   UNL     1     -13.507  15.124  72.831  1.00  0.00    -0.589 C  
BRANCH  18  19
HETATM   19  C   UNL     1     -14.095  13.827  72.278  1.00  0.00    -0.627 C  
BRANCH  19  20
HETATM   20  C   UNL     1     -13.044  12.756  72.187  1.00  0.00    -0.454 C  
HETATM   21  C   UNL     1     -13.113  11.709  71.354  1.00  0.00    -0.342 C  
HETATM   22  C   UNL     1     -12.060  10.632  71.268  1.00  0.00    -0.401 C  
HETATM   23  C   UNL     1     -11.428  10.624  69.876  1.00  0.00    -0.393 C  
HETATM   24  C   UNL     1     -12.676   9.270  71.588  1.00  0.00    -0.442 C  
ENDBRANCH  19  20
ENDBRANCH  18  19
ENDBRANCH  17  18
ENDBRANCH  16  17
ENDBRANCH  13  16
ENDBRANCH  11  12
ENDBRANCH   9  11
ENDBRANCH   2   3
TORSDOF 8
ENDMDL
MODEL       15
REMARK 921   NORMALIZED FREE ENERGY PREDICTED BY IDOCK:   -5.77 KCAL/MOL
REMARK 922        TOTAL FREE ENERGY PREDICTED BY IDOCK:   -9.68 KCAL/MOL
REMARK 923 INTER-LIGAND FREE ENERGY PREDICTED BY IDOCK:   -8.94 KCAL/MOL
REMARK 924 INTRA-LIGAND FREE ENERGY PREDICTED BY IDOCK:   -0.74 KCAL/MOL
REMARK 927      BINDING AFFINITY PREDICTED BY RF-SCORE:    0.00 PKD
ROOT
HETATM    1  C   UNL     1      -9.884  10.901  63.788  1.00  0.00    -0.337 C  
HETATM    2  O   UNL     1     -10.164  12.288  63.646  1.00  0.00    -0.416 OA 
ENDROOT
BRANCH   2   3
HETATM    3  C   UNL     1     -10.718  12.915  64.734  1.00  0.00    -0.333 A  
HETATM    4  C   UNL     1     -12.084  13.196  64.622  1.00  0.00    -0.408 A  
HETATM    5  O   UNL     1     -12.765  12.867  63.482  1.00  0.00    -0.709 OA 
HETATM    6  C   UNL     1     -12.784  13.823  65.644  1.00  0.00    -0.523 A  
HETATM    7  C   UNL     1     -12.100  14.216  66.794  1.00  0.00    -0.474 A  
HETATM    8  H   UNL     1     -13.693  13.057  63.406  1.00  0.00     0.000 HD 
HETATM    9  C   UNL     1     -10.720  13.990  66.915  1.00  0.00    -0.285 A  
HETATM   10  C   UNL     1     -10.041  13.305  65.890  1.00  0.00    -0.296 A  
BRANCH   9  11
HETATM   11  C   UNL     1      -9.972  14.509  68.116  1.00  0.00    -0.220 C  
BRANCH  11  12
HETATM   12  N   UNL     1     -10.651  14.206  69.352  1.00  0.00    -0.431 N  
HETATM   13  C   UNL     1     -11.133  15.221  70.143  1.00  0.00    -0.293 C  
HETATM   14  H   UNL     1     -10.774  13.234  69.639  1.00  0.00     0.000 HD 
HETATM   15  O   UNL     1     -11.025  16.408  69.857  1.00  0.00    -0.349 OA 
BRANCH  13  16
HETATM   16  C   UNL     1     -11.798  14.742  71.418  1.00  0.00    -0.394 C  
BRANCH  16  17
HETATM   17  C   UNL     1     -13.095  13.980  71.148  1.00  0.00    -0.373 C  
BRANCH  17  18
HETATM   18  C   UNL     1     -13.103  12.599  71.813  1.00  0.00    -0.461 C  
BRANCH  18  19
HETATM   19  C   UNL     1     -12.630  11.511  70.849  1.00  0.00    -0.438 C  
BRANCH  19  20
HETATM   20  C   UNL     1     -12.754  10.150  71.471  1.00  0.00    -0.541 C  
HETATM   21  C   UNL     1     -11.815   9.198  71.383  1.00  0.00    -0.415 C  
HETATM   22  C   UNL     1     -11.944   7.829  72.005  1.00  0.00    -0.350 C  
HETATM   23  C   UNL     1     -10.856   7.625  73.059  1.00  0.00    -0.457 C  
HETATM   24  C   UNL     1     -11.856   6.752  70.924  1.00  0.00    -0.438 C  
ENDBRANCH  19  20
ENDBRANCH  18  19
ENDBRANCH  17  18
ENDBRANCH  16  17
ENDBRANCH  13  16
ENDBRANCH  11  12
ENDBRANCH   9  11
ENDBRANCH   2   3
TORSDOF 8
ENDMDL
MODEL       16
REMARK 921   NORMALIZED FREE ENERGY PREDICTED BY IDOCK:   -5.75 KCAL/MOL
REMARK 922        TOTAL FREE ENERGY PREDICTED BY IDOCK:   -9.65 KCAL/MOL
REMARK 923 INTER-LIGAND FREE ENERGY PREDICTED BY IDOCK:   -8.32 KCAL/MOL
REMARK 924 INTRA-LIGAND FREE ENERGY PREDICTED BY IDOCK:   -1.33 KCAL/MOL
REMARK 927      BINDING AFFINITY PREDICTED BY RF-SCORE:    0.00 PKD
ROOT
HETATM    1  C   UNL     1      -9.941  19.293  68.195  1.00  0.00    -0.391 C  
HETATM    2  O   UNL     1     -10.089  18.108  68.968  1.00  0.00    -0.377 OA 
ENDROOT
BRANCH   2   3
HETATM    3  C   UNL     1     -10.575  17.006  68.311  1.00  0.00    -0.372 A  
HETATM    4  C   UNL     1     -11.081  15.999  69.141  1.00  0.00    -0.317 A  
HETATM    5  O   UNL     1     -11.050  16.145  70.500  1.00  0.00    -0.349 OA 
HETATM    6  C   UNL     1     -11.611  14.827  68.620  1.00  0.00    -0.345 A  
HETATM    7  C   UNL     1     -11.605  14.632  67.239  1.00  0.00    -0.404 A  
HETATM    8  H   UNL     1     -11.394  15.462  71.064  1.00  0.00     0.000 HD 
HETATM    9  C   UNL     1     -11.061  15.604  66.385  1.00  0.00    -0.123 A  
HETATM   10  C   UNL     1     -10.578  16.808  66.930  1.00  0.00    -0.219 A  
BRANCH   9  11
HETATM   11  C   UNL     1     -10.966  15.340  64.904  1.00  0.00    -0.430 C  
BRANCH  11  12
HETATM   12  N   UNL     1     -10.823  13.935  64.611  1.00  0.00    -0.447 N  
HETATM   13  C   UNL     1     -11.666  13.327  63.712  1.00  0.00    -0.421 C  
HETATM   14  H   UNL     1     -10.093  13.391  65.072  1.00  0.00     0.000 HD 
HETATM   15  O   UNL     1     -12.560  13.920  63.119  1.00  0.00    -0.775 OA 
BRANCH  13  16
HETATM   16  C   UNL     1     -11.405  11.845  63.531  1.00  0.00    -0.516 C  
BRANCH  16  17
HETATM   17  C   UNL     1     -10.071  11.410  64.139  1.00  0.00    -0.358 C  
BRANCH  17  18
HETATM   18  C   UNL     1     -10.258  10.411  65.287  1.00  0.00    -0.332 C  
BRANCH  18  19
HETATM   19  C   UNL     1      -9.925  11.043  66.638  1.00  0.00    -0.249 C  
BRANCH  19  20
HETATM   20  C   UNL     1     -10.951  10.674  67.671  1.00  0.00    -0.370 C  
HETATM   21  C   UNL     1     -10.792  10.872  68.987  1.00  0.00    -0.275 C  
HETATM   22  C   UNL     1     -11.822  10.497  70.024  1.00  0.00    -0.388 C  
HETATM   23  C   UNL     1     -12.318  11.747  70.750  1.00  0.00    -0.433 C  
HETATM   24  C   UNL     1     -11.227   9.498  71.016  1.00  0.00    -0.432 C  
ENDBRANCH  19  20
ENDBRANCH  18  19
ENDBRANCH  17  18
ENDBRANCH  16  17
ENDBRANCH  13  16
ENDBRANCH  11  12
ENDBRANCH   9  11
ENDBRANCH   2   3
TORSDOF 8
ENDMDL
MODEL       17
REMARK 921   NORMALIZED FREE ENERGY PREDICTED BY IDOCK:   -5.74 KCAL/MOL
REMARK 922        TOTAL FREE ENERGY PREDICTED BY IDOCK:   -9.63 KCAL/MOL
REMARK 923 INTER-LIGAND FREE ENERGY PREDICTED BY IDOCK:   -8.96 KCAL/MOL
REMARK 924 INTRA-LIGAND FREE ENERGY PREDICTED BY IDOCK:   -0.67 KCAL/MOL
REMARK 927      BINDING AFFINITY PREDICTED BY RF-SCORE:    0.00 PKD
ROOT
HETATM    1  C   UNL     1     -10.078  16.114  65.689  1.00  0.00    -0.337 C  
HETATM    2  O   UNL     1     -11.016  15.376  64.915  1.00  0.00    -0.417 OA 
ENDROOT
BRANCH   2   3
HETATM    3  C   UNL     1     -10.898  14.009  64.949  1.00  0.00    -0.410 A  
HETATM    4  C   UNL     1     -11.647  13.328  63.984  1.00  0.00    -0.409 A  
HETATM    5  O   UNL     1     -12.437  14.019  63.107  1.00  0.00    -1.137 OA 
HETATM    6  C   UNL     1     -11.625  11.943  63.892  1.00  0.00    -0.515 A  
HETATM    7  C   UNL     1     -10.869  11.212  64.808  1.00  0.00    -0.277 A  
HETATM    8  H   UNL     1     -12.945  13.557  62.451  1.00  0.00     0.000 HD 
HETATM    9  C   UNL     1     -10.145  11.867  65.817  1.00  0.00    -0.272 A  
HETATM   10  C   UNL     1     -10.138  13.273  65.859  1.00  0.00    -0.296 A  
BRANCH   9  11
HETATM   11  C   UNL     1      -9.415  11.065  66.864  1.00  0.00    -0.177 C  
BRANCH  11  12
HETATM   12  N   UNL     1     -10.319  10.333  67.717  1.00  0.00    -0.190 N  
HETATM   13  C   UNL     1      -9.937   9.982  68.989  1.00  0.00    -0.196 C  
HETATM   14  H   UNL     1     -11.245  10.077  67.374  1.00  0.00     0.000 HD 
HETATM   15  O   UNL     1      -8.842  10.262  69.466  1.00  0.00    -0.187 OA 
BRANCH  13  16
HETATM   16  C   UNL     1     -10.986   9.196  69.750  1.00  0.00    -0.195 C  
BRANCH  16  17
HETATM   17  C   UNL     1     -11.388   9.875  71.059  1.00  0.00    -0.460 C  
BRANCH  17  18
HETATM   18  C   UNL     1     -12.129  11.196  70.820  1.00  0.00    -0.458 C  
BRANCH  18  19
HETATM   19  C   UNL     1     -13.270  11.386  71.820  1.00  0.00    -0.472 C  
BRANCH  19  20
HETATM   20  C   UNL     1     -13.512  12.844  72.087  1.00  0.00    -0.619 C  
HETATM   21  C   UNL     1     -12.563  13.698  72.496  1.00  0.00    -0.049 C  
HETATM   22  C   UNL     1     -12.809  15.161  72.769  1.00  0.00    -0.506 C  
HETATM   23  C   UNL     1     -11.985  16.021  71.812  1.00  0.00    -0.592 C  
HETATM   24  C   UNL     1     -12.462  15.488  74.222  1.00  0.00    -0.792 C  
ENDBRANCH  19  20
ENDBRANCH  18  19
ENDBRANCH  17  18
ENDBRANCH  16  17
ENDBRANCH  13  16
ENDBRANCH  11  12
ENDBRANCH   9  11
ENDBRANCH   2   3
TORSDOF 8
ENDMDL
MODEL       18
REMARK 921   NORMALIZED FREE ENERGY PREDICTED BY IDOCK:   -5.73 KCAL/MOL
REMARK 922        TOTAL FREE ENERGY PREDICTED BY IDOCK:   -9.62 KCAL/MOL
REMARK 923 INTER-LIGAND FREE ENERGY PREDICTED BY IDOCK:   -8.64 KCAL/MOL
REMARK 924 INTRA-LIGAND FREE ENERGY PREDICTED BY IDOCK:   -0.98 KCAL/MOL
REMARK 927      BINDING AFFINITY PREDICTED BY RF-SCORE:    0.00 PKD
ROOT
HETATM    1  C   UNL     1     -11.482   6.241  71.859  1.00  0.00    -0.309 C  
HETATM    2  O   UNL     1     -12.580   7.122  72.062  1.00  0.00    -0.290 OA 
ENDROOT
BRANCH   2   3
HETATM    3  C   UNL     1     -12.422   8.410  71.617  1.00  0.00    -0.328 A  
HETATM    4  C   UNL     1     -13.204   9.364  72.278  1.00  0.00    -0.446 A  
HETATM    5  O   UNL     1     -14.062   8.984  73.273  1.00  0.00    -1.218 OA 
HETATM    6  C   UNL     1     -13.148  10.709  71.941  1.00  0.00    -0.563 A  
HETATM    7  C   UNL     1     -12.321  11.115  70.895  1.00  0.00    -0.500 A  
HETATM    8  H   UNL     1     -14.593   9.631  73.722  1.00  0.00     0.000 HD 
HETATM    9  C   UNL     1     -11.560  10.174  70.182  1.00  0.00    -0.350 A  
HETATM   10  C   UNL     1     -11.591   8.824  70.575  1.00  0.00    -0.170 A  
BRANCH   9  11
HETATM   11  C   UNL     1     -10.749  10.607  68.988  1.00  0.00    -0.221 C  
BRANCH  11  12
HETATM   12  N   UNL     1     -10.502  12.028  68.985  1.00  0.00    -0.405 N  
HETATM   13  C   UNL     1      -9.583  12.569  68.119  1.00  0.00    -0.215 C  
HETATM   14  H   UNL     1     -11.012  12.634  69.628  1.00  0.00     0.000 HD 
HETATM   15  O   UNL     1      -8.939  11.901  67.316  1.00  0.00    -0.166 OA 
BRANCH  13  16
HETATM   16  C   UNL     1      -9.419  14.070  68.254  1.00  0.00    -0.216 C  
BRANCH  16  17
HETATM   17  C   UNL     1     -10.752  14.782  68.488  1.00  0.00    -0.247 C  
BRANCH  17  18
HETATM   18  C   UNL     1     -11.581  14.891  67.203  1.00  0.00    -0.327 C  
BRANCH  18  19
HETATM   19  C   UNL     1     -10.785  15.552  66.078  1.00  0.00    -0.331 C  
BRANCH  19  20
HETATM   20  C   UNL     1     -10.809  14.708  64.836  1.00  0.00    -0.436 C  
HETATM   21  C   UNL     1     -11.087  13.397  64.827  1.00  0.00    -0.363 C  
HETATM   22  C   UNL     1     -11.106  12.549  63.578  1.00  0.00    -0.497 C  
HETATM   23  C   UNL     1     -12.509  11.992  63.341  1.00  0.00    -0.625 C  
HETATM   24  C   UNL     1     -10.089  11.415  63.701  1.00  0.00    -0.421 C  
ENDBRANCH  19  20
ENDBRANCH  18  19
ENDBRANCH  17  18
ENDBRANCH  16  17
ENDBRANCH  13  16
ENDBRANCH  11  12
ENDBRANCH   9  11
ENDBRANCH   2   3
TORSDOF 8
ENDMDL
MODEL       19
REMARK 921   NORMALIZED FREE ENERGY PREDICTED BY IDOCK:   -5.72 KCAL/MOL
REMARK 922        TOTAL FREE ENERGY PREDICTED BY IDOCK:   -9.60 KCAL/MOL
REMARK 923 INTER-LIGAND FREE ENERGY PREDICTED BY IDOCK:   -9.00 KCAL/MOL
REMARK 924 INTRA-LIGAND FREE ENERGY PREDICTED BY IDOCK:   -0.61 KCAL/MOL
REMARK 927      BINDING AFFINITY PREDICTED BY RF-SCORE:    0.00 PKD
ROOT
HETATM    1  C   UNL     1     -10.752  17.516  65.168  1.00  0.00     0.223 C  
HETATM    2  O   UNL     1     -11.229  16.350  64.507  1.00  0.00    -0.697 OA 
ENDROOT
BRANCH   2   3
HETATM    3  C   UNL     1     -11.386  15.228  65.282  1.00  0.00    -0.282 A  
HETATM    4  C   UNL     1     -12.052  14.168  64.658  1.00  0.00    -0.452 A  
HETATM    5  O   UNL     1     -12.510  14.299  63.376  1.00  0.00    -1.125 OA 
HETATM    6  C   UNL     1     -12.280  12.966  65.314  1.00  0.00    -0.524 A  
HETATM    7  C   UNL     1     -11.869  12.826  66.640  1.00  0.00    -0.462 A  
HETATM    8  H   UNL     1     -12.962  13.579  62.952  1.00  0.00     0.000 HD 
HETATM    9  C   UNL     1     -11.241  13.890  67.307  1.00  0.00    -0.329 A  
HETATM   10  C   UNL     1     -10.972  15.080  66.606  1.00  0.00    -0.325 A  
BRANCH   9  11
HETATM   11  C   UNL     1     -10.894  13.765  68.768  1.00  0.00    -0.259 C  
BRANCH  11  12
HETATM   12  N   UNL     1     -11.108  12.428  69.265  1.00  0.00    -0.413 N  
HETATM   13  C   UNL     1     -11.992  12.207  70.294  1.00  0.00    -0.305 C  
HETATM   14  H   UNL     1     -10.602  11.645  68.852  1.00  0.00     0.000 HD 
HETATM   15  O   UNL     1     -12.637  13.100  70.834  1.00  0.00    -0.346 OA 
BRANCH  13  16
HETATM   16  C   UNL     1     -12.087  10.755  70.719  1.00  0.00    -0.473 C  
BRANCH  16  17
HETATM   17  C   UNL     1     -13.160  10.529  71.785  1.00  0.00    -0.570 C  
BRANCH  17  18
HETATM   18  C   UNL     1     -13.115   9.108  72.358  1.00  0.00    -0.493 C  
BRANCH  18  19
HETATM   19  C   UNL     1     -11.737   8.474  72.172  1.00  0.00    -0.448 C  
BRANCH  19  20
HETATM   20  C   UNL     1     -11.802   7.320  71.212  1.00  0.00    -0.340 C  
HETATM   21  C   UNL     1     -10.849   7.041  70.311  1.00  0.00    -0.283 C  
HETATM   22  C   UNL     1     -10.919   5.885  69.344  1.00  0.00    -0.421 C  
HETATM   23  C   UNL     1      -9.774   4.908  69.609  1.00  0.00    -0.266 C  
HETATM   24  C   UNL     1     -10.865   6.400  67.906  1.00  0.00    -0.404 C  
ENDBRANCH  19  20
ENDBRANCH  18  19
ENDBRANCH  17  18
ENDBRANCH  16  17
ENDBRANCH  13  16
ENDBRANCH  11  12
ENDBRANCH   9  11
ENDBRANCH   2   3
TORSDOF 8
ENDMDL
MODEL       20
REMARK 921   NORMALIZED FREE ENERGY PREDICTED BY IDOCK:   -5.67 KCAL/MOL
REMARK 922        TOTAL FREE ENERGY PREDICTED BY IDOCK:   -9.53 KCAL/MOL
REMARK 923 INTER-LIGAND FREE ENERGY PREDICTED BY IDOCK:   -8.92 KCAL/MOL
REMARK 924 INTRA-LIGAND FREE ENERGY PREDICTED BY IDOCK:   -0.60 KCAL/MOL
REMARK 927      BINDING AFFINITY PREDICTED BY RF-SCORE:    0.00 PKD
ROOT
HETATM    1  C   UNL     1     -10.153  17.631  66.283  1.00  0.00    -0.341 C  
HETATM    2  O   UNL     1     -10.210  16.854  65.092  1.00  0.00    -0.595 OA 
ENDROOT
BRANCH   2   3
HETATM    3  C   UNL     1     -10.545  15.532  65.239  1.00  0.00    -0.424 A  
HETATM    4  C   UNL     1     -11.655  15.117  64.496  1.00  0.00    -0.329 A  
HETATM    5  O   UNL     1     -12.334  16.009  63.713  1.00  0.00    -1.167 OA 
HETATM    6  C   UNL     1     -12.109  13.806  64.538  1.00  0.00    -0.463 A  
HETATM    7  C   UNL     1     -11.466  12.890  65.370  1.00  0.00    -0.360 A  
HETATM    8  H   UNL     1     -13.087  15.728  63.207  1.00  0.00     0.000 HD 
HETATM    9  C   UNL     1     -10.379  13.289  66.163  1.00  0.00    -0.290 A  
HETATM   10  C   UNL     1      -9.902  14.609  66.065  1.00  0.00    -0.347 A  
BRANCH   9  11
HETATM   11  C   UNL     1      -9.756  12.319  67.135  1.00  0.00    -0.201 C  
BRANCH  11  12
HETATM   12  N   UNL     1     -10.319  12.439  68.457  1.00  0.00    -0.247 N  
HETATM   13  C   UNL     1     -11.404  11.677  68.819  1.00  0.00    -0.264 C  
HETATM   14  H   UNL     1      -9.909  13.091  69.127  1.00  0.00     0.000 HD 
HETATM   15  O   UNL     1     -11.943  10.871  68.067  1.00  0.00    -0.586 OA 
BRANCH  13  16
HETATM   16  C   UNL     1     -11.893  11.936  70.230  1.00  0.00    -0.368 C  
BRANCH  16  17
HETATM   17  C   UNL     1     -11.921  10.664  71.079  1.00  0.00    -0.442 C  
BRANCH  17  18
HETATM   18  C   UNL     1     -13.244  10.504  71.836  1.00  0.00    -0.526 C  
BRANCH  18  19
HETATM   19  C   UNL     1     -13.629   9.033  71.985  1.00  0.00    -0.500 C  
BRANCH  19  20
HETATM   20  C   UNL     1     -12.471   8.223  72.494  1.00  0.00    -0.300 C  
HETATM   21  C   UNL     1     -12.119   7.028  72.000  1.00  0.00    -0.329 C  
HETATM   22  C   UNL     1     -10.958   6.213  72.515  1.00  0.00    -0.296 C  
HETATM   23  C   UNL     1      -9.912   6.035  71.416  1.00  0.00    -0.223 C  
HETATM   24  C   UNL     1     -11.452   4.856  73.015  1.00  0.00    -0.327 C  
ENDBRANCH  19  20
ENDBRANCH  18  19
ENDBRANCH  17  18
ENDBRANCH  16  17
ENDBRANCH  13  16
ENDBRANCH  11  12
ENDBRANCH   9  11
ENDBRANCH   2   3
TORSDOF 8
ENDMDL
MODEL       21
REMARK 921   NORMALIZED FREE ENERGY PREDICTED BY IDOCK:   -5.67 KCAL/MOL
REMARK 922        TOTAL FREE ENERGY PREDICTED BY IDOCK:   -9.53 KCAL/MOL
REMARK 923 INTER-LIGAND FREE ENERGY PREDICTED BY IDOCK:   -8.64 KCAL/MOL
REMARK 924 INTRA-LIGAND FREE ENERGY PREDICTED BY IDOCK:   -0.89 KCAL/MOL
REMARK 927      BINDING AFFINITY PREDICTED BY RF-SCORE:    0.00 PKD
ROOT
HETATM    1  C   UNL     1     -14.269   8.608  71.730  1.00  0.00    -0.412 C  
HETATM    2  O   UNL     1     -13.142   9.058  72.473  1.00  0.00    -0.433 OA 
ENDROOT
BRANCH   2   3
HETATM    3  C   UNL     1     -11.922   8.963  71.852  1.00  0.00    -0.371 A  
HETATM    4  C   UNL     1     -11.033   8.052  72.433  1.00  0.00    -0.338 A  
HETATM    5  O   UNL     1     -11.395   7.349  73.548  1.00  0.00    -0.601 OA 
HETATM    6  C   UNL     1      -9.763   7.843  71.912  1.00  0.00    -0.231 A  
HETATM    7  C   UNL     1      -9.351   8.587  70.806  1.00  0.00    -0.206 A  
HETATM    8  H   UNL     1     -10.792   6.730  73.943  1.00  0.00     0.000 HD 
HETATM    9  C   UNL     1     -10.204   9.542  70.232  1.00  0.00    -0.312 A  
HETATM   10  C   UNL     1     -11.505   9.699  70.742  1.00  0.00    -0.399 A  
BRANCH   9  11
HETATM   11  C   UNL     1      -9.713  10.412  69.103  1.00  0.00    -0.220 C  
BRANCH  11  12
HETATM   12  N   UNL     1     -10.382  11.689  69.071  1.00  0.00    -0.385 N  
HETATM   13  C   UNL     1     -11.301  11.963  68.086  1.00  0.00    -0.288 C  
HETATM   14  H   UNL     1     -10.174  12.391  69.781  1.00  0.00     0.000 HD 
HETATM   15  O   UNL     1     -11.604  11.165  67.205  1.00  0.00    -0.514 OA 
BRANCH  13  16
HETATM   16  C   UNL     1     -11.899  13.353  68.173  1.00  0.00    -0.396 C  
BRANCH  16  17
HETATM   17  C   UNL     1     -10.829  14.444  68.228  1.00  0.00    -0.250 C  
BRANCH  17  18
HETATM   18  C   UNL     1     -11.438  15.851  68.216  1.00  0.00    -0.320 C  
BRANCH  18  19
HETATM   19  C   UNL     1     -10.986  16.667  69.426  1.00  0.00    -0.235 C  
BRANCH  19  20
HETATM   20  C   UNL     1     -11.122  15.870  70.692  1.00  0.00    -0.368 C  
HETATM   21  C   UNL     1     -12.224  15.860  71.456  1.00  0.00    -0.525 C  
HETATM   22  C   UNL     1     -12.357  15.063  72.730  1.00  0.00    -0.458 C  
HETATM   23  C   UNL     1     -13.466  14.023  72.587  1.00  0.00    -0.650 C  
HETATM   24  C   UNL     1     -12.642  15.998  73.905  1.00  0.00    -0.730 C  
ENDBRANCH  19  20
ENDBRANCH  18  19
ENDBRANCH  17  18
ENDBRANCH  16  17
ENDBRANCH  13  16
ENDBRANCH  11  12
ENDBRANCH   9  11
ENDBRANCH   2   3
TORSDOF 8
ENDMDL
MODEL       22
REMARK 921   NORMALIZED FREE ENERGY PREDICTED BY IDOCK:   -5.62 KCAL/MOL
REMARK 922        TOTAL FREE ENERGY PREDICTED BY IDOCK:   -9.46 KCAL/MOL
REMARK 923 INTER-LIGAND FREE ENERGY PREDICTED BY IDOCK:   -8.31 KCAL/MOL
REMARK 924 INTRA-LIGAND FREE ENERGY PREDICTED BY IDOCK:   -1.15 KCAL/MOL
REMARK 927      BINDING AFFINITY PREDICTED BY RF-SCORE:    0.00 PKD
ROOT
HETATM    1  C   UNL     1     -10.947   7.164  73.082  1.00  0.00    -0.305 C  
HETATM    2  O   UNL     1     -11.309   7.231  71.708  1.00  0.00    -0.243 OA 
ENDROOT
BRANCH   2   3
HETATM    3  C   UNL     1     -11.533   8.484  71.194  1.00  0.00    -0.276 A  
HETATM    4  C   UNL     1     -10.848   8.767  70.008  1.00  0.00    -0.223 A  
HETATM    5  O   UNL     1     -10.012   7.836  69.454  1.00  0.00    -0.180 OA 
HETATM    6  C   UNL     1     -10.978   9.991  69.367  1.00  0.00    -0.280 A  
HETATM    7  C   UNL     1     -11.783  10.976  69.940  1.00  0.00    -0.424 A  
HETATM    8  H   UNL     1      -9.547   8.027  68.648  1.00  0.00     0.000 HD 
HETATM    9  C   UNL     1     -12.445  10.738  71.154  1.00  0.00    -0.519 A  
HETATM   10  C   UNL     1     -12.341   9.471  71.759  1.00  0.00    -0.474 A  
BRANCH   9  11
HETATM   11  C   UNL     1     -13.228  11.842  71.817  1.00  0.00    -0.329 C  
BRANCH  11  12
HETATM   12  N   UNL     1     -12.966  13.128  71.219  1.00  0.00    -0.298 N  
HETATM   13  C   UNL     1     -13.360  14.280  71.857  1.00  0.00    -0.388 C  
HETATM   14  H   UNL     1     -12.487  13.182  70.320  1.00  0.00     0.000 HD 
HETATM   15  O   UNL     1     -13.935  14.288  72.940  1.00  0.00    -0.586 OA 
BRANCH  13  16
HETATM   16  C   UNL     1     -13.036  15.547  71.091  1.00  0.00    -0.573 C  
BRANCH  16  17
HETATM   17  C   UNL     1     -11.555  15.917  71.176  1.00  0.00    -0.481 C  
BRANCH  17  18
HETATM   18  C   UNL     1     -10.816  15.646  69.861  1.00  0.00    -0.324 C  
BRANCH  18  19
HETATM   19  C   UNL     1     -11.776  15.633  68.672  1.00  0.00    -0.364 C  
BRANCH  19  20
HETATM   20  C   UNL     1     -11.815  14.277  68.027  1.00  0.00    -0.379 C  
HETATM   21  C   UNL     1     -11.498  14.049  66.744  1.00  0.00    -0.379 C  
HETATM   22  C   UNL     1     -11.542  12.687  66.097  1.00  0.00    -0.445 C  
HETATM   23  C   UNL     1     -10.143  12.276  65.639  1.00  0.00    -0.275 C  
HETATM   24  C   UNL     1     -12.514  12.699  64.917  1.00  0.00    -0.564 C  
ENDBRANCH  19  20
ENDBRANCH  18  19
ENDBRANCH  17  18
ENDBRANCH  16  17
ENDBRANCH  13  16
ENDBRANCH  11  12
ENDBRANCH   9  11
ENDBRANCH   2   3
TORSDOF 8
ENDMDL
MODEL       23
REMARK 921   NORMALIZED FREE ENERGY PREDICTED BY IDOCK:   -5.60 KCAL/MOL
REMARK 922        TOTAL FREE ENERGY PREDICTED BY IDOCK:   -9.43 KCAL/MOL
REMARK 923 INTER-LIGAND FREE ENERGY PREDICTED BY IDOCK:   -8.06 KCAL/MOL
REMARK 924 INTRA-LIGAND FREE ENERGY PREDICTED BY IDOCK:   -1.37 KCAL/MOL
REMARK 927      BINDING AFFINITY PREDICTED BY RF-SCORE:    0.00 PKD
ROOT
HETATM    1  C   UNL     1     -10.744  19.797  67.580  1.00  0.00    -0.360 C  
HETATM    2  O   UNL     1      -9.514  19.088  67.663  1.00  0.00    -0.298 OA 
ENDROOT
BRANCH   2   3
HETATM    3  C   UNL     1      -9.507  17.811  67.159  1.00  0.00    -0.265 A  
HETATM    4  C   UNL     1      -8.423  17.023  67.561  1.00  0.00    -0.200 A  
HETATM    5  O   UNL     1      -7.458  17.542  68.379  1.00  0.00    -0.226 OA 
HETATM    6  C   UNL     1      -8.284  15.709  67.138  1.00  0.00    -0.244 A  
HETATM    7  C   UNL     1      -9.227  15.173  66.261  1.00  0.00    -0.336 A  
HETATM    8  H   UNL     1      -6.722  17.007  68.653  1.00  0.00     0.000 HD 
HETATM    9  C   UNL     1     -10.299  15.955  65.803  1.00  0.00    -0.396 A  
HETATM   10  C   UNL     1     -10.451  17.267  66.287  1.00  0.00    -0.268 A  
BRANCH   9  11
HETATM   11  C   UNL     1     -11.254  15.401  64.777  1.00  0.00    -0.395 C  
BRANCH  11  12
HETATM   12  N   UNL     1     -10.808  14.137  64.246  1.00  0.00    -0.586 N  
HETATM   13  C   UNL     1     -11.684  13.083  64.141  1.00  0.00    -0.412 C  
HETATM   14  H   UNL     1      -9.839  14.024  63.948  1.00  0.00     0.000 HD 
HETATM   15  O   UNL     1     -12.862  13.150  64.476  1.00  0.00    -0.680 OA 
BRANCH  13  16
HETATM   16  C   UNL     1     -11.058  11.817  63.590  1.00  0.00    -0.518 C  
BRANCH  16  17
HETATM   17  C   UNL     1     -10.498  10.917  64.691  1.00  0.00    -0.384 C  
BRANCH  17  18
HETATM   18  C   UNL     1     -10.222  11.691  65.985  1.00  0.00    -0.270 C  
BRANCH  18  19
HETATM   19  C   UNL     1     -11.137  11.231  67.119  1.00  0.00    -0.364 C  
BRANCH  19  20
HETATM   20  C   UNL     1     -11.760  12.407  67.818  1.00  0.00    -0.413 C  
HETATM   21  C   UNL     1     -11.273  12.953  68.940  1.00  0.00    -0.327 C  
HETATM   22  C   UNL     1     -11.902  14.131  69.644  1.00  0.00    -0.379 C  
HETATM   23  C   UNL     1     -10.938  15.317  69.649  1.00  0.00    -0.291 C  
HETATM   24  C   UNL     1     -12.288  13.743  71.071  1.00  0.00    -0.452 C  
ENDBRANCH  19  20
ENDBRANCH  18  19
ENDBRANCH  17  18
ENDBRANCH  16  17
ENDBRANCH  13  16
ENDBRANCH  11  12
ENDBRANCH   9  11
ENDBRANCH   2   3
TORSDOF 8
ENDMDL
MODEL       24
REMARK 921   NORMALIZED FREE ENERGY PREDICTED BY IDOCK:   -5.59 KCAL/MOL
REMARK 922        TOTAL FREE ENERGY PREDICTED BY IDOCK:   -9.42 KCAL/MOL
REMARK 923 INTER-LIGAND FREE ENERGY PREDICTED BY IDOCK:   -8.09 KCAL/MOL
REMARK 924 INTRA-LIGAND FREE ENERGY PREDICTED BY IDOCK:   -1.32 KCAL/MOL
REMARK 927      BINDING AFFINITY PREDICTED BY RF-SCORE:    0.00 PKD
ROOT
HETATM    1  C   UNL     1      -8.383  10.134  64.680  1.00  0.00    -0.166 C  
HETATM    2  O   UNL     1      -9.764   9.867  64.891  1.00  0.00    -0.302 OA 
ENDROOT
BRANCH   2   3
HETATM    3  C   UNL     1     -10.367  10.540  65.923  1.00  0.00    -0.206 A  
HETATM    4  C   UNL     1     -10.554   9.789  67.089  1.00  0.00    -0.229 A  
HETATM    5  O   UNL     1     -10.165   8.478  67.136  1.00  0.00    -0.230 OA 
HETATM    6  C   UNL     1     -11.146  10.335  68.219  1.00  0.00    -0.311 A  
HETATM    7  C   UNL     1     -11.600  11.654  68.179  1.00  0.00    -0.389 A  
HETATM    8  H   UNL     1     -10.291   7.968  67.927  1.00  0.00     0.000 HD 
HETATM    9  C   UNL     1     -11.469  12.417  67.007  1.00  0.00    -0.423 A  
HETATM   10  C   UNL     1     -10.817  11.860  65.892  1.00  0.00    -0.342 A  
BRANCH   9  11
HETATM   11  C   UNL     1     -12.053  13.805  66.941  1.00  0.00    -0.413 C  
BRANCH  11  12
HETATM   12  N   UNL     1     -12.273  14.365  68.251  1.00  0.00    -0.600 N  
HETATM   13  C   UNL     1     -11.537  15.446  68.673  1.00  0.00    -0.359 C  
HETATM   14  H   UNL     1     -12.977  13.958  68.867  1.00  0.00     0.000 HD 
HETATM   15  O   UNL     1     -10.679  15.988  67.983  1.00  0.00    -0.287 OA 
BRANCH  13  16
HETATM   16  C   UNL     1     -11.866  15.902  70.080  1.00  0.00    -0.327 C  
BRANCH  16  17
HETATM   17  C   UNL     1     -13.004  15.093  70.704  1.00  0.00    -0.420 C  
BRANCH  17  18
HETATM   18  C   UNL     1     -12.517  14.206  71.855  1.00  0.00    -0.333 C  
BRANCH  18  19
HETATM   19  C   UNL     1     -13.550  13.139  72.215  1.00  0.00    -0.677 C  
BRANCH  19  20
HETATM   20  C   UNL     1     -13.278  11.857  71.479  1.00  0.00    -0.283 C  
HETATM   21  C   UNL     1     -13.159  10.663  72.076  1.00  0.00    -0.501 C  
HETATM   22  C   UNL     1     -12.880   9.378  71.337  1.00  0.00    -0.423 C  
HETATM   23  C   UNL     1     -14.048   8.407  71.509  1.00  0.00    -0.440 C  
HETATM   24  C   UNL     1     -11.580   8.753  71.844  1.00  0.00    -0.432 C  
ENDBRANCH  19  20
ENDBRANCH  18  19
ENDBRANCH  17  18
ENDBRANCH  16  17
ENDBRANCH  13  16
ENDBRANCH  11  12
ENDBRANCH   9  11
ENDBRANCH   2   3
TORSDOF 8
ENDMDL
MODEL       25
REMARK 921   NORMALIZED FREE ENERGY PREDICTED BY IDOCK:   -5.56 KCAL/MOL
REMARK 922        TOTAL FREE ENERGY PREDICTED BY IDOCK:   -9.36 KCAL/MOL
REMARK 923 INTER-LIGAND FREE ENERGY PREDICTED BY IDOCK:   -7.87 KCAL/MOL
REMARK 924 INTRA-LIGAND FREE ENERGY PREDICTED BY IDOCK:   -1.49 KCAL/MOL
REMARK 927      BINDING AFFINITY PREDICTED BY RF-SCORE:    0.00 PKD
ROOT
HETATM    1  C   UNL     1     -13.639   8.779  72.149  1.00  0.00    -0.435 C  
HETATM    2  O   UNL     1     -13.652  10.185  72.360  1.00  0.00    -0.308 OA 
ENDROOT
BRANCH   2   3
HETATM    3  C   UNL     1     -12.969  10.948  71.447  1.00  0.00    -0.424 A  
HETATM    4  C   UNL     1     -13.097  12.331  71.619  1.00  0.00    -0.306 A  
HETATM    5  O   UNL     1     -13.874  12.833  72.626  1.00  0.00    -0.699 OA 
HETATM    6  C   UNL     1     -12.458  13.230  70.776  1.00  0.00    -0.403 A  
HETATM    7  C   UNL     1     -11.702  12.744  69.710  1.00  0.00    -0.352 A  
HETATM    8  H   UNL     1     -13.961  13.771  72.744  1.00  0.00     0.000 HD 
HETATM    9  C   UNL     1     -11.595  11.362  69.485  1.00  0.00    -0.399 A  
HETATM   10  C   UNL     1     -12.206  10.468  70.383  1.00  0.00    -0.415 A  
BRANCH   9  11
HETATM   11  C   UNL     1     -10.861  10.849  68.272  1.00  0.00    -0.225 C  
BRANCH  11  12
HETATM   12  N   UNL     1     -11.204  11.585  67.079  1.00  0.00    -0.302 N  
HETATM   13  C   UNL     1     -10.699  11.199  65.860  1.00  0.00    -0.198 C  
HETATM   14  H   UNL     1     -11.822  12.394  67.141  1.00  0.00     0.000 HD 
HETATM   15  O   UNL     1      -9.955  10.235  65.713  1.00  0.00    -0.242 OA 
BRANCH  13  16
HETATM   16  C   UNL     1     -11.130  12.086  64.709  1.00  0.00    -0.369 C  
BRANCH  16  17
HETATM   17  C   UNL     1     -12.481  12.755  64.963  1.00  0.00    -0.572 C  
BRANCH  17  18
HETATM   18  C   UNL     1     -12.369  14.283  65.008  1.00  0.00    -0.434 C  
BRANCH  18  19
HETATM   19  C   UNL     1     -10.929  14.746  64.787  1.00  0.00    -0.393 C  
BRANCH  19  20
HETATM   20  C   UNL     1     -10.456  15.595  65.932  1.00  0.00    -0.358 C  
HETATM   21  C   UNL     1     -10.541  15.231  67.219  1.00  0.00    -0.290 C  
HETATM   22  C   UNL     1     -10.069  16.087  68.368  1.00  0.00    -0.229 C  
HETATM   23  C   UNL     1      -8.937  15.386  69.117  1.00  0.00    -0.245 C  
HETATM   24  C   UNL     1     -11.235  16.387  69.311  1.00  0.00    -0.272 C  
ENDBRANCH  19  20
ENDBRANCH  18  19
ENDBRANCH  17  18
ENDBRANCH  16  17
ENDBRANCH  13  16
ENDBRANCH  11  12
ENDBRANCH   9  11
ENDBRANCH   2   3
TORSDOF 8
ENDMDL
MODEL       26
REMARK 921   NORMALIZED FREE ENERGY PREDICTED BY IDOCK:   -5.55 KCAL/MOL
REMARK 922        TOTAL FREE ENERGY PREDICTED BY IDOCK:   -9.36 KCAL/MOL
REMARK 923 INTER-LIGAND FREE ENERGY PREDICTED BY IDOCK:   -8.47 KCAL/MOL
REMARK 924 INTRA-LIGAND FREE ENERGY PREDICTED BY IDOCK:   -0.88 KCAL/MOL
REMARK 927      BINDING AFFINITY PREDICTED BY RF-SCORE:    0.00 PKD
ROOT
HETATM    1  C   UNL     1     -10.479   7.053  71.583  1.00  0.00    -0.199 C  
HETATM    2  O   UNL     1     -11.819   7.528  71.646  1.00  0.00    -0.270 OA 
ENDROOT
BRANCH   2   3
HETATM    3  C   UNL     1     -12.009   8.860  71.379  1.00  0.00    -0.311 A  
HETATM    4  C   UNL     1     -12.973   9.490  72.175  1.00  0.00    -0.412 A  
HETATM    5  O   UNL     1     -13.661   8.778  73.119  1.00  0.00    -0.970 OA 
HETATM    6  C   UNL     1     -13.271  10.837  72.026  1.00  0.00    -0.466 A  
HETATM    7  C   UNL     1     -12.621  11.572  71.034  1.00  0.00    -0.457 A  
HETATM    8  H   UNL     1     -14.315   9.205  73.660  1.00  0.00     0.000 HD 
HETATM    9  C   UNL     1     -11.684  10.956  70.190  1.00  0.00    -0.433 A  
HETATM   10  C   UNL     1     -11.358   9.603  70.393  1.00  0.00    -0.337 A  
BRANCH   9  11
HETATM   11  C   UNL     1     -11.064  11.732  69.056  1.00  0.00    -0.246 C  
BRANCH  11  12
HETATM   12  N   UNL     1     -10.914  13.131  69.374  1.00  0.00    -0.450 N  
HETATM   13  C   UNL     1     -11.624  14.078  68.677  1.00  0.00    -0.325 C  
HETATM   14  H   UNL     1     -10.278  13.418  70.119  1.00  0.00     0.000 HD 
HETATM   15  O   UNL     1     -12.409  13.804  67.774  1.00  0.00    -0.251 OA 
BRANCH  13  16
HETATM   16  C   UNL     1     -11.339  15.502  69.111  1.00  0.00    -0.333 C  
BRANCH  16  17
HETATM   17  C   UNL     1     -10.055  16.054  68.490  1.00  0.00    -0.233 C  
BRANCH  17  18
HETATM   18  C   UNL     1     -10.242  16.431  67.016  1.00  0.00    -0.282 C  
BRANCH  18  19
HETATM   19  C   UNL     1      -9.334  15.604  66.107  1.00  0.00    -0.382 C  
BRANCH  19  20
HETATM   20  C   UNL     1     -10.127  14.937  65.019  1.00  0.00    -0.300 C  
HETATM   21  C   UNL     1     -10.408  13.627  64.993  1.00  0.00    -0.393 C  
HETATM   22  C   UNL     1     -11.201  12.958  63.897  1.00  0.00    -0.471 C  
HETATM   23  C   UNL     1     -12.490  12.367  64.465  1.00  0.00    -0.519 C  
HETATM   24  C   UNL     1     -10.357  11.872  63.230  1.00  0.00    -0.432 C  
ENDBRANCH  19  20
ENDBRANCH  18  19
ENDBRANCH  17  18
ENDBRANCH  16  17
ENDBRANCH  13  16
ENDBRANCH  11  12
ENDBRANCH   9  11
ENDBRANCH   2   3
TORSDOF 8
ENDMDL
MODEL       27
REMARK 921   NORMALIZED FREE ENERGY PREDICTED BY IDOCK:   -5.54 KCAL/MOL
REMARK 922        TOTAL FREE ENERGY PREDICTED BY IDOCK:   -9.34 KCAL/MOL
REMARK 923 INTER-LIGAND FREE ENERGY PREDICTED BY IDOCK:   -8.43 KCAL/MOL
REMARK 924 INTRA-LIGAND FREE ENERGY PREDICTED BY IDOCK:   -0.91 KCAL/MOL
REMARK 927      BINDING AFFINITY PREDICTED BY RF-SCORE:    0.00 PKD
ROOT
HETATM    1  C   UNL     1     -13.420  12.928  72.023  1.00  0.00    -0.473 C  
HETATM    2  O   UNL     1     -13.762  11.570  72.273  1.00  0.00    -0.158 OA 
ENDROOT
BRANCH   2   3
HETATM    3  C   UNL     1     -12.950  10.620  71.705  1.00  0.00    -0.477 A  
HETATM    4  C   UNL     1     -13.092   9.331  72.231  1.00  0.00    -0.441 A  
HETATM    5  O   UNL     1     -13.973   9.094  73.249  1.00  0.00    -1.164 OA 
HETATM    6  C   UNL     1     -12.342   8.265  71.753  1.00  0.00    -0.366 A  
HETATM    7  C   UNL     1     -11.399   8.492  70.751  1.00  0.00    -0.296 A  
HETATM    8  H   UNL     1     -14.070   8.219  73.606  1.00  0.00     0.000 HD 
HETATM    9  C   UNL     1     -11.201   9.783  70.237  1.00  0.00    -0.347 A  
HETATM   10  C   UNL     1     -12.009  10.839  70.698  1.00  0.00    -0.466 A  
BRANCH   9  11
HETATM   11  C   UNL     1     -10.110  10.037  69.229  1.00  0.00    -0.213 C  
BRANCH  11  12
HETATM   12  N   UNL     1     -10.638  10.356  67.926  1.00  0.00    -0.213 N  
HETATM   13  C   UNL     1     -10.380  11.581  67.357  1.00  0.00    -0.207 C  
HETATM   14  H   UNL     1     -11.203   9.671  67.424  1.00  0.00     0.000 HD 
HETATM   15  O   UNL     1      -9.704  12.448  67.900  1.00  0.00    -0.191 OA 
BRANCH  13  16
HETATM   16  C   UNL     1     -11.024  11.774  65.998  1.00  0.00    -0.355 C  
BRANCH  16  17
HETATM   17  C   UNL     1     -12.157  12.800  66.032  1.00  0.00    -0.458 C  
BRANCH  17  18
HETATM   18  C   UNL     1     -11.917  13.957  65.054  1.00  0.00    -0.403 C  
BRANCH  18  19
HETATM   19  C   UNL     1     -10.425  14.193  64.823  1.00  0.00    -0.432 C  
BRANCH  19  20
HETATM   20  C   UNL     1      -9.890  15.222  65.778  1.00  0.00    -0.395 C  
HETATM   21  C   UNL     1     -10.659  16.079  66.463  1.00  0.00    -0.284 C  
HETATM   22  C   UNL     1     -10.120  17.115  67.418  1.00  0.00    -0.301 C  
HETATM   23  C   UNL     1     -10.626  16.841  68.834  1.00  0.00    -0.350 C  
HETATM   24  C   UNL     1     -10.531  18.515  66.960  1.00  0.00    -0.440 C  
ENDBRANCH  19  20
ENDBRANCH  18  19
ENDBRANCH  17  18
ENDBRANCH  16  17
ENDBRANCH  13  16
ENDBRANCH  11  12
ENDBRANCH   9  11
ENDBRANCH   2   3
TORSDOF 8
ENDMDL
MODEL       28
REMARK 921   NORMALIZED FREE ENERGY PREDICTED BY IDOCK:   -5.54 KCAL/MOL
REMARK 922        TOTAL FREE ENERGY PREDICTED BY IDOCK:   -9.34 KCAL/MOL
REMARK 923 INTER-LIGAND FREE ENERGY PREDICTED BY IDOCK:   -8.09 KCAL/MOL
REMARK 924 INTRA-LIGAND FREE ENERGY PREDICTED BY IDOCK:   -1.25 KCAL/MOL
REMARK 927      BINDING AFFINITY PREDICTED BY RF-SCORE:    0.00 PKD
ROOT
HETATM    1  C   UNL     1      -9.383  10.228  63.543  1.00  0.00    -0.301 C  
HETATM    2  O   UNL     1     -10.461  11.139  63.372  1.00  0.00    -0.364 OA 
ENDROOT
BRANCH   2   3
HETATM    3  C   UNL     1     -10.949  11.731  64.510  1.00  0.00    -0.324 A  
HETATM    4  C   UNL     1     -11.821  12.803  64.291  1.00  0.00    -0.396 A  
HETATM    5  O   UNL     1     -12.117  13.203  63.017  1.00  0.00    -0.795 OA 
HETATM    6  C   UNL     1     -12.399  13.497  65.345  1.00  0.00    -0.517 A  
HETATM    7  C   UNL     1     -12.072  13.142  66.654  1.00  0.00    -0.409 A  
HETATM    8  H   UNL     1     -12.710  13.930  62.868  1.00  0.00     0.000 HD 
HETATM    9  C   UNL     1     -11.162  12.101  66.904  1.00  0.00    -0.375 A  
HETATM   10  C   UNL     1     -10.630  11.377  65.822  1.00  0.00    -0.315 A  
BRANCH   9  11
HETATM   11  C   UNL     1     -10.737  11.793  68.316  1.00  0.00    -0.214 C  
BRANCH  11  12
HETATM   12  N   UNL     1     -11.825  11.278  69.111  1.00  0.00    -0.332 N  
HETATM   13  C   UNL     1     -11.574  10.411  70.147  1.00  0.00    -0.312 C  
HETATM   14  H   UNL     1     -12.783  11.559  68.904  1.00  0.00     0.000 HD 
HETATM   15  O   UNL     1     -10.447  10.036  70.455  1.00  0.00    -0.286 OA 
BRANCH  13  16
HETATM   16  C   UNL     1     -12.821   9.940  70.870  1.00  0.00    -0.360 C  
BRANCH  16  17
HETATM   17  C   UNL     1     -12.512   8.902  71.948  1.00  0.00    -0.445 C  
BRANCH  17  18
HETATM   18  C   UNL     1     -12.962   7.494  71.541  1.00  0.00    -0.400 C  
BRANCH  18  19
HETATM   19  C   UNL     1     -11.825   6.482  71.672  1.00  0.00    -0.384 C  
BRANCH  19  20
HETATM   20  C   UNL     1     -10.899   6.559  70.492  1.00  0.00    -0.323 C  
HETATM   21  C   UNL     1     -11.312   6.680  69.223  1.00  0.00    -0.301 C  
HETATM   22  C   UNL     1     -10.381   6.752  68.038  1.00  0.00    -0.224 C  
HETATM   23  C   UNL     1     -10.532   8.097  67.330  1.00  0.00    -0.379 C  
HETATM   24  C   UNL     1     -10.670   5.600  67.074  1.00  0.00    -0.332 C  
ENDBRANCH  19  20
ENDBRANCH  18  19
ENDBRANCH  17  18
ENDBRANCH  16  17
ENDBRANCH  13  16
ENDBRANCH  11  12
ENDBRANCH   9  11
ENDBRANCH   2   3
TORSDOF 8
ENDMDL
MODEL       29
REMARK 921   NORMALIZED FREE ENERGY PREDICTED BY IDOCK:   -5.52 KCAL/MOL
REMARK 922        TOTAL FREE ENERGY PREDICTED BY IDOCK:   -9.31 KCAL/MOL
REMARK 923 INTER-LIGAND FREE ENERGY PREDICTED BY IDOCK:   -8.34 KCAL/MOL
REMARK 924 INTRA-LIGAND FREE ENERGY PREDICTED BY IDOCK:   -0.97 KCAL/MOL
REMARK 927      BINDING AFFINITY PREDICTED BY RF-SCORE:    0.00 PKD
ROOT
HETATM    1  C   UNL     1     -12.224  14.602  64.511  1.00  0.00    -0.456 C  
HETATM    2  O   UNL     1     -12.594  13.229  64.499  1.00  0.00    -0.599 OA 
ENDROOT
BRANCH   2   3
HETATM    3  C   UNL     1     -11.754  12.362  65.151  1.00  0.00    -0.382 A  
HETATM    4  C   UNL     1     -11.081  11.457  64.324  1.00  0.00    -0.285 A  
HETATM    5  O   UNL     1     -11.297  11.464  62.973  1.00  0.00    -0.841 OA 
HETATM    6  C   UNL     1     -10.193  10.523  64.839  1.00  0.00    -0.371 A  
HETATM    7  C   UNL     1      -9.996  10.461  66.219  1.00  0.00    -0.283 A  
HETATM    8  H   UNL     1     -10.839  10.849  62.411  1.00  0.00     0.000 HD 
HETATM    9  C   UNL     1     -10.693  11.325  67.078  1.00  0.00    -0.305 A  
HETATM   10  C   UNL     1     -11.547  12.299  66.530  1.00  0.00    -0.440 A  
BRANCH   9  11
HETATM   11  C   UNL     1     -10.551  11.182  68.571  1.00  0.00    -0.191 C  
BRANCH  11  12
HETATM   12  N   UNL     1     -10.981  12.366  69.274  1.00  0.00    -0.435 N  
HETATM   13  C   UNL     1     -12.018  12.299  70.172  1.00  0.00    -0.298 C  
HETATM   14  H   UNL     1     -10.512  13.256  69.103  1.00  0.00     0.000 HD 
HETATM   15  O   UNL     1     -12.622  11.263  70.429  1.00  0.00    -0.270 OA 
BRANCH  13  16
HETATM   16  C   UNL     1     -12.367  13.630  70.808  1.00  0.00    -0.446 C  
BRANCH  16  17
HETATM   17  C   UNL     1     -11.173  14.585  70.852  1.00  0.00     0.037 C  
BRANCH  17  18
HETATM   18  C   UNL     1     -11.459  15.899  70.117  1.00  0.00    -0.366 C  
BRANCH  18  19
HETATM   19  C   UNL     1     -11.558  15.685  68.607  1.00  0.00    -0.391 C  
BRANCH  19  20
HETATM   20  C   UNL     1     -10.657  16.634  67.869  1.00  0.00    -0.342 C  
HETATM   21  C   UNL     1     -10.399  17.887  68.271  1.00  0.00    -0.389 C  
HETATM   22  C   UNL     1      -9.497  18.840  67.527  1.00  0.00    -0.326 C  
HETATM   23  C   UNL     1      -8.294  19.212  68.393  1.00  0.00    -0.384 C  
HETATM   24  C   UNL     1     -10.277  20.091  67.123  1.00  0.00    -0.580 C  
ENDBRANCH  19  20
ENDBRANCH  18  19
ENDBRANCH  17  18
ENDBRANCH  16  17
ENDBRANCH  13  16
ENDBRANCH  11  12
ENDBRANCH   9  11
ENDBRANCH   2   3
TORSDOF 8
ENDMDL
MODEL       30
REMARK 921   NORMALIZED FREE ENERGY PREDICTED BY IDOCK:   -5.51 KCAL/MOL
REMARK 922        TOTAL FREE ENERGY PREDICTED BY IDOCK:   -9.29 KCAL/MOL
REMARK 923 INTER-LIGAND FREE ENERGY PREDICTED BY IDOCK:   -8.36 KCAL/MOL
REMARK 924 INTRA-LIGAND FREE ENERGY PREDICTED BY IDOCK:   -0.93 KCAL/MOL
REMARK 927      BINDING AFFINITY PREDICTED BY RF-SCORE:    0.00 PKD
ROOT
HETATM    1  C   UNL     1      -8.025   7.931  66.369  1.00  0.00    -0.102 C  
HETATM    2  O   UNL     1      -9.436   8.008  66.203  1.00  0.00    -0.190 OA 
ENDROOT
BRANCH   2   3
HETATM    3  C   UNL     1      -9.987   9.264  66.224  1.00  0.00    -0.286 A  
HETATM    4  C   UNL     1     -10.686   9.583  67.393  1.00  0.00    -0.227 A  
HETATM    5  O   UNL     1     -10.798   8.667  68.402  1.00  0.00    -0.431 OA 
HETATM    6  C   UNL     1     -11.293  10.820  67.562  1.00  0.00    -0.283 A  
HETATM    7  C   UNL     1     -11.238  11.752  66.525  1.00  0.00    -0.380 A  
HETATM    8  H   UNL     1     -11.272   8.884  69.196  1.00  0.00     0.000 HD 
HETATM    9  C   UNL     1     -10.584  11.442  65.322  1.00  0.00    -0.336 A  
HETATM   10  C   UNL     1      -9.930  10.203  65.193  1.00  0.00    -0.379 A  
BRANCH   9  11
HETATM   11  C   UNL     1     -10.618  12.415  64.172  1.00  0.00    -0.385 C  
BRANCH  11  12
HETATM   12  N   UNL     1     -10.408  13.775  64.604  1.00  0.00    -0.554 N  
HETATM   13  C   UNL     1     -11.414  14.703  64.478  1.00  0.00    -0.335 C  
HETATM   14  H   UNL     1      -9.511  14.048  65.005  1.00  0.00     0.000 HD 
HETATM   15  O   UNL     1     -12.518  14.442  64.011  1.00  0.00    -0.748 OA 
BRANCH  13  16
HETATM   16  C   UNL     1     -11.032  16.090  64.954  1.00  0.00    -0.399 C  
BRANCH  16  17
HETATM   17  C   UNL     1     -10.024  16.056  66.102  1.00  0.00    -0.347 C  
BRANCH  17  18
HETATM   18  C   UNL     1     -10.685  16.321  67.459  1.00  0.00    -0.300 C  
BRANCH  18  19
HETATM   19  C   UNL     1     -11.574  15.154  67.887  1.00  0.00    -0.326 C  
BRANCH  19  20
HETATM   20  C   UNL     1     -11.396  14.849  69.347  1.00  0.00    -0.312 C  
HETATM   21  C   UNL     1     -12.289  15.171  70.293  1.00  0.00    -0.398 C  
HETATM   22  C   UNL     1     -12.107  14.869  71.760  1.00  0.00    -0.428 C  
HETATM   23  C   UNL     1     -13.199  13.915  72.241  1.00  0.00    -0.568 C  
HETATM   24  C   UNL     1     -12.129  16.166  72.568  1.00  0.00    -0.644 C  
ENDBRANCH  19  20
ENDBRANCH  18  19
ENDBRANCH  17  18
ENDBRANCH  16  17
ENDBRANCH  13  16
ENDBRANCH  11  12
ENDBRANCH   9  11
ENDBRANCH   2   3
TORSDOF 8
ENDMDL
MODEL       31
REMARK 921   NORMALIZED FREE ENERGY PREDICTED BY IDOCK:   -5.51 KCAL/MOL
REMARK 922        TOTAL FREE ENERGY PREDICTED BY IDOCK:   -9.29 KCAL/MOL
REMARK 923 INTER-LIGAND FREE ENERGY PREDICTED BY IDOCK:   -8.44 KCAL/MOL
REMARK 924 INTRA-LIGAND FREE ENERGY PREDICTED BY IDOCK:   -0.85 KCAL/MOL
REMARK 927      BINDING AFFINITY PREDICTED BY RF-SCORE:    0.00 PKD
ROOT
HETATM    1  C   UNL     1     -12.772  12.034  63.373  1.00  0.00    -0.398 C  
HETATM    2  O   UNL     1     -12.525  13.423  63.554  1.00  0.00    -0.738 OA 
ENDROOT
BRANCH   2   3
HETATM    3  C   UNL     1     -11.615  13.762  64.523  1.00  0.00    -0.392 A  
HETATM    4  C   UNL     1     -11.303  15.124  64.590  1.00  0.00    -0.356 A  
HETATM    5  O   UNL     1     -11.876  16.007  63.716  1.00  0.00    -1.334 OA 
HETATM    6  C   UNL     1     -10.403  15.619  65.523  1.00  0.00    -0.421 A  
HETATM    7  C   UNL     1      -9.765  14.732  66.390  1.00  0.00    -0.311 A  
HETATM    8  H   UNL     1     -11.665  16.933  63.762  1.00  0.00     0.000 HD 
HETATM    9  C   UNL     1     -10.022  13.354  66.315  1.00  0.00    -0.298 A  
HETATM   10  C   UNL     1     -10.978  12.880  65.398  1.00  0.00    -0.305 A  
BRANCH   9  11
HETATM   11  C   UNL     1      -9.253  12.393  67.185  1.00  0.00    -0.199 C  
BRANCH  11  12
HETATM   12  N   UNL     1      -9.752  11.044  67.077  1.00  0.00    -0.180 N  
HETATM   13  C   UNL     1      -9.007  10.080  66.441  1.00  0.00    -0.144 C  
HETATM   14  H   UNL     1     -10.660  10.805  67.476  1.00  0.00     0.000 HD 
HETATM   15  O   UNL     1      -7.907  10.297  65.944  1.00  0.00    -0.127 OA 
BRANCH  13  16
HETATM   16  C   UNL     1      -9.678   8.722  66.388  1.00  0.00    -0.335 C  
BRANCH  16  17
HETATM   17  C   UNL     1     -10.197   8.276  67.755  1.00  0.00    -0.282 C  
BRANCH  17  18
HETATM   18  C   UNL     1      -9.068   8.124  68.781  1.00  0.00    -0.144 C  
BRANCH  18  19
HETATM   19  C   UNL     1      -9.375   8.888  70.068  1.00  0.00    -0.184 C  
BRANCH  19  20
HETATM   20  C   UNL     1     -10.839   9.211  70.165  1.00  0.00    -0.269 C  
HETATM   21  C   UNL     1     -11.435   9.654  71.281  1.00  0.00    -0.463 C  
HETATM   22  C   UNL     1     -12.906   9.974  71.378  1.00  0.00    -0.519 C  
HETATM   23  C   UNL     1     -13.103  11.457  71.692  1.00  0.00    -0.498 C  
HETATM   24  C   UNL     1     -13.562   9.104  72.451  1.00  0.00    -0.544 C  
ENDBRANCH  19  20
ENDBRANCH  18  19
ENDBRANCH  17  18
ENDBRANCH  16  17
ENDBRANCH  13  16
ENDBRANCH  11  12
ENDBRANCH   9  11
ENDBRANCH   2   3
TORSDOF 8
ENDMDL
MODEL       32
REMARK 921   NORMALIZED FREE ENERGY PREDICTED BY IDOCK:   -5.50 KCAL/MOL
REMARK 922        TOTAL FREE ENERGY PREDICTED BY IDOCK:   -9.29 KCAL/MOL
REMARK 923 INTER-LIGAND FREE ENERGY PREDICTED BY IDOCK:   -8.57 KCAL/MOL
REMARK 924 INTRA-LIGAND FREE ENERGY PREDICTED BY IDOCK:   -0.72 KCAL/MOL
REMARK 927      BINDING AFFINITY PREDICTED BY RF-SCORE:    0.00 PKD
ROOT
HETATM    1  C   UNL     1     -12.885   8.751  72.045  1.00  0.00    -0.390 C  
HETATM    2  O   UNL     1     -13.266  10.109  72.225  1.00  0.00    -0.415 OA 
ENDROOT
BRANCH   2   3
HETATM    3  C   UNL     1     -12.767  11.010  71.318  1.00  0.00    -0.432 A  
HETATM    4  C   UNL     1     -12.967  12.354  71.650  1.00  0.00    -0.305 A  
HETATM    5  O   UNL     1     -13.636  12.691  72.794  1.00  0.00    -0.661 OA 
HETATM    6  C   UNL     1     -12.512  13.380  70.833  1.00  0.00    -0.439 A  
HETATM    7  C   UNL     1     -11.874  13.062  69.634  1.00  0.00    -0.385 A  
HETATM    8  H   UNL     1     -13.772  13.604  73.020  1.00  0.00     0.000 HD 
HETATM    9  C   UNL     1     -11.701  11.722  69.252  1.00  0.00    -0.398 A  
HETATM   10  C   UNL     1     -12.121  10.699  70.121  1.00  0.00    -0.414 A  
BRANCH   9  11
HETATM   11  C   UNL     1     -11.103  11.391  67.909  1.00  0.00    -0.261 C  
BRANCH  11  12
HETATM   12  N   UNL     1     -11.769  12.082  66.833  1.00  0.00    -0.314 N  
HETATM   13  C   UNL     1     -11.183  12.155  65.591  1.00  0.00    -0.335 C  
HETATM   14  H   UNL     1     -12.677  12.518  66.993  1.00  0.00     0.000 HD 
HETATM   15  O   UNL     1     -10.097  11.650  65.327  1.00  0.00    -0.244 OA 
BRANCH  13  16
HETATM   16  C   UNL     1     -11.994  12.935  64.575  1.00  0.00    -0.452 C  
BRANCH  16  17
HETATM   17  C   UNL     1     -12.220  14.386  65.001  1.00  0.00    -0.418 C  
BRANCH  17  18
HETATM   18  C   UNL     1     -10.903  15.156  65.148  1.00  0.00    -0.437 C  
BRANCH  18  19
HETATM   19  C   UNL     1     -10.569  15.419  66.616  1.00  0.00    -0.306 C  
BRANCH  19  20
HETATM   20  C   UNL     1      -9.871  16.739  66.780  1.00  0.00    -0.282 C  
HETATM   21  C   UNL     1     -10.505  17.918  66.842  1.00  0.00    -0.334 C  
HETATM   22  C   UNL     1      -9.802  19.243  67.002  1.00  0.00    -0.424 C  
HETATM   23  C   UNL     1     -10.218  19.904  68.316  1.00  0.00    -0.562 C  
HETATM   24  C   UNL     1     -10.123  20.153  65.817  1.00  0.00    -0.362 C  
ENDBRANCH  19  20
ENDBRANCH  18  19
ENDBRANCH  17  18
ENDBRANCH  16  17
ENDBRANCH  13  16
ENDBRANCH  11  12
ENDBRANCH   9  11
ENDBRANCH   2   3
TORSDOF 8
ENDMDL
MODEL       33
REMARK 921   NORMALIZED FREE ENERGY PREDICTED BY IDOCK:   -5.50 KCAL/MOL
REMARK 922        TOTAL FREE ENERGY PREDICTED BY IDOCK:   -9.27 KCAL/MOL
REMARK 923 INTER-LIGAND FREE ENERGY PREDICTED BY IDOCK:   -7.88 KCAL/MOL
REMARK 924 INTRA-LIGAND FREE ENERGY PREDICTED BY IDOCK:   -1.39 KCAL/MOL
REMARK 927      BINDING AFFINITY PREDICTED BY RF-SCORE:    0.00 PKD
ROOT
HETATM    1  C   UNL     1     -12.245  12.572  63.914  1.00  0.00    -0.503 C  
HETATM    2  O   UNL     1     -11.014  12.616  64.626  1.00  0.00    -0.288 OA 
ENDROOT
BRANCH   2   3
HETATM    3  C   UNL     1     -10.953  11.891  65.789  1.00  0.00    -0.311 A  
HETATM    4  C   UNL     1     -10.269  10.675  65.691  1.00  0.00    -0.253 A  
HETATM    5  O   UNL     1      -9.737  10.275  64.496  1.00  0.00    -0.299 OA 
HETATM    6  C   UNL     1     -10.120   9.834  66.786  1.00  0.00    -0.295 A  
HETATM    7  C   UNL     1     -10.699  10.194  68.003  1.00  0.00    -0.305 A  
HETATM    8  H   UNL     1      -9.272   9.450  64.430  1.00  0.00     0.000 HD 
HETATM    9  C   UNL     1     -11.432  11.386  68.119  1.00  0.00    -0.375 A  
HETATM   10  C   UNL     1     -11.525  12.248  67.011  1.00  0.00    -0.419 A  
BRANCH   9  11
HETATM   11  C   UNL     1     -12.140  11.716  69.408  1.00  0.00    -0.263 C  
BRANCH  11  12
HETATM   12  N   UNL     1     -12.338  10.549  70.232  1.00  0.00    -0.406 N  
HETATM   13  C   UNL     1     -12.901  10.671  71.480  1.00  0.00    -0.462 C  
HETATM   14  H   UNL     1     -12.060   9.630  69.888  1.00  0.00     0.000 HD 
HETATM   15  O   UNL     1     -13.264  11.743  71.954  1.00  0.00    -0.482 OA 
BRANCH  13  16
HETATM   16  C   UNL     1     -13.019   9.361  72.232  1.00  0.00    -0.479 C  
BRANCH  16  17
HETATM   17  C   UNL     1     -14.174   8.498  71.722  1.00  0.00    -0.525 C  
BRANCH  17  18
HETATM   18  C   UNL     1     -13.738   7.055  71.446  1.00  0.00    -0.307 C  
BRANCH  18  19
HETATM   19  C   UNL     1     -12.275   6.830  71.824  1.00  0.00    -0.402 C  
BRANCH  19  20
HETATM   20  C   UNL     1     -11.527   6.164  70.705  1.00  0.00    -0.331 C  
HETATM   21  C   UNL     1     -11.034   6.815  69.642  1.00  0.00    -0.336 C  
HETATM   22  C   UNL     1     -10.287   6.143  68.516  1.00  0.00    -0.248 C  
HETATM   23  C   UNL     1      -8.855   6.671  68.446  1.00  0.00    -0.121 C  
HETATM   24  C   UNL     1     -11.014   6.378  67.192  1.00  0.00    -0.476 C  
ENDBRANCH  19  20
ENDBRANCH  18  19
ENDBRANCH  17  18
ENDBRANCH  16  17
ENDBRANCH  13  16
ENDBRANCH  11  12
ENDBRANCH   9  11
ENDBRANCH   2   3
TORSDOF 8
ENDMDL
MODEL       34
REMARK 921   NORMALIZED FREE ENERGY PREDICTED BY IDOCK:   -5.49 KCAL/MOL
REMARK 922        TOTAL FREE ENERGY PREDICTED BY IDOCK:   -9.27 KCAL/MOL
REMARK 923 INTER-LIGAND FREE ENERGY PREDICTED BY IDOCK:   -8.14 KCAL/MOL
REMARK 924 INTRA-LIGAND FREE ENERGY PREDICTED BY IDOCK:   -1.13 KCAL/MOL
REMARK 927      BINDING AFFINITY PREDICTED BY RF-SCORE:    0.00 PKD
ROOT
HETATM    1  C   UNL     1     -10.182  19.309  66.526  1.00  0.00    -0.435 C  
HETATM    2  O   UNL     1     -10.316  18.259  65.576  1.00  0.00    -0.575 OA 
ENDROOT
BRANCH   2   3
HETATM    3  C   UNL     1     -10.544  17.003  66.079  1.00  0.00    -0.206 A  
HETATM    4  C   UNL     1     -11.073  16.087  65.163  1.00  0.00    -0.283 A  
HETATM    5  O   UNL     1     -11.344  16.473  63.879  1.00  0.00    -1.557 OA 
HETATM    6  C   UNL     1     -11.351  14.776  65.525  1.00  0.00    -0.343 A  
HETATM    7  C   UNL     1     -11.134  14.373  66.842  1.00  0.00    -0.325 A  
HETATM    8  H   UNL     1     -11.702  15.851  63.257  1.00  0.00     0.000 HD 
HETATM    9  C   UNL     1     -10.648  15.283  67.795  1.00  0.00    -0.266 A  
HETATM   10  C   UNL     1     -10.323  16.592  67.394  1.00  0.00    -0.292 A  
BRANCH   9  11
HETATM   11  C   UNL     1     -10.514  14.868  69.237  1.00  0.00    -0.241 C  
BRANCH  11  12
HETATM   12  N   UNL     1     -10.829  13.473  69.432  1.00  0.00    -0.450 N  
HETATM   13  C   UNL     1     -11.962  13.110  70.120  1.00  0.00    -0.310 C  
HETATM   14  H   UNL     1     -10.209  12.755  69.057  1.00  0.00     0.000 HD 
HETATM   15  O   UNL     1     -12.753  13.920  70.593  1.00  0.00    -0.321 OA 
BRANCH  13  16
HETATM   16  C   UNL     1     -12.140  11.611  70.262  1.00  0.00    -0.443 C  
BRANCH  16  17
HETATM   17  C   UNL     1     -11.052  10.824  69.530  1.00  0.00    -0.334 C  
BRANCH  17  18
HETATM   18  C   UNL     1     -11.502  10.381  68.133  1.00  0.00    -0.194 C  
BRANCH  18  19
HETATM   19  C   UNL     1     -10.364   9.710  67.365  1.00  0.00    -0.306 C  
BRANCH  19  20
HETATM   20  C   UNL     1      -9.849  10.608  66.276  1.00  0.00    -0.263 C  
HETATM   21  C   UNL     1      -9.945  10.328  64.968  1.00  0.00    -0.393 C  
HETATM   22  C   UNL     1      -9.424  11.228  63.875  1.00  0.00    -0.213 C  
HETATM   23  C   UNL     1     -10.577  11.712  62.997  1.00  0.00    -0.224 C  
HETATM   24  C   UNL     1      -8.383  10.486  63.038  1.00  0.00    -0.159 C  
ENDBRANCH  19  20
ENDBRANCH  18  19
ENDBRANCH  17  18
ENDBRANCH  16  17
ENDBRANCH  13  16
ENDBRANCH  11  12
ENDBRANCH   9  11
ENDBRANCH   2   3
TORSDOF 8
ENDMDL
MODEL       35
REMARK 921   NORMALIZED FREE ENERGY PREDICTED BY IDOCK:   -5.48 KCAL/MOL
REMARK 922        TOTAL FREE ENERGY PREDICTED BY IDOCK:   -9.26 KCAL/MOL
REMARK 923 INTER-LIGAND FREE ENERGY PREDICTED BY IDOCK:   -8.22 KCAL/MOL
REMARK 924 INTRA-LIGAND FREE ENERGY PREDICTED BY IDOCK:   -1.03 KCAL/MOL
REMARK 927      BINDING AFFINITY PREDICTED BY RF-SCORE:    0.00 PKD
ROOT
HETATM    1  C   UNL     1     -11.678  15.986  71.141  1.00  0.00    -0.439 C  
HETATM    2  O   UNL     1     -12.801  15.178  70.811  1.00  0.00    -0.373 OA 
ENDROOT
BRANCH   2   3
HETATM    3  C   UNL     1     -12.534  13.894  70.407  1.00  0.00    -0.334 A  
HETATM    4  C   UNL     1     -12.878  12.901  71.331  1.00  0.00    -0.283 A  
HETATM    5  O   UNL     1     -13.418  13.240  72.541  1.00  0.00    -0.573 OA 
HETATM    6  C   UNL     1     -12.673  11.555  71.062  1.00  0.00    -0.426 A  
HETATM    7  C   UNL     1     -12.075  11.186  69.856  1.00  0.00    -0.418 A  
HETATM    8  H   UNL     1     -13.652  12.566  73.169  1.00  0.00     0.000 HD 
HETATM    9  C   UNL     1     -11.676  12.163  68.930  1.00  0.00    -0.381 A  
HETATM   10  C   UNL     1     -11.943  13.518  69.201  1.00  0.00    -0.378 A  
BRANCH   9  11
HETATM   11  C   UNL     1     -10.939  11.762  67.679  1.00  0.00    -0.233 C  
BRANCH  11  12
HETATM   12  N   UNL     1     -10.647  12.894  66.834  1.00  0.00    -0.252 N  
HETATM   13  C   UNL     1     -11.455  13.182  65.760  1.00  0.00    -0.325 C  
HETATM   14  H   UNL     1      -9.838  13.482  67.034  1.00  0.00     0.000 HD 
HETATM   15  O   UNL     1     -12.445  12.520  65.464  1.00  0.00    -0.646 OA 
BRANCH  13  16
HETATM   16  C   UNL     1     -11.002  14.384  64.956  1.00  0.00    -0.398 C  
BRANCH  16  17
HETATM   17  C   UNL     1      -9.958  15.220  65.697  1.00  0.00    -0.397 C  
BRANCH  17  18
HETATM   18  C   UNL     1     -10.531  16.553  66.192  1.00  0.00    -0.301 C  
BRANCH  18  19
HETATM   19  C   UNL     1     -10.488  16.649  67.717  1.00  0.00    -0.316 C  
BRANCH  19  20
HETATM   20  C   UNL     1      -9.924  17.970  68.156  1.00  0.00    -0.356 C  
HETATM   21  C   UNL     1      -8.669  18.369  67.906  1.00  0.00    -0.296 C  
HETATM   22  C   UNL     1      -8.104  19.695  68.353  1.00  0.00    -0.352 C  
HETATM   23  C   UNL     1      -7.719  20.539  67.138  1.00  0.00    -0.368 C  
HETATM   24  C   UNL     1      -6.893  19.469  69.258  1.00  0.00    -0.381 C  
ENDBRANCH  19  20
ENDBRANCH  18  19
ENDBRANCH  17  18
ENDBRANCH  16  17
ENDBRANCH  13  16
ENDBRANCH  11  12
ENDBRANCH   9  11
ENDBRANCH   2   3
TORSDOF 8
ENDMDL
MODEL       36
REMARK 921   NORMALIZED FREE ENERGY PREDICTED BY IDOCK:   -5.47 KCAL/MOL
REMARK 922        TOTAL FREE ENERGY PREDICTED BY IDOCK:   -9.23 KCAL/MOL
REMARK 923 INTER-LIGAND FREE ENERGY PREDICTED BY IDOCK:   -7.93 KCAL/MOL
REMARK 924 INTRA-LIGAND FREE ENERGY PREDICTED BY IDOCK:   -1.30 KCAL/MOL
REMARK 927      BINDING AFFINITY PREDICTED BY RF-SCORE:    0.00 PKD
ROOT
HETATM    1  C   UNL     1      -9.672  11.217  62.938  1.00  0.00    -0.323 C  
HETATM    2  O   UNL     1     -11.030  11.605  63.103  1.00  0.00    -0.300 OA 
ENDROOT
BRANCH   2   3
HETATM    3  C   UNL     1     -11.363  12.170  64.308  1.00  0.00    -0.360 A  
HETATM    4  C   UNL     1     -12.184  13.300  64.223  1.00  0.00    -0.392 A  
HETATM    5  O   UNL     1     -12.579  13.777  63.004  1.00  0.00    -1.005 OA 
HETATM    6  C   UNL     1     -12.609  13.977  65.359  1.00  0.00    -0.529 A  
HETATM    7  C   UNL     1     -12.176  13.542  66.611  1.00  0.00    -0.411 A  
HETATM    8  H   UNL     1     -13.136  14.544  62.946  1.00  0.00     0.000 HD 
HETATM    9  C   UNL     1     -11.314  12.439  66.724  1.00  0.00    -0.391 A  
HETATM   10  C   UNL     1     -10.940  11.736  65.565  1.00  0.00    -0.344 A  
BRANCH   9  11
HETATM   11  C   UNL     1     -10.771  12.040  68.072  1.00  0.00    -0.212 C  
BRANCH  11  12
HETATM   12  N   UNL     1      -9.746  12.944  68.534  1.00  0.00    -0.370 N  
HETATM   13  C   UNL     1      -8.430  12.723  68.204  1.00  0.00    -0.177 C  
HETATM   14  H   UNL     1      -9.999  13.750  69.106  1.00  0.00     0.000 HD 
HETATM   15  O   UNL     1      -8.057  11.779  67.515  1.00  0.00    -0.136 OA 
BRANCH  13  16
HETATM   16  C   UNL     1      -7.472  13.745  68.784  1.00  0.00    -0.098 C  
BRANCH  16  17
HETATM   17  C   UNL     1      -7.905  15.182  68.491  1.00  0.00    -0.135 C  
BRANCH  17  18
HETATM   18  C   UNL     1      -7.630  15.582  67.037  1.00  0.00    -0.228 C  
BRANCH  18  19
HETATM   19  C   UNL     1      -8.912  15.588  66.206  1.00  0.00    -0.362 C  
BRANCH  19  20
HETATM   20  C   UNL     1      -9.824  16.702  66.633  1.00  0.00    -0.285 C  
HETATM   21  C   UNL     1      -9.401  17.928  66.972  1.00  0.00    -0.267 C  
HETATM   22  C   UNL     1     -10.318  19.045  67.405  1.00  0.00    -0.504 C  
HETATM   23  C   UNL     1     -10.236  20.207  66.416  1.00  0.00    -0.552 C  
HETATM   24  C   UNL     1      -9.948  19.509  68.814  1.00  0.00    -0.547 C  
ENDBRANCH  19  20
ENDBRANCH  18  19
ENDBRANCH  17  18
ENDBRANCH  16  17
ENDBRANCH  13  16
ENDBRANCH  11  12
ENDBRANCH   9  11
ENDBRANCH   2   3
TORSDOF 8
ENDMDL
MODEL       37
REMARK 921   NORMALIZED FREE ENERGY PREDICTED BY IDOCK:   -5.46 KCAL/MOL
REMARK 922        TOTAL FREE ENERGY PREDICTED BY IDOCK:   -9.23 KCAL/MOL
REMARK 923 INTER-LIGAND FREE ENERGY PREDICTED BY IDOCK:   -7.80 KCAL/MOL
REMARK 924 INTRA-LIGAND FREE ENERGY PREDICTED BY IDOCK:   -1.43 KCAL/MOL
REMARK 927      BINDING AFFINITY PREDICTED BY RF-SCORE:    0.00 PKD
ROOT
HETATM    1  C   UNL     1     -11.830  15.788  71.245  1.00  0.00    -0.437 C  
HETATM    2  O   UNL     1     -12.825  14.987  70.619  1.00  0.00    -0.355 OA 
ENDROOT
BRANCH   2   3
HETATM    3  C   UNL     1     -12.642  13.629  70.674  1.00  0.00    -0.296 A  
HETATM    4  C   UNL     1     -13.346  12.978  71.692  1.00  0.00    -0.292 A  
HETATM    5  O   UNL     1     -14.129  13.693  72.556  1.00  0.00    -0.712 OA 
HETATM    6  C   UNL     1     -13.265  11.603  71.869  1.00  0.00    -0.475 A  
HETATM    7  C   UNL     1     -12.431  10.859  71.035  1.00  0.00    -0.514 A  
HETATM    8  H   UNL     1     -14.608  13.251  73.248  1.00  0.00     0.000 HD 
HETATM    9  C   UNL     1     -11.676  11.491  70.034  1.00  0.00    -0.414 A  
HETATM   10  C   UNL     1     -11.814  12.877  69.838  1.00  0.00    -0.373 A  
BRANCH   9  11
HETATM   11  C   UNL     1     -10.701  10.694  69.206  1.00  0.00    -0.238 C  
BRANCH  11  12
HETATM   12  N   UNL     1     -10.448  11.307  67.925  1.00  0.00    -0.182 N  
HETATM   13  C   UNL     1      -9.722  10.637  66.970  1.00  0.00    -0.176 C  
HETATM   14  H   UNL     1     -10.809  12.240  67.728  1.00  0.00     0.000 HD 
HETATM   15  O   UNL     1      -9.262   9.512  67.137  1.00  0.00    -0.132 OA 
BRANCH  13  16
HETATM   16  C   UNL     1      -9.520  11.422  65.689  1.00  0.00    -0.253 C  
BRANCH  16  17
HETATM   17  C   UNL     1     -10.697  11.275  64.724  1.00  0.00    -0.352 C  
BRANCH  17  18
HETATM   18  C   UNL     1     -11.268  12.632  64.299  1.00  0.00    -0.410 C  
BRANCH  18  19
HETATM   19  C   UNL     1     -12.533  12.977  65.086  1.00  0.00    -0.552 C  
BRANCH  19  20
HETATM   20  C   UNL     1     -12.237  13.979  66.166  1.00  0.00    -0.494 C  
HETATM   21  C   UNL     1     -11.037  14.549  66.350  1.00  0.00    -0.331 C  
HETATM   22  C   UNL     1     -10.740  15.551  67.438  1.00  0.00    -0.301 C  
HETATM   23  C   UNL     1     -10.346  16.894  66.823  1.00  0.00    -0.298 C  
HETATM   24  C   UNL     1      -9.628  15.026  68.345  1.00  0.00    -0.212 C  
ENDBRANCH  19  20
ENDBRANCH  18  19
ENDBRANCH  17  18
ENDBRANCH  16  17
ENDBRANCH  13  16
ENDBRANCH  11  12
ENDBRANCH   9  11
ENDBRANCH   2   3
TORSDOF 8
ENDMDL
MODEL       38
REMARK 921   NORMALIZED FREE ENERGY PREDICTED BY IDOCK:   -5.45 KCAL/MOL
REMARK 922        TOTAL FREE ENERGY PREDICTED BY IDOCK:   -9.20 KCAL/MOL
REMARK 923 INTER-LIGAND FREE ENERGY PREDICTED BY IDOCK:   -8.45 KCAL/MOL
REMARK 924 INTRA-LIGAND FREE ENERGY PREDICTED BY IDOCK:   -0.75 KCAL/MOL
REMARK 927      BINDING AFFINITY PREDICTED BY RF-SCORE:    0.00 PKD
ROOT
HETATM    1  C   UNL     1     -11.758  11.122  69.893  1.00  0.00    -0.355 C  
HETATM    2  O   UNL     1     -12.539  11.578  70.991  1.00  0.00    -0.383 OA 
ENDROOT
BRANCH   2   3
HETATM    3  C   UNL     1     -12.590  12.936  71.184  1.00  0.00    -0.281 A  
HETATM    4  C   UNL     1     -13.567  13.367  72.088  1.00  0.00    -0.567 A  
HETATM    5  O   UNL     1     -14.397  12.464  72.691  1.00  0.00    -0.339 OA 
HETATM    6  C   UNL     1     -13.735  14.712  72.389  1.00  0.00    -0.575 A  
HETATM    7  C   UNL     1     -12.936  15.658  71.746  1.00  0.00    -0.541 A  
HETATM    8  H   UNL     1     -15.060  12.756  73.305  1.00  0.00     0.000 HD 
HETATM    9  C   UNL     1     -11.980  15.258  70.799  1.00  0.00    -0.384 A  
HETATM   10  C   UNL     1     -11.790  13.887  70.549  1.00  0.00    -0.317 A  
BRANCH   9  11
HETATM   11  C   UNL     1     -11.194  16.293  70.036  1.00  0.00    -0.319 C  
BRANCH  11  12
HETATM   12  N   UNL     1     -10.922  15.878  68.682  1.00  0.00    -0.300 N  
HETATM   13  C   UNL     1     -10.625  16.812  67.719  1.00  0.00    -0.341 C  
HETATM   14  H   UNL     1     -10.949  14.888  68.438  1.00  0.00     0.000 HD 
HETATM   15  O   UNL     1     -10.569  18.017  67.943  1.00  0.00    -0.394 OA 
BRANCH  13  16
HETATM   16  C   UNL     1     -10.388  16.223  66.343  1.00  0.00    -0.319 C  
BRANCH  16  17
HETATM   17  C   UNL     1     -11.001  14.830  66.193  1.00  0.00    -0.332 C  
BRANCH  17  18
HETATM   18  C   UNL     1     -11.144  14.417  64.724  1.00  0.00    -0.402 C  
BRANCH  18  19
HETATM   19  C   UNL     1     -12.234  13.361  64.543  1.00  0.00    -0.450 C  
BRANCH  19  20
HETATM   20  C   UNL     1     -11.649  12.062  64.067  1.00  0.00    -0.495 C  
HETATM   21  C   UNL     1     -10.339  11.780  64.084  1.00  0.00    -0.376 C  
HETATM   22  C   UNL     1      -9.753  10.476  63.602  1.00  0.00    -0.375 C  
HETATM   23  C   UNL     1      -9.067   9.747  64.758  1.00  0.00    -0.290 C  
HETATM   24  C   UNL     1      -8.764  10.735  62.466  1.00  0.00    -0.313 C  
ENDBRANCH  19  20
ENDBRANCH  18  19
ENDBRANCH  17  18
ENDBRANCH  16  17
ENDBRANCH  13  16
ENDBRANCH  11  12
ENDBRANCH   9  11
ENDBRANCH   2   3
TORSDOF 8
ENDMDL
MODEL       39
REMARK 921   NORMALIZED FREE ENERGY PREDICTED BY IDOCK:   -5.44 KCAL/MOL
REMARK 922        TOTAL FREE ENERGY PREDICTED BY IDOCK:   -9.19 KCAL/MOL
REMARK 923 INTER-LIGAND FREE ENERGY PREDICTED BY IDOCK:   -7.96 KCAL/MOL
REMARK 924 INTRA-LIGAND FREE ENERGY PREDICTED BY IDOCK:   -1.23 KCAL/MOL
REMARK 927      BINDING AFFINITY PREDICTED BY RF-SCORE:    0.00 PKD
ROOT
HETATM    1  C   UNL     1     -11.883  13.349  63.979  1.00  0.00    -0.445 C  
HETATM    2  O   UNL     1     -12.512  13.633  65.222  1.00  0.00    -0.434 OA 
ENDROOT
BRANCH   2   3
HETATM    3  C   UNL     1     -11.916  13.112  66.343  1.00  0.00    -0.402 A  
HETATM    4  C   UNL     1     -11.648  14.040  67.355  1.00  0.00    -0.368 A  
HETATM    5  O   UNL     1     -11.957  15.361  67.181  1.00  0.00    -0.071 OA 
HETATM    6  C   UNL     1     -11.053  13.660  68.550  1.00  0.00    -0.301 A  
HETATM    7  C   UNL     1     -10.679  12.329  68.731  1.00  0.00    -0.247 A  
HETATM    8  H   UNL     1     -11.776  15.991  67.868  1.00  0.00     0.000 HD 
HETATM    9  C   UNL     1     -10.893  11.384  67.715  1.00  0.00    -0.281 A  
HETATM   10  C   UNL     1     -11.546  11.780  66.533  1.00  0.00    -0.256 A  
BRANCH   9  11
HETATM   11  C   UNL     1     -10.394   9.972  67.879  1.00  0.00    -0.207 C  
BRANCH  11  12
HETATM   12  N   UNL     1     -10.790   9.399  69.141  1.00  0.00    -0.356 N  
HETATM   13  C   UNL     1      -9.877   9.273  70.161  1.00  0.00    -0.215 C  
HETATM   14  H   UNL     1     -11.752   9.087  69.278  1.00  0.00     0.000 HD 
HETATM   15  O   UNL     1      -8.708   9.632  70.067  1.00  0.00    -0.200 OA 
BRANCH  13  16
HETATM   16  C   UNL     1     -10.440   8.630  71.413  1.00  0.00    -0.327 C  
BRANCH  16  17
HETATM   17  C   UNL     1     -11.941   8.363  71.307  1.00  0.00    -0.323 C  
BRANCH  17  18
HETATM   18  C   UNL     1     -12.766   9.386  72.097  1.00  0.00    -0.460 C  
BRANCH  18  19
HETATM   19  C   UNL     1     -13.155  10.582  71.229  1.00  0.00    -0.478 C  
BRANCH  19  20
HETATM   20  C   UNL     1     -13.293  11.826  72.059  1.00  0.00    -0.417 C  
HETATM   21  C   UNL     1     -13.118  13.067  71.583  1.00  0.00    -0.440 C  
HETATM   22  C   UNL     1     -13.252  14.315  72.420  1.00  0.00    -0.549 C  
HETATM   23  C   UNL     1     -14.396  15.181  71.894  1.00  0.00    -0.693 C  
HETATM   24  C   UNL     1     -11.937  15.095  72.410  1.00  0.00    -0.488 C  
ENDBRANCH  19  20
ENDBRANCH  18  19
ENDBRANCH  17  18
ENDBRANCH  16  17
ENDBRANCH  13  16
ENDBRANCH  11  12
ENDBRANCH   9  11
ENDBRANCH   2   3
TORSDOF 8
ENDMDL
MODEL       40
REMARK 921   NORMALIZED FREE ENERGY PREDICTED BY IDOCK:   -5.43 KCAL/MOL
REMARK 922        TOTAL FREE ENERGY PREDICTED BY IDOCK:   -9.18 KCAL/MOL
REMARK 923 INTER-LIGAND FREE ENERGY PREDICTED BY IDOCK:   -8.35 KCAL/MOL
REMARK 924 INTRA-LIGAND FREE ENERGY PREDICTED BY IDOCK:   -0.83 KCAL/MOL
REMARK 927      BINDING AFFINITY PREDICTED BY RF-SCORE:    0.00 PKD
ROOT
HETATM    1  C   UNL     1     -13.360  12.887  71.847  1.00  0.00    -0.435 C  
HETATM    2  O   UNL     1     -13.715  11.532  72.094  1.00  0.00    -0.197 OA 
ENDROOT
BRANCH   2   3
HETATM    3  C   UNL     1     -12.850  10.577  71.622  1.00  0.00    -0.475 A  
HETATM    4  C   UNL     1     -13.055   9.290  72.132  1.00  0.00    -0.443 A  
HETATM    5  O   UNL     1     -14.045   9.060  73.047  1.00  0.00    -1.086 OA 
HETATM    6  C   UNL     1     -12.262   8.219  71.742  1.00  0.00    -0.367 A  
HETATM    7  C   UNL     1     -11.213   8.439  70.851  1.00  0.00    -0.294 A  
HETATM    8  H   UNL     1     -14.185   8.186  73.393  1.00  0.00     0.000 HD 
HETATM    9  C   UNL     1     -10.953   9.728  70.359  1.00  0.00    -0.371 A  
HETATM   10  C   UNL     1     -11.802  10.789  70.725  1.00  0.00    -0.443 A  
BRANCH   9  11
HETATM   11  C   UNL     1      -9.756   9.974  69.478  1.00  0.00    -0.233 C  
BRANCH  11  12
HETATM   12  N   UNL     1      -9.732  11.318  68.956  1.00  0.00    -0.391 N  
HETATM   13  C   UNL     1     -10.094  11.561  67.653  1.00  0.00    -0.184 C  
HETATM   14  H   UNL     1      -9.445  12.091  69.557  1.00  0.00     0.000 HD 
HETATM   15  O   UNL     1     -10.453  10.681  66.878  1.00  0.00    -0.229 OA 
BRANCH  13  16
HETATM   16  C   UNL     1      -9.992  13.018  67.249  1.00  0.00    -0.232 C  
BRANCH  16  17
HETATM   17  C   UNL     1     -11.319  13.573  66.730  1.00  0.00    -0.351 C  
BRANCH  17  18
HETATM   18  C   UNL     1     -11.715  14.876  67.434  1.00  0.00    -0.311 C  
BRANCH  18  19
HETATM   19  C   UNL     1     -10.979  15.039  68.763  1.00  0.00    -0.259 C  
BRANCH  19  20
HETATM   20  C   UNL     1     -10.717  16.488  69.058  1.00  0.00    -0.332 C  
HETATM   21  C   UNL     1      -9.993  17.293  68.268  1.00  0.00    -0.313 C  
HETATM   22  C   UNL     1      -9.726  18.748  68.567  1.00  0.00    -0.426 C  
HETATM   23  C   UNL     1     -10.341  19.630  67.481  1.00  0.00    -0.578 C  
HETATM   24  C   UNL     1      -8.221  18.994  68.674  1.00  0.00    -0.399 C  
ENDBRANCH  19  20
ENDBRANCH  18  19
ENDBRANCH  17  18
ENDBRANCH  16  17
ENDBRANCH  13  16
ENDBRANCH  11  12
ENDBRANCH   9  11
ENDBRANCH   2   3
TORSDOF 8
ENDMDL
MODEL       41
REMARK 921   NORMALIZED FREE ENERGY PREDICTED BY IDOCK:   -5.42 KCAL/MOL
REMARK 922        TOTAL FREE ENERGY PREDICTED BY IDOCK:   -9.17 KCAL/MOL
REMARK 923 INTER-LIGAND FREE ENERGY PREDICTED BY IDOCK:   -8.28 KCAL/MOL
REMARK 924 INTRA-LIGAND FREE ENERGY PREDICTED BY IDOCK:   -0.88 KCAL/MOL
REMARK 927      BINDING AFFINITY PREDICTED BY RF-SCORE:    0.00 PKD
ROOT
HETATM    1  C   UNL     1     -11.080  16.186  70.242  1.00  0.00    -0.369 C  
HETATM    2  O   UNL     1     -12.427  15.730  70.239  1.00  0.00    -0.389 OA 
ENDROOT
BRANCH   2   3
HETATM    3  C   UNL     1     -12.644  14.459  70.709  1.00  0.00    -0.357 A  
HETATM    4  C   UNL     1     -13.431  14.384  71.864  1.00  0.00    -0.393 A  
HETATM    5  O   UNL     1     -13.905  15.524  72.452  1.00  0.00    -0.499 OA 
HETATM    6  C   UNL     1     -13.742  13.166  72.453  1.00  0.00    -0.640 A  
HETATM    7  C   UNL     1     -13.226  11.993  71.903  1.00  0.00    -0.469 A  
HETATM    8  H   UNL     1     -14.439  15.473  73.236  1.00  0.00     0.000 HD 
HETATM    9  C   UNL     1     -12.395  12.041  70.772  1.00  0.00    -0.403 A  
HETATM   10  C   UNL     1     -12.137  13.281  70.159  1.00  0.00    -0.403 A  
BRANCH   9  11
HETATM   11  C   UNL     1     -11.760  10.780  70.246  1.00  0.00    -0.352 C  
BRANCH  11  12
HETATM   12  N   UNL     1     -10.568  11.050  69.481  1.00  0.00    -0.409 N  
HETATM   13  C   UNL     1     -10.606  11.022  68.108  1.00  0.00    -0.191 C  
HETATM   14  H   UNL     1      -9.693  11.262  69.961  1.00  0.00     0.000 HD 
HETATM   15  O   UNL     1     -11.623  10.779  67.466  1.00  0.00    -0.510 OA 
BRANCH  13  16
HETATM   16  C   UNL     1      -9.269  11.301  67.450  1.00  0.00    -0.164 C  
BRANCH  16  17
HETATM   17  C   UNL     1      -9.350  12.431  66.423  1.00  0.00    -0.219 C  
BRANCH  17  18
HETATM   18  C   UNL     1      -9.304  13.814  67.081  1.00  0.00    -0.240 C  
BRANCH  18  19
HETATM   19  C   UNL     1     -10.260  14.792  66.398  1.00  0.00    -0.299 C  
BRANCH  19  20
HETATM   20  C   UNL     1      -9.692  16.182  66.391  1.00  0.00    -0.308 C  
HETATM   21  C   UNL     1     -10.394  17.279  66.706  1.00  0.00    -0.308 C  
HETATM   22  C   UNL     1      -9.824  18.676  66.693  1.00  0.00    -0.377 C  
HETATM   23  C   UNL     1      -9.860  19.273  68.100  1.00  0.00    -0.464 C  
HETATM   24  C   UNL     1     -10.606  19.553  65.715  1.00  0.00    -0.522 C  
ENDBRANCH  19  20
ENDBRANCH  18  19
ENDBRANCH  17  18
ENDBRANCH  16  17
ENDBRANCH  13  16
ENDBRANCH  11  12
ENDBRANCH   9  11
ENDBRANCH   2   3
TORSDOF 8
ENDMDL
MODEL       42
REMARK 921   NORMALIZED FREE ENERGY PREDICTED BY IDOCK:   -5.42 KCAL/MOL
REMARK 922        TOTAL FREE ENERGY PREDICTED BY IDOCK:   -9.16 KCAL/MOL
REMARK 923 INTER-LIGAND FREE ENERGY PREDICTED BY IDOCK:   -7.48 KCAL/MOL
REMARK 924 INTRA-LIGAND FREE ENERGY PREDICTED BY IDOCK:   -1.68 KCAL/MOL
REMARK 927      BINDING AFFINITY PREDICTED BY RF-SCORE:    0.00 PKD
ROOT
HETATM    1  C   UNL     1     -10.038  19.536  68.310  1.00  0.00    -0.437 C  
HETATM    2  O   UNL     1     -10.133  18.332  69.063  1.00  0.00    -0.379 OA 
ENDROOT
BRANCH   2   3
HETATM    3  C   UNL     1     -10.618  17.233  68.401  1.00  0.00    -0.368 A  
HETATM    4  C   UNL     1     -11.242  16.281  69.214  1.00  0.00    -0.312 A  
HETATM    5  O   UNL     1     -11.317  16.471  70.566  1.00  0.00    -0.516 OA 
HETATM    6  C   UNL     1     -11.786  15.118  68.686  1.00  0.00    -0.364 A  
HETATM    7  C   UNL     1     -11.675  14.876  67.317  1.00  0.00    -0.308 A  
HETATM    8  H   UNL     1     -11.741  15.825  71.119  1.00  0.00     0.000 HD 
HETATM    9  C   UNL     1     -11.013  15.791  66.483  1.00  0.00    -0.165 A  
HETATM   10  C   UNL     1     -10.516  16.988  67.031  1.00  0.00    -0.279 A  
BRANCH   9  11
HETATM   11  C   UNL     1     -10.808  15.472  65.024  1.00  0.00    -0.450 C  
BRANCH  11  12
HETATM   12  N   UNL     1     -10.750  14.051  64.782  1.00  0.00    -0.417 N  
HETATM   13  C   UNL     1     -11.714  13.440  64.017  1.00  0.00    -0.416 C  
HETATM   14  H   UNL     1      -9.989  13.499  65.179  1.00  0.00     0.000 HD 
HETATM   15  O   UNL     1     -12.651  14.044  63.505  1.00  0.00    -0.842 OA 
BRANCH  13  16
HETATM   16  C   UNL     1     -11.528  11.943  63.876  1.00  0.00    -0.511 C  
BRANCH  16  17
HETATM   17  C   UNL     1     -10.069  11.519  64.043  1.00  0.00    -0.366 C  
BRANCH  17  18
HETATM   18  C   UNL     1      -9.908  10.403  65.082  1.00  0.00    -0.378 C  
BRANCH  18  19
HETATM   19  C   UNL     1      -9.901  10.960  66.505  1.00  0.00    -0.245 C  
BRANCH  19  20
HETATM   20  C   UNL     1      -8.628  11.709  66.782  1.00  0.00    -0.180 C  
HETATM   21  C   UNL     1      -8.561  12.818  67.532  1.00  0.00    -0.187 C  
HETATM   22  C   UNL     1      -7.283  13.571  67.806  1.00  0.00    -0.157 C  
HETATM   23  C   UNL     1      -6.972  13.555  69.302  1.00  0.00    -0.008 C  
HETATM   24  C   UNL     1      -7.402  15.008  67.295  1.00  0.00    -0.195 C  
ENDBRANCH  19  20
ENDBRANCH  18  19
ENDBRANCH  17  18
ENDBRANCH  16  17
ENDBRANCH  13  16
ENDBRANCH  11  12
ENDBRANCH   9  11
ENDBRANCH   2   3
TORSDOF 8
ENDMDL
MODEL       43
REMARK 921   NORMALIZED FREE ENERGY PREDICTED BY IDOCK:   -5.41 KCAL/MOL
REMARK 922        TOTAL FREE ENERGY PREDICTED BY IDOCK:   -9.15 KCAL/MOL
REMARK 923 INTER-LIGAND FREE ENERGY PREDICTED BY IDOCK:   -7.95 KCAL/MOL
REMARK 924 INTRA-LIGAND FREE ENERGY PREDICTED BY IDOCK:   -1.20 KCAL/MOL
REMARK 927      BINDING AFFINITY PREDICTED BY RF-SCORE:    0.00 PKD
ROOT
HETATM    1  C   UNL     1     -10.518  15.032  69.270  1.00  0.00    -0.249 C  
HETATM    2  O   UNL     1     -11.858  14.598  69.073  1.00  0.00    -0.299 OA 
ENDROOT
BRANCH   2   3
HETATM    3  C   UNL     1     -12.399  13.813  70.059  1.00  0.00    -0.300 A  
HETATM    4  C   UNL     1     -13.197  14.494  70.985  1.00  0.00    -0.354 A  
HETATM    5  O   UNL     1     -13.375  15.846  70.881  1.00  0.00    -0.651 OA 
HETATM    6  C   UNL     1     -13.817  13.832  72.036  1.00  0.00    -0.576 A  
HETATM    7  C   UNL     1     -13.608  12.462  72.195  1.00  0.00    -0.405 A  
HETATM    8  H   UNL     1     -13.917  16.309  71.509  1.00  0.00     0.000 HD 
HETATM    9  C   UNL     1     -12.774  11.761  71.309  1.00  0.00    -0.420 A  
HETATM   10  C   UNL     1     -12.200  12.441  70.220  1.00  0.00    -0.345 A  
BRANCH   9  11
HETATM   11  C   UNL     1     -12.473  10.304  71.549  1.00  0.00    -0.422 C  
BRANCH  11  12
HETATM   12  N   UNL     1     -11.970   9.652  70.365  1.00  0.00    -0.444 N  
HETATM   13  C   UNL     1     -10.971   8.713  70.465  1.00  0.00    -0.238 C  
HETATM   14  H   UNL     1     -12.357   9.887  69.451  1.00  0.00     0.000 HD 
HETATM   15  O   UNL     1     -10.465   8.377  71.530  1.00  0.00    -0.210 OA 
BRANCH  13  16
HETATM   16  C   UNL     1     -10.534   8.137  69.132  1.00  0.00    -0.217 C  
BRANCH  16  17
HETATM   17  C   UNL     1      -9.154   8.638  68.706  1.00  0.00    -0.142 C  
BRANCH  17  18
HETATM   18  C   UNL     1      -9.221   9.520  67.455  1.00  0.00    -0.152 C  
BRANCH  18  19
HETATM   19  C   UNL     1      -9.750  10.916  67.782  1.00  0.00    -0.183 C  
BRANCH  19  20
HETATM   20  C   UNL     1     -10.980  11.227  66.978  1.00  0.00    -0.352 C  
HETATM   21  C   UNL     1     -11.047  12.200  66.058  1.00  0.00    -0.354 C  
HETATM   22  C   UNL     1     -12.285  12.514  65.255  1.00  0.00    -0.493 C  
HETATM   23  C   UNL     1     -12.021  12.281  63.768  1.00  0.00    -0.609 C  
HETATM   24  C   UNL     1     -12.720  13.957  65.506  1.00  0.00    -0.536 C  
ENDBRANCH  19  20
ENDBRANCH  18  19
ENDBRANCH  17  18
ENDBRANCH  16  17
ENDBRANCH  13  16
ENDBRANCH  11  12
ENDBRANCH   9  11
ENDBRANCH   2   3
TORSDOF 8
ENDMDL
MODEL       44
REMARK 921   NORMALIZED FREE ENERGY PREDICTED BY IDOCK:   -5.41 KCAL/MOL
REMARK 922        TOTAL FREE ENERGY PREDICTED BY IDOCK:   -9.15 KCAL/MOL
REMARK 923 INTER-LIGAND FREE ENERGY PREDICTED BY IDOCK:   -7.70 KCAL/MOL
REMARK 924 INTRA-LIGAND FREE ENERGY PREDICTED BY IDOCK:   -1.45 KCAL/MOL
REMARK 927      BINDING AFFINITY PREDICTED BY RF-SCORE:    0.00 PKD
ROOT
HETATM    1  C   UNL     1     -12.488  12.208  63.458  1.00  0.00    -0.555 C  
HETATM    2  O   UNL     1     -12.413  13.617  63.638  1.00  0.00    -0.728 OA 
ENDROOT
BRANCH   2   3
HETATM    3  C   UNL     1     -11.862  14.055  64.816  1.00  0.00    -0.403 A  
HETATM    4  C   UNL     1     -11.496  15.405  64.831  1.00  0.00    -0.311 A  
HETATM    5  O   UNL     1     -11.674  16.181  63.720  1.00  0.00    -1.404 OA 
HETATM    6  C   UNL     1     -10.932  15.992  65.955  1.00  0.00    -0.097 A  
HETATM    7  C   UNL     1     -10.690  15.209  67.084  1.00  0.00    -0.310 A  
HETATM    8  H   UNL     1     -11.426  17.098  63.730  1.00  0.00     0.000 HD 
HETATM    9  C   UNL     1     -11.005  13.840  67.081  1.00  0.00    -0.299 A  
HETATM   10  C   UNL     1     -11.625  13.278  65.951  1.00  0.00    -0.380 A  
BRANCH   9  11
HETATM   11  C   UNL     1     -10.646  12.981  68.267  1.00  0.00    -0.247 C  
BRANCH  11  12
HETATM   12  N   UNL     1      -9.281  13.178  68.687  1.00  0.00    -0.391 N  
HETATM   13  C   UNL     1      -8.281  12.378  68.188  1.00  0.00    -0.173 C  
HETATM   14  H   UNL     1      -9.056  13.915  69.357  1.00  0.00     0.000 HD 
HETATM   15  O   UNL     1      -8.478  11.479  67.378  1.00  0.00    -0.138 OA 
BRANCH  13  16
HETATM   16  C   UNL     1      -6.907  12.693  68.745  1.00  0.00    -0.096 C  
BRANCH  16  17
HETATM   17  C   UNL     1      -6.071  13.543  67.787  1.00  0.00    -0.148 C  
BRANCH  17  18
HETATM   18  C   UNL     1      -6.151  15.037  68.122  1.00  0.00    -0.144 C  
BRANCH  18  19
HETATM   19  C   UNL     1      -7.111  15.769  67.185  1.00  0.00    -0.225 C  
BRANCH  19  20
HETATM   20  C   UNL     1      -7.596  17.049  67.806  1.00  0.00    -0.180 C  
HETATM   21  C   UNL     1      -8.025  18.106  67.103  1.00  0.00    -0.230 C  
HETATM   22  C   UNL     1      -8.508  19.392  67.728  1.00  0.00    -0.345 C  
HETATM   23  C   UNL     1      -9.977  19.627  67.381  1.00  0.00    -0.510 C  
HETATM   24  C   UNL     1      -7.647  20.561  67.250  1.00  0.00    -0.386 C  
ENDBRANCH  19  20
ENDBRANCH  18  19
ENDBRANCH  17  18
ENDBRANCH  16  17
ENDBRANCH  13  16
ENDBRANCH  11  12
ENDBRANCH   9  11
ENDBRANCH   2   3
TORSDOF 8
ENDMDL
MODEL       45
REMARK 921   NORMALIZED FREE ENERGY PREDICTED BY IDOCK:   -5.41 KCAL/MOL
REMARK 922        TOTAL FREE ENERGY PREDICTED BY IDOCK:   -9.15 KCAL/MOL
REMARK 923 INTER-LIGAND FREE ENERGY PREDICTED BY IDOCK:   -8.29 KCAL/MOL
REMARK 924 INTRA-LIGAND FREE ENERGY PREDICTED BY IDOCK:   -0.86 KCAL/MOL
REMARK 927      BINDING AFFINITY PREDICTED BY RF-SCORE:    0.00 PKD
ROOT
HETATM    1  C   UNL     1     -12.030  14.317  66.583  1.00  0.00    -0.430 C  
HETATM    2  O   UNL     1     -12.556  13.196  65.883  1.00  0.00    -0.433 OA 
ENDROOT
BRANCH   2   3
HETATM    3  C   UNL     1     -11.644  12.364  65.285  1.00  0.00    -0.373 A  
HETATM    4  C   UNL     1     -11.475  12.563  63.911  1.00  0.00    -0.437 A  
HETATM    5  O   UNL     1     -12.206  13.515  63.256  1.00  0.00    -0.880 OA 
HETATM    6  C   UNL     1     -10.582  11.800  63.170  1.00  0.00    -0.341 A  
HETATM    7  C   UNL     1      -9.863  10.787  63.805  1.00  0.00    -0.396 A  
HETATM    8  H   UNL     1     -12.091  13.651  62.323  1.00  0.00     0.000 HD 
HETATM    9  C   UNL     1     -10.047  10.533  65.173  1.00  0.00    -0.383 A  
HETATM   10  C   UNL     1     -10.917  11.353  65.915  1.00  0.00    -0.268 A  
BRANCH   9  11
HETATM   11  C   UNL     1      -9.344   9.371  65.827  1.00  0.00    -0.239 C  
BRANCH  11  12
HETATM   12  N   UNL     1     -10.271   8.376  66.307  1.00  0.00    -0.424 N  
HETATM   13  C   UNL     1      -9.826   7.336  67.087  1.00  0.00    -0.185 C  
HETATM   14  H   UNL     1     -11.260   8.445  66.068  1.00  0.00     0.000 HD 
HETATM   15  O   UNL     1      -8.653   7.194  67.417  1.00  0.00    -0.121 OA 
BRANCH  13  16
HETATM   16  C   UNL     1     -10.914   6.361  67.490  1.00  0.00    -0.454 C  
BRANCH  16  17
HETATM   17  C   UNL     1     -10.749   5.866  68.927  1.00  0.00    -0.370 C  
BRANCH  17  18
HETATM   18  C   UNL     1     -11.657   6.620  69.906  1.00  0.00    -0.393 C  
BRANCH  18  19
HETATM   19  C   UNL     1     -10.890   7.066  71.150  1.00  0.00    -0.263 C  
BRANCH  19  20
HETATM   20  C   UNL     1     -10.968   8.556  71.325  1.00  0.00    -0.316 C  
HETATM   21  C   UNL     1     -11.960   9.315  70.838  1.00  0.00    -0.321 C  
HETATM   22  C   UNL     1     -12.034  10.813  71.010  1.00  0.00    -0.409 C  
HETATM   23  C   UNL     1     -13.276  11.189  71.818  1.00  0.00    -0.486 C  
HETATM   24  C   UNL     1     -12.053  11.496  69.643  1.00  0.00    -0.363 C  
ENDBRANCH  19  20
ENDBRANCH  18  19
ENDBRANCH  17  18
ENDBRANCH  16  17
ENDBRANCH  13  16
ENDBRANCH  11  12
ENDBRANCH   9  11
ENDBRANCH   2   3
TORSDOF 8
ENDMDL
MODEL       46
REMARK 921   NORMALIZED FREE ENERGY PREDICTED BY IDOCK:   -5.40 KCAL/MOL
REMARK 922        TOTAL FREE ENERGY PREDICTED BY IDOCK:   -9.14 KCAL/MOL
REMARK 923 INTER-LIGAND FREE ENERGY PREDICTED BY IDOCK:   -8.11 KCAL/MOL
REMARK 924 INTRA-LIGAND FREE ENERGY PREDICTED BY IDOCK:   -1.03 KCAL/MOL
REMARK 927      BINDING AFFINITY PREDICTED BY RF-SCORE:    0.00 PKD
ROOT
HETATM    1  C   UNL     1      -9.323  10.593  67.949  1.00  0.00    -0.148 C  
HETATM    2  O   UNL     1     -10.249   9.529  68.129  1.00  0.00    -0.175 OA 
ENDROOT
BRANCH   2   3
HETATM    3  C   UNL     1     -10.888   9.470  69.342  1.00  0.00    -0.206 A  
HETATM    4  C   UNL     1     -10.909   8.205  69.938  1.00  0.00    -0.215 A  
HETATM    5  O   UNL     1     -10.340   7.134  69.305  1.00  0.00    -0.191 OA 
HETATM    6  C   UNL     1     -11.514   7.991  71.169  1.00  0.00    -0.302 A  
HETATM    7  C   UNL     1     -12.147   9.056  71.810  1.00  0.00    -0.438 A  
HETATM    8  H   UNL     1     -10.354   6.274  69.709  1.00  0.00     0.000 HD 
HETATM    9  C   UNL     1     -12.182  10.327  71.214  1.00  0.00    -0.496 A  
HETATM   10  C   UNL     1     -11.517  10.533  69.991  1.00  0.00    -0.393 A  
BRANCH   9  11
HETATM   11  C   UNL     1     -12.956  11.445  71.864  1.00  0.00    -0.361 C  
BRANCH  11  12
HETATM   12  N   UNL     1     -12.674  12.724  71.260  1.00  0.00    -0.336 N  
HETATM   13  C   UNL     1     -13.399  13.834  71.621  1.00  0.00    -0.354 C  
HETATM   14  H   UNL     1     -11.934  12.804  70.563  1.00  0.00     0.000 HD 
HETATM   15  O   UNL     1     -14.298  13.810  72.456  1.00  0.00    -0.696 OA 
BRANCH  13  16
HETATM   16  C   UNL     1     -13.000  15.095  70.881  1.00  0.00    -0.488 C  
BRANCH  16  17
HETATM   17  C   UNL     1     -11.663  14.946  70.154  1.00  0.00    -0.340 C  
BRANCH  17  18
HETATM   18  C   UNL     1     -11.829  14.972  68.630  1.00  0.00    -0.325 C  
BRANCH  18  19
HETATM   19  C   UNL     1     -12.015  13.565  68.063  1.00  0.00    -0.372 C  
BRANCH  19  20
HETATM   20  C   UNL     1     -11.413  13.455  66.692  1.00  0.00    -0.376 C  
HETATM   21  C   UNL     1     -11.737  12.502  65.806  1.00  0.00    -0.478 C  
HETATM   22  C   UNL     1     -11.128  12.390  64.431  1.00  0.00    -0.381 C  
HETATM   23  C   UNL     1     -12.205  12.570  63.362  1.00  0.00    -0.613 C  
HETATM   24  C   UNL     1     -10.434  11.037  64.274  1.00  0.00    -0.427 C  
ENDBRANCH  19  20
ENDBRANCH  18  19
ENDBRANCH  17  18
ENDBRANCH  16  17
ENDBRANCH  13  16
ENDBRANCH  11  12
ENDBRANCH   9  11
ENDBRANCH   2   3
TORSDOF 8
ENDMDL
MODEL       47
REMARK 921   NORMALIZED FREE ENERGY PREDICTED BY IDOCK:   -5.39 KCAL/MOL
REMARK 922        TOTAL FREE ENERGY PREDICTED BY IDOCK:   -9.12 KCAL/MOL
REMARK 923 INTER-LIGAND FREE ENERGY PREDICTED BY IDOCK:   -7.88 KCAL/MOL
REMARK 924 INTRA-LIGAND FREE ENERGY PREDICTED BY IDOCK:   -1.24 KCAL/MOL
REMARK 927      BINDING AFFINITY PREDICTED BY RF-SCORE:    0.00 PKD
ROOT
HETATM    1  C   UNL     1     -13.037  16.115  73.322  1.00  0.00    -0.476 C  
HETATM    2  O   UNL     1     -13.818  15.135  72.649  1.00  0.00    -0.474 OA 
ENDROOT
BRANCH   2   3
HETATM    3  C   UNL     1     -13.214  14.482  71.604  1.00  0.00    -0.348 A  
HETATM    4  C   UNL     1     -13.112  13.094  71.754  1.00  0.00    -0.383 A  
HETATM    5  O   UNL     1     -13.578  12.487  72.888  1.00  0.00    -0.587 OA 
HETATM    6  C   UNL     1     -12.530  12.298  70.777  1.00  0.00    -0.356 A  
HETATM    7  C   UNL     1     -12.000  12.900  69.636  1.00  0.00    -0.358 A  
HETATM    8  H   UNL     1     -13.509  11.545  72.990  1.00  0.00     0.000 HD 
HETATM    9  C   UNL     1     -12.045  14.295  69.480  1.00  0.00    -0.376 A  
HETATM   10  C   UNL     1     -12.688  15.077  70.457  1.00  0.00    -0.406 A  
BRANCH   9  11
HETATM   11  C   UNL     1     -11.380  14.944  68.294  1.00  0.00    -0.310 C  
BRANCH  11  12
HETATM   12  N   UNL     1     -10.847  13.972  67.371  1.00  0.00    -0.279 N  
HETATM   13  C   UNL     1     -11.579  13.588  66.273  1.00  0.00    -0.345 C  
HETATM   14  H   UNL     1      -9.924  13.569  67.533  1.00  0.00     0.000 HD 
HETATM   15  O   UNL     1     -12.691  14.036  66.013  1.00  0.00    -0.475 OA 
BRANCH  13  16
HETATM   16  C   UNL     1     -10.895  12.543  65.414  1.00  0.00    -0.316 C  
BRANCH  16  17
HETATM   17  C   UNL     1     -10.047  11.575  66.239  1.00  0.00    -0.261 C  
BRANCH  17  18
HETATM   18  C   UNL     1     -10.908  10.570  67.014  1.00  0.00    -0.288 C  
BRANCH  18  19
HETATM   19  C   UNL     1     -10.224   9.207  67.112  1.00  0.00    -0.329 C  
BRANCH  19  20
HETATM   20  C   UNL     1     -10.518   8.552  68.432  1.00  0.00    -0.215 C  
HETATM   21  C   UNL     1     -10.717   9.226  69.573  1.00  0.00    -0.236 C  
HETATM   22  C   UNL     1     -11.007   8.567  70.899  1.00  0.00    -0.292 C  
HETATM   23  C   UNL     1     -12.392   8.976  71.399  1.00  0.00    -0.380 C  
HETATM   24  C   UNL     1      -9.932   8.945  71.918  1.00  0.00    -0.384 C  
ENDBRANCH  19  20
ENDBRANCH  18  19
ENDBRANCH  17  18
ENDBRANCH  16  17
ENDBRANCH  13  16
ENDBRANCH  11  12
ENDBRANCH   9  11
ENDBRANCH   2   3
TORSDOF 8
ENDMDL
MODEL       48
REMARK 921   NORMALIZED FREE ENERGY PREDICTED BY IDOCK:   -5.38 KCAL/MOL
REMARK 922        TOTAL FREE ENERGY PREDICTED BY IDOCK:   -9.11 KCAL/MOL
REMARK 923 INTER-LIGAND FREE ENERGY PREDICTED BY IDOCK:   -7.91 KCAL/MOL
REMARK 924 INTRA-LIGAND FREE ENERGY PREDICTED BY IDOCK:   -1.20 KCAL/MOL
REMARK 927      BINDING AFFINITY PREDICTED BY RF-SCORE:    0.00 PKD
ROOT
HETATM    1  C   UNL     1     -10.320  17.663  65.723  1.00  0.00    -0.188 C  
HETATM    2  O   UNL     1     -10.775  16.512  65.022  1.00  0.00    -0.662 OA 
ENDROOT
BRANCH   2   3
HETATM    3  C   UNL     1     -11.134  15.431  65.787  1.00  0.00    -0.260 A  
HETATM    4  C   UNL     1     -11.854  14.441  65.111  1.00  0.00    -0.386 A  
HETATM    5  O   UNL     1     -12.171  14.598  63.790  1.00  0.00    -0.956 OA 
HETATM    6  C   UNL     1     -12.281  13.286  65.752  1.00  0.00    -0.510 A  
HETATM    7  C   UNL     1     -12.017  13.126  67.112  1.00  0.00    -0.397 A  
HETATM    8  H   UNL     1     -12.660  13.926  63.330  1.00  0.00     0.000 HD 
HETATM    9  C   UNL     1     -11.337  14.124  67.828  1.00  0.00    -0.330 A  
HETATM   10  C   UNL     1     -10.867  15.262  67.147  1.00  0.00    -0.322 A  
BRANCH   9  11
HETATM   11  C   UNL     1     -11.146  13.990  69.317  1.00  0.00    -0.232 C  
BRANCH  11  12
HETATM   12  N   UNL     1     -11.767  12.797  69.838  1.00  0.00    -0.484 N  
HETATM   13  C   UNL     1     -12.545  12.859  70.970  1.00  0.00    -0.287 C  
HETATM   14  H   UNL     1     -11.630  11.903  69.365  1.00  0.00     0.000 HD 
HETATM   15  O   UNL     1     -12.757  13.899  71.585  1.00  0.00    -0.332 OA 
BRANCH  13  16
HETATM   16  C   UNL     1     -13.106  11.520  71.405  1.00  0.00    -0.359 C  
BRANCH  16  17
HETATM   17  C   UNL     1     -12.506  10.354  70.617  1.00  0.00    -0.437 C  
BRANCH  17  18
HETATM   18  C   UNL     1     -11.642   9.446  71.499  1.00  0.00    -0.467 C  
BRANCH  18  19
HETATM   19  C   UNL     1     -10.362   9.022  70.780  1.00  0.00    -0.305 C  
BRANCH  19  20
HETATM   20  C   UNL     1     -10.162   9.819  69.522  1.00  0.00    -0.238 C  
HETATM   21  C   UNL     1      -9.529   9.357  68.435  1.00  0.00    -0.148 C  
HETATM   22  C   UNL     1      -9.325  10.161  67.175  1.00  0.00    -0.176 C  
HETATM   23  C   UNL     1     -10.047   9.496  66.004  1.00  0.00    -0.319 C  
HETATM   24  C   UNL     1      -7.832  10.301  66.879  1.00  0.00    -0.112 C  
ENDBRANCH  19  20
ENDBRANCH  18  19
ENDBRANCH  17  18
ENDBRANCH  16  17
ENDBRANCH  13  16
ENDBRANCH  11  12
ENDBRANCH   9  11
ENDBRANCH   2   3
TORSDOF 8
ENDMDL
MODEL       49
REMARK 921   NORMALIZED FREE ENERGY PREDICTED BY IDOCK:   -5.36 KCAL/MOL
REMARK 922        TOTAL FREE ENERGY PREDICTED BY IDOCK:   -9.08 KCAL/MOL
REMARK 923 INTER-LIGAND FREE ENERGY PREDICTED BY IDOCK:   -8.40 KCAL/MOL
REMARK 924 INTRA-LIGAND FREE ENERGY PREDICTED BY IDOCK:   -0.67 KCAL/MOL
REMARK 927      BINDING AFFINITY PREDICTED BY RF-SCORE:    0.00 PKD
ROOT
HETATM    1  C   UNL     1     -10.521  18.974  65.861  1.00  0.00    -0.399 C  
HETATM    2  O   UNL     1      -9.818  17.738  65.891  1.00  0.00    -0.524 OA 
ENDROOT
BRANCH   2   3
HETATM    3  C   UNL     1     -10.418  16.709  66.573  1.00  0.00    -0.262 A  
HETATM    4  C   UNL     1     -10.884  15.662  65.771  1.00  0.00    -0.306 A  
HETATM    5  O   UNL     1     -10.746  15.719  64.412  1.00  0.00    -0.765 OA 
HETATM    6  C   UNL     1     -11.508  14.549  66.319  1.00  0.00    -0.358 A  
HETATM    7  C   UNL     1     -11.708  14.492  67.698  1.00  0.00    -0.410 A  
HETATM    8  H   UNL     1     -11.062  15.007  63.867  1.00  0.00     0.000 HD 
HETATM    9  C   UNL     1     -11.293  15.550  68.523  1.00  0.00    -0.356 A  
HETATM   10  C   UNL     1     -10.616  16.643  67.953  1.00  0.00    -0.342 A  
BRANCH   9  11
HETATM   11  C   UNL     1     -11.606  15.526  69.997  1.00  0.00    -0.341 C  
BRANCH  11  12
HETATM   12  N   UNL     1     -11.806  14.184  70.488  1.00  0.00    -0.416 N  
HETATM   13  C   UNL     1     -12.895  13.890  71.273  1.00  0.00    -0.360 C  
HETATM   14  H   UNL     1     -11.137  13.451  70.250  1.00  0.00     0.000 HD 
HETATM   15  O   UNL     1     -13.740  14.721  71.592  1.00  0.00    -0.365 OA 
BRANCH  13  16
HETATM   16  C   UNL     1     -12.951  12.446  71.729  1.00  0.00    -0.422 C  
BRANCH  16  17
HETATM   17  C   UNL     1     -12.740  11.463  70.578  1.00  0.00    -0.221 C  
BRANCH  17  18
HETATM   18  C   UNL     1     -12.061  10.169  71.041  1.00  0.00    -0.476 C  
BRANCH  18  19
HETATM   19  C   UNL     1     -13.053   9.233  71.732  1.00  0.00    -0.472 C  
BRANCH  19  20
HETATM   20  C   UNL     1     -12.695   7.795  71.487  1.00  0.00    -0.355 C  
HETATM   21  C   UNL     1     -11.488   7.384  71.075  1.00  0.00    -0.307 C  
HETATM   22  C   UNL     1     -11.131   5.939  70.824  1.00  0.00    -0.324 C  
HETATM   23  C   UNL     1     -10.024   5.497  71.780  1.00  0.00    -0.228 C  
HETATM   24  C   UNL     1     -10.695   5.752  69.371  1.00  0.00    -0.397 C  
ENDBRANCH  19  20
ENDBRANCH  18  19
ENDBRANCH  17  18
ENDBRANCH  16  17
ENDBRANCH  13  16
ENDBRANCH  11  12
ENDBRANCH   9  11
ENDBRANCH   2   3
TORSDOF 8
ENDMDL
MODEL       50
REMARK 921   NORMALIZED FREE ENERGY PREDICTED BY IDOCK:   -5.36 KCAL/MOL
REMARK 922        TOTAL FREE ENERGY PREDICTED BY IDOCK:   -9.08 KCAL/MOL
REMARK 923 INTER-LIGAND FREE ENERGY PREDICTED BY IDOCK:   -8.14 KCAL/MOL
REMARK 924 INTRA-LIGAND FREE ENERGY PREDICTED BY IDOCK:   -0.93 KCAL/MOL
REMARK 927      BINDING AFFINITY PREDICTED BY RF-SCORE:    0.00 PKD
ROOT
HETATM    1  C   UNL     1     -13.369  15.766  73.096  1.00  0.00    -0.587 C  
HETATM    2  O   UNL     1     -13.556  15.450  71.722  1.00  0.00    -0.433 OA 
ENDROOT
BRANCH   2   3
HETATM    3  C   UNL     1     -13.116  14.216  71.312  1.00  0.00    -0.350 A  
HETATM    4  C   UNL     1     -12.388  14.216  70.117  1.00  0.00    -0.351 A  
HETATM    5  O   UNL     1     -12.179  15.384  69.436  1.00  0.00    -0.514 OA 
HETATM    6  C   UNL     1     -11.873  13.045  69.579  1.00  0.00    -0.385 A  
HETATM    7  C   UNL     1     -12.119  11.834  70.227  1.00  0.00    -0.426 A  
HETATM    8  H   UNL     1     -11.685  15.384  68.624  1.00  0.00     0.000 HD 
HETATM    9  C   UNL     1     -12.885  11.797  71.403  1.00  0.00    -0.440 A  
HETATM   10  C   UNL     1     -13.352  13.003  71.958  1.00  0.00    -0.588 A  
BRANCH   9  11
HETATM   11  C   UNL     1     -13.231  10.475  72.038  1.00  0.00    -0.378 C  
BRANCH  11  12
HETATM   12  N   UNL     1     -12.111   9.567  72.045  1.00  0.00    -0.327 N  
HETATM   13  C   UNL     1     -12.322   8.209  71.996  1.00  0.00    -0.338 C  
HETATM   14  H   UNL     1     -11.160   9.932  72.086  1.00  0.00     0.000 HD 
HETATM   15  O   UNL     1     -13.437   7.702  71.940  1.00  0.00    -0.316 OA 
BRANCH  13  16
HETATM   16  C   UNL     1     -11.049   7.388  72.036  1.00  0.00    -0.279 C  
BRANCH  16  17
HETATM   17  C   UNL     1     -11.196   6.049  71.315  1.00  0.00    -0.323 C  
BRANCH  17  18
HETATM   18  C   UNL     1     -10.220   5.915  70.141  1.00  0.00    -0.281 C  
BRANCH  18  19
HETATM   19  C   UNL     1     -10.831   6.440  68.842  1.00  0.00    -0.382 C  
BRANCH  19  20
HETATM   20  C   UNL     1     -10.110   7.670  68.368  1.00  0.00    -0.208 C  
HETATM   21  C   UNL     1     -10.472   8.382  67.291  1.00  0.00    -0.373 C  
HETATM   22  C   UNL     1      -9.744   9.614  66.814  1.00  0.00    -0.252 C  
HETATM   23  C   UNL     1     -10.666  10.831  66.885  1.00  0.00    -0.309 C  
HETATM   24  C   UNL     1      -9.239   9.403  65.387  1.00  0.00    -0.305 C  
ENDBRANCH  19  20
ENDBRANCH  18  19
ENDBRANCH  17  18
ENDBRANCH  16  17
ENDBRANCH  13  16
ENDBRANCH  11  12
ENDBRANCH   9  11
ENDBRANCH   2   3
TORSDOF 8
ENDMDL
MODEL       51
REMARK 921   NORMALIZED FREE ENERGY PREDICTED BY IDOCK:   -5.33 KCAL/MOL
REMARK 922        TOTAL FREE ENERGY PREDICTED BY IDOCK:   -9.04 KCAL/MOL
REMARK 923 INTER-LIGAND FREE ENERGY PREDICTED BY IDOCK:   -7.94 KCAL/MOL
REMARK 924 INTRA-LIGAND FREE ENERGY PREDICTED BY IDOCK:   -1.10 KCAL/MOL
REMARK 927      BINDING AFFINITY PREDICTED BY RF-SCORE:    0.00 PKD
ROOT
HETATM    1  C   UNL     1     -13.184  11.615  71.788  1.00  0.00    -0.333 C  
HETATM    2  O   UNL     1     -13.542  12.877  72.339  1.00  0.00    -0.579 OA 
ENDROOT
BRANCH   2   3
HETATM    3  C   UNL     1     -12.891  13.973  71.833  1.00  0.00    -0.335 A  
HETATM    4  C   UNL     1     -12.522  14.932  72.783  1.00  0.00    -0.358 A  
HETATM    5  O   UNL     1     -12.830  14.750  74.103  1.00  0.00    -0.444 OA 
HETATM    6  C   UNL     1     -11.852  16.093  72.422  1.00  0.00    -0.637 A  
HETATM    7  C   UNL     1     -11.573  16.326  71.075  1.00  0.00    -0.343 A  
HETATM    8  H   UNL     1     -12.579  15.400  74.748  1.00  0.00     0.000 HD 
HETATM    9  C   UNL     1     -11.973  15.404  70.094  1.00  0.00    -0.378 A  
HETATM   10  C   UNL     1     -12.604  14.210  70.488  1.00  0.00    -0.410 A  
BRANCH   9  11
HETATM   11  C   UNL     1     -11.760  15.714  68.635  1.00  0.00    -0.352 C  
BRANCH  11  12
HETATM   12  N   UNL     1     -11.823  14.530  67.814  1.00  0.00    -0.468 N  
HETATM   13  C   UNL     1     -11.406  14.573  66.505  1.00  0.00    -0.352 C  
HETATM   14  H   UNL     1     -12.179  13.658  68.206  1.00  0.00     0.000 HD 
HETATM   15  O   UNL     1     -10.963  15.585  65.972  1.00  0.00    -0.316 OA 
BRANCH  13  16
HETATM   16  C   UNL     1     -11.559  13.257  65.768  1.00  0.00    -0.368 C  
BRANCH  16  17
HETATM   17  C   UNL     1     -11.869  12.094  66.711  1.00  0.00    -0.304 C  
BRANCH  17  18
HETATM   18  C   UNL     1     -10.657  11.179  66.917  1.00  0.00    -0.304 C  
BRANCH  18  19
HETATM   19  C   UNL     1      -9.921  11.508  68.215  1.00  0.00    -0.205 C  
BRANCH  19  20
HETATM   20  C   UNL     1     -10.535  10.785  69.379  1.00  0.00    -0.229 C  
HETATM   21  C   UNL     1     -10.150   9.570  69.793  1.00  0.00    -0.238 C  
HETATM   22  C   UNL     1     -10.771   8.842  70.960  1.00  0.00    -0.315 C  
HETATM   23  C   UNL     1      -9.730   8.621  72.057  1.00  0.00    -0.391 C  
HETATM   24  C   UNL     1     -11.355   7.508  70.495  1.00  0.00    -0.279 C  
ENDBRANCH  19  20
ENDBRANCH  18  19
ENDBRANCH  17  18
ENDBRANCH  16  17
ENDBRANCH  13  16
ENDBRANCH  11  12
ENDBRANCH   9  11
ENDBRANCH   2   3
TORSDOF 8
ENDMDL
MODEL       52
REMARK 921   NORMALIZED FREE ENERGY PREDICTED BY IDOCK:   -5.31 KCAL/MOL
REMARK 922        TOTAL FREE ENERGY PREDICTED BY IDOCK:   -9.00 KCAL/MOL
REMARK 923 INTER-LIGAND FREE ENERGY PREDICTED BY IDOCK:   -8.41 KCAL/MOL
REMARK 924 INTRA-LIGAND FREE ENERGY PREDICTED BY IDOCK:   -0.58 KCAL/MOL
REMARK 927      BINDING AFFINITY PREDICTED BY RF-SCORE:    0.00 PKD
ROOT
HETATM    1  C   UNL     1     -14.378   8.399  71.653  1.00  0.00    -0.448 C  
HETATM    2  O   UNL     1     -13.358   9.140  72.312  1.00  0.00    -0.415 OA 
ENDROOT
BRANCH   2   3
HETATM    3  C   UNL     1     -12.120   9.136  71.721  1.00  0.00    -0.376 A  
HETATM    4  C   UNL     1     -11.164   8.337  72.356  1.00  0.00    -0.381 A  
HETATM    5  O   UNL     1     -11.486   7.647  73.492  1.00  0.00    -0.597 OA 
HETATM    6  C   UNL     1      -9.868   8.228  71.871  1.00  0.00    -0.300 A  
HETATM    7  C   UNL     1      -9.500   8.964  70.745  1.00  0.00    -0.280 A  
HETATM    8  H   UNL     1     -10.837   7.103  73.924  1.00  0.00     0.000 HD 
HETATM    9  C   UNL     1     -10.424   9.811  70.113  1.00  0.00    -0.338 A  
HETATM   10  C   UNL     1     -11.747   9.864  70.590  1.00  0.00    -0.404 A  
BRANCH   9  11
HETATM   11  C   UNL     1      -9.989  10.678  68.960  1.00  0.00    -0.213 C  
BRANCH  11  12
HETATM   12  N   UNL     1     -10.561  12.001  69.029  1.00  0.00    -0.389 N  
HETATM   13  C   UNL     1     -11.557  12.370  68.157  1.00  0.00    -0.341 C  
HETATM   14  H   UNL     1     -10.226  12.664  69.729  1.00  0.00     0.000 HD 
HETATM   15  O   UNL     1     -12.010  11.623  67.296  1.00  0.00    -0.627 OA 
BRANCH  13  16
HETATM   16  C   UNL     1     -12.036  13.796  68.339  1.00  0.00    -0.395 C  
BRANCH  16  17
HETATM   17  C   UNL     1     -11.069  14.817  67.738  1.00  0.00    -0.306 C  
BRANCH  17  18
HETATM   18  C   UNL     1     -11.113  14.820  66.206  1.00  0.00    -0.341 C  
BRANCH  18  19
HETATM   19  C   UNL     1     -10.017  15.707  65.617  1.00  0.00    -0.388 C  
BRANCH  19  20
HETATM   20  C   UNL     1     -10.298  17.158  65.884  1.00  0.00    -0.294 C  
HETATM   21  C   UNL     1      -9.568  17.923  66.707  1.00  0.00    -0.305 C  
HETATM   22  C   UNL     1      -9.855  19.379  66.978  1.00  0.00    -0.440 C  
HETATM   23  C   UNL     1      -8.688  20.244  66.504  1.00  0.00    -0.280 C  
HETATM   24  C   UNL     1     -10.114  19.593  68.470  1.00  0.00    -0.557 C  
ENDBRANCH  19  20
ENDBRANCH  18  19
ENDBRANCH  17  18
ENDBRANCH  16  17
ENDBRANCH  13  16
ENDBRANCH  11  12
ENDBRANCH   9  11
ENDBRANCH   2   3
TORSDOF 8
ENDMDL
MODEL       53
REMARK 921   NORMALIZED FREE ENERGY PREDICTED BY IDOCK:   -5.31 KCAL/MOL
REMARK 922        TOTAL FREE ENERGY PREDICTED BY IDOCK:   -8.99 KCAL/MOL
REMARK 923 INTER-LIGAND FREE ENERGY PREDICTED BY IDOCK:   -7.99 KCAL/MOL
REMARK 924 INTRA-LIGAND FREE ENERGY PREDICTED BY IDOCK:   -1.00 KCAL/MOL
REMARK 927      BINDING AFFINITY PREDICTED BY RF-SCORE:    0.00 PKD
ROOT
HETATM    1  C   UNL     1     -11.025  15.931  68.501  1.00  0.00    -0.324 C  
HETATM    2  O   UNL     1     -11.356  15.681  67.141  1.00  0.00    -0.229 OA 
ENDROOT
BRANCH   2   3
HETATM    3  C   UNL     1     -11.169  14.398  66.691  1.00  0.00    -0.339 A  
HETATM    4  C   UNL     1     -10.900  14.286  65.323  1.00  0.00    -0.355 A  
HETATM    5  O   UNL     1     -10.859  15.402  64.533  1.00  0.00    -0.640 OA 
HETATM    6  C   UNL     1     -10.682  13.053  64.723  1.00  0.00    -0.370 A  
HETATM    7  C   UNL     1     -10.771  11.895  65.497  1.00  0.00    -0.329 A  
HETATM    8  H   UNL     1     -10.676  15.326  63.604  1.00  0.00     0.000 HD 
HETATM    9  C   UNL     1     -11.086  11.974  66.863  1.00  0.00    -0.352 A  
HETATM   10  C   UNL     1     -11.250  13.237  67.461  1.00  0.00    -0.309 A  
BRANCH   9  11
HETATM   11  C   UNL     1     -11.281  10.715  67.667  1.00  0.00    -0.290 C  
BRANCH  11  12
HETATM   12  N   UNL     1     -12.199  10.907  68.764  1.00  0.00    -0.398 N  
HETATM   13  C   UNL     1     -11.798  10.649  70.053  1.00  0.00    -0.322 C  
HETATM   14  H   UNL     1     -13.147  11.235  68.582  1.00  0.00     0.000 HD 
HETATM   15  O   UNL     1     -10.673  10.257  70.344  1.00  0.00    -0.292 OA 
BRANCH  13  16
HETATM   16  C   UNL     1     -12.882  10.874  71.089  1.00  0.00    -0.508 C  
BRANCH  16  17
HETATM   17  C   UNL     1     -12.995   9.712  72.075  1.00  0.00    -0.518 C  
BRANCH  17  18
HETATM   18  C   UNL     1     -14.185   8.800  71.758  1.00  0.00    -0.443 C  
BRANCH  18  19
HETATM   19  C   UNL     1     -13.768   7.330  71.712  1.00  0.00    -0.399 C  
BRANCH  19  20
HETATM   20  C   UNL     1     -12.293   7.199  71.460  1.00  0.00    -0.406 C  
HETATM   21  C   UNL     1     -11.769   6.621  70.370  1.00  0.00    -0.446 C  
HETATM   22  C   UNL     1     -10.287   6.486  70.120  1.00  0.00    -0.241 C  
HETATM   23  C   UNL     1      -9.890   7.266  68.867  1.00  0.00    -0.158 C  
HETATM   24  C   UNL     1      -9.913   5.010  69.977  1.00  0.00    -0.324 C  
ENDBRANCH  19  20
ENDBRANCH  18  19
ENDBRANCH  17  18
ENDBRANCH  16  17
ENDBRANCH  13  16
ENDBRANCH  11  12
ENDBRANCH   9  11
ENDBRANCH   2   3
TORSDOF 8
ENDMDL
MODEL       54
REMARK 921   NORMALIZED FREE ENERGY PREDICTED BY IDOCK:   -5.30 KCAL/MOL
REMARK 922        TOTAL FREE ENERGY PREDICTED BY IDOCK:   -8.99 KCAL/MOL
REMARK 923 INTER-LIGAND FREE ENERGY PREDICTED BY IDOCK:   -8.33 KCAL/MOL
REMARK 924 INTRA-LIGAND FREE ENERGY PREDICTED BY IDOCK:   -0.66 KCAL/MOL
REMARK 927      BINDING AFFINITY PREDICTED BY RF-SCORE:    0.00 PKD
ROOT
HETATM    1  C   UNL     1      -9.569   7.046  71.054  1.00  0.00    -0.170 C  
HETATM    2  O   UNL     1     -10.902   7.103  70.560  1.00  0.00    -0.233 OA 
ENDROOT
BRANCH   2   3
HETATM    3  C   UNL     1     -11.638   8.207  70.909  1.00  0.00    -0.267 A  
HETATM    4  C   UNL     1     -12.724   7.950  71.752  1.00  0.00    -0.329 A  
HETATM    5  O   UNL     1     -13.002   6.672  72.151  1.00  0.00    -0.551 OA 
HETATM    6  C   UNL     1     -13.558   8.968  72.195  1.00  0.00    -0.523 A  
HETATM    7  C   UNL     1     -13.328  10.273  71.760  1.00  0.00    -0.476 A  
HETATM    8  H   UNL     1     -13.739   6.496  72.723  1.00  0.00     0.000 HD 
HETATM    9  C   UNL     1     -12.273  10.554  70.876  1.00  0.00    -0.490 A  
HETATM   10  C   UNL     1     -11.409   9.516  70.483  1.00  0.00    -0.343 A  
BRANCH   9  11
HETATM   11  C   UNL     1     -12.095  11.948  70.331  1.00  0.00    -0.333 C  
BRANCH  11  12
HETATM   12  N   UNL     1     -12.002  11.960  68.892  1.00  0.00    -0.288 N  
HETATM   13  C   UNL     1     -11.902  13.153  68.216  1.00  0.00    -0.349 C  
HETATM   14  H   UNL     1     -12.009  11.081  68.374  1.00  0.00     0.000 HD 
HETATM   15  O   UNL     1     -11.882  14.245  68.774  1.00  0.00    -0.316 OA 
BRANCH  13  16
HETATM   16  C   UNL     1     -11.838  13.001  66.709  1.00  0.00    -0.451 C  
BRANCH  16  17
HETATM   17  C   UNL     1     -10.401  13.001  66.185  1.00  0.00    -0.285 C  
BRANCH  17  18
HETATM   18  C   UNL     1     -10.087  14.257  65.363  1.00  0.00    -0.379 C  
BRANCH  18  19
HETATM   19  C   UNL     1      -9.319  15.288  66.189  1.00  0.00    -0.360 C  
BRANCH  19  20
HETATM   20  C   UNL     1     -10.194  16.459  66.535  1.00  0.00    -0.310 C  
HETATM   21  C   UNL     1      -9.745  17.715  66.671  1.00  0.00    -0.304 C  
HETATM   22  C   UNL     1     -10.624  18.889  67.023  1.00  0.00    -0.510 C  
HETATM   23  C   UNL     1     -10.623  19.908  65.883  1.00  0.00    -0.523 C  
HETATM   24  C   UNL     1     -10.141  19.534  68.322  1.00  0.00    -0.542 C  
ENDBRANCH  19  20
ENDBRANCH  18  19
ENDBRANCH  17  18
ENDBRANCH  16  17
ENDBRANCH  13  16
ENDBRANCH  11  12
ENDBRANCH   9  11
ENDBRANCH   2   3
TORSDOF 8
ENDMDL
MODEL       55
REMARK 921   NORMALIZED FREE ENERGY PREDICTED BY IDOCK:   -5.29 KCAL/MOL
REMARK 922        TOTAL FREE ENERGY PREDICTED BY IDOCK:   -8.97 KCAL/MOL
REMARK 923 INTER-LIGAND FREE ENERGY PREDICTED BY IDOCK:   -7.49 KCAL/MOL
REMARK 924 INTRA-LIGAND FREE ENERGY PREDICTED BY IDOCK:   -1.48 KCAL/MOL
REMARK 927      BINDING AFFINITY PREDICTED BY RF-SCORE:    0.00 PKD
ROOT
HETATM    1  C   UNL     1     -12.780  13.948  66.018  1.00  0.00    -0.362 C  
HETATM    2  O   UNL     1     -11.972  12.932  65.436  1.00  0.00    -0.374 OA 
ENDROOT
BRANCH   2   3
HETATM    3  C   UNL     1     -11.419  12.020  66.300  1.00  0.00    -0.345 A  
HETATM    4  C   UNL     1     -10.608  11.053  65.697  1.00  0.00    -0.197 A  
HETATM    5  O   UNL     1     -10.430  11.048  64.341  1.00  0.00    -0.336 OA 
HETATM    6  C   UNL     1      -9.975  10.067  66.443  1.00  0.00    -0.300 A  
HETATM    7  C   UNL     1     -10.183  10.019  67.821  1.00  0.00    -0.235 A  
HETATM    8  H   UNL     1      -9.879  10.391  63.931  1.00  0.00     0.000 HD 
HETATM    9  C   UNL     1     -11.029  10.948  68.447  1.00  0.00    -0.288 A  
HETATM   10  C   UNL     1     -11.618  11.970  67.680  1.00  0.00    -0.392 A  
BRANCH   9  11
HETATM   11  C   UNL     1     -11.329  10.825  69.919  1.00  0.00    -0.311 C  
BRANCH  11  12
HETATM   12  N   UNL     1     -11.919  12.026  70.455  1.00  0.00    -0.498 N  
HETATM   13  C   UNL     1     -12.831  11.950  71.481  1.00  0.00    -0.316 C  
HETATM   14  H   UNL     1     -11.659  12.936  70.073  1.00  0.00     0.000 HD 
HETATM   15  O   UNL     1     -13.185  10.893  71.991  1.00  0.00    -0.492 OA 
BRANCH  13  16
HETATM   16  C   UNL     1     -13.379  13.295  71.917  1.00  0.00    -0.540 C  
BRANCH  16  17
HETATM   17  C   UNL     1     -12.350  14.417  71.775  1.00  0.00    -0.390 C  
BRANCH  17  18
HETATM   18  C   UNL     1     -12.746  15.431  70.697  1.00  0.00    -0.490 C  
BRANCH  18  19
HETATM   19  C   UNL     1     -11.525  16.165  70.143  1.00  0.00    -0.309 C  
BRANCH  19  20
HETATM   20  C   UNL     1     -11.124  15.608  68.806  1.00  0.00    -0.307 C  
HETATM   21  C   UNL     1      -9.876  15.654  68.321  1.00  0.00    -0.209 C  
HETATM   22  C   UNL     1      -9.475  15.098  66.976  1.00  0.00    -0.237 C  
HETATM   23  C   UNL     1      -8.464  13.966  67.154  1.00  0.00    -0.196 C  
HETATM   24  C   UNL     1      -8.892  16.209  66.103  1.00  0.00    -0.367 C  
ENDBRANCH  19  20
ENDBRANCH  18  19
ENDBRANCH  17  18
ENDBRANCH  16  17
ENDBRANCH  13  16
ENDBRANCH  11  12
ENDBRANCH   9  11
ENDBRANCH   2   3
TORSDOF 8
ENDMDL
MODEL       56
REMARK 921   NORMALIZED FREE ENERGY PREDICTED BY IDOCK:   -5.27 KCAL/MOL
REMARK 922        TOTAL FREE ENERGY PREDICTED BY IDOCK:   -8.94 KCAL/MOL
REMARK 923 INTER-LIGAND FREE ENERGY PREDICTED BY IDOCK:   -7.79 KCAL/MOL
REMARK 924 INTRA-LIGAND FREE ENERGY PREDICTED BY IDOCK:   -1.15 KCAL/MOL
REMARK 927      BINDING AFFINITY PREDICTED BY RF-SCORE:    0.00 PKD
ROOT
HETATM    1  C   UNL     1     -10.955  16.043  70.021  1.00  0.00    -0.365 C  
HETATM    2  O   UNL     1     -12.311  15.618  69.960  1.00  0.00    -0.369 OA 
ENDROOT
BRANCH   2   3
HETATM    3  C   UNL     1     -12.601  14.412  70.546  1.00  0.00    -0.353 A  
HETATM    4  C   UNL     1     -13.435  14.485  71.667  1.00  0.00    -0.373 A  
HETATM    5  O   UNL     1     -13.883  15.697  72.117  1.00  0.00    -0.487 OA 
HETATM    6  C   UNL     1     -13.821  13.347  72.362  1.00  0.00    -0.665 A  
HETATM    7  C   UNL     1     -13.334  12.104  71.955  1.00  0.00    -0.470 A  
HETATM    8  H   UNL     1     -14.449  15.747  72.878  1.00  0.00     0.000 HD 
HETATM    9  C   UNL     1     -12.458  12.005  70.862  1.00  0.00    -0.384 A  
HETATM   10  C   UNL     1     -12.124  13.165  70.140  1.00  0.00    -0.392 A  
BRANCH   9  11
HETATM   11  C   UNL     1     -11.858  10.673  70.494  1.00  0.00    -0.357 C  
BRANCH  11  12
HETATM   12  N   UNL     1     -10.495  10.798  70.040  1.00  0.00    -0.435 N  
HETATM   13  C   UNL     1     -10.150  10.398  68.771  1.00  0.00    -0.187 C  
HETATM   14  H   UNL     1      -9.785  11.186  70.661  1.00  0.00     0.000 HD 
HETATM   15  O   UNL     1     -10.952   9.929  67.970  1.00  0.00    -0.257 OA 
BRANCH  13  16
HETATM   16  C   UNL     1      -8.678  10.570  68.452  1.00  0.00    -0.137 C  
BRANCH  16  17
HETATM   17  C   UNL     1      -8.425  11.718  67.475  1.00  0.00    -0.154 C  
BRANCH  17  18
HETATM   18  C   UNL     1      -8.743  13.084  68.095  1.00  0.00    -0.190 C  
BRANCH  18  19
HETATM   19  C   UNL     1      -9.758  13.857  67.254  1.00  0.00    -0.245 C  
BRANCH  19  20
HETATM   20  C   UNL     1     -10.487  12.940  66.314  1.00  0.00    -0.282 C  
HETATM   21  C   UNL     1     -10.508  13.095  64.983  1.00  0.00    -0.358 C  
HETATM   22  C   UNL     1     -11.245  12.175  64.041  1.00  0.00    -0.458 C  
HETATM   23  C   UNL     1     -10.258  11.483  63.101  1.00  0.00    -0.389 C  
HETATM   24  C   UNL     1     -12.284  12.964  63.245  1.00  0.00    -0.481 C  
ENDBRANCH  19  20
ENDBRANCH  18  19
ENDBRANCH  17  18
ENDBRANCH  16  17
ENDBRANCH  13  16
ENDBRANCH  11  12
ENDBRANCH   9  11
ENDBRANCH   2   3
TORSDOF 8
ENDMDL
MODEL       57
REMARK 921   NORMALIZED FREE ENERGY PREDICTED BY IDOCK:   -5.26 KCAL/MOL
REMARK 922        TOTAL FREE ENERGY PREDICTED BY IDOCK:   -8.92 KCAL/MOL
REMARK 923 INTER-LIGAND FREE ENERGY PREDICTED BY IDOCK:   -7.85 KCAL/MOL
REMARK 924 INTRA-LIGAND FREE ENERGY PREDICTED BY IDOCK:   -1.07 KCAL/MOL
REMARK 927      BINDING AFFINITY PREDICTED BY RF-SCORE:    0.00 PKD
ROOT
HETATM    1  C   UNL     1     -13.470  12.960  72.139  1.00  0.00    -0.522 C  
HETATM    2  O   UNL     1     -12.693  14.152  72.131  1.00  0.00    -0.332 OA 
ENDROOT
BRANCH   2   3
HETATM    3  C   UNL     1     -12.255  14.590  70.906  1.00  0.00    -0.339 A  
HETATM    4  C   UNL     1     -11.724  15.883  70.897  1.00  0.00    -0.420 A  
HETATM    5  O   UNL     1     -11.685  16.623  72.047  1.00  0.00    -0.616 OA 
HETATM    6  C   UNL     1     -11.236  16.460  69.732  1.00  0.00    -0.252 A  
HETATM    7  C   UNL     1     -11.312  15.747  68.536  1.00  0.00    -0.374 A  
HETATM    8  H   UNL     1     -11.324  17.501  72.041  1.00  0.00     0.000 HD 
HETATM    9  C   UNL     1     -11.884  14.465  68.507  1.00  0.00    -0.369 A  
HETATM   10  C   UNL     1     -12.323  13.878  69.707  1.00  0.00    -0.330 A  
BRANCH   9  11
HETATM   11  C   UNL     1     -12.055  13.745  67.194  1.00  0.00    -0.378 C  
BRANCH  11  12
HETATM   12  N   UNL     1     -11.526  12.404  67.237  1.00  0.00    -0.332 N  
HETATM   13  C   UNL     1     -10.224  12.162  66.870  1.00  0.00    -0.208 C  
HETATM   14  H   UNL     1     -12.120  11.632  67.541  1.00  0.00     0.000 HD 
HETATM   15  O   UNL     1      -9.453  13.042  66.500  1.00  0.00    -0.250 OA 
BRANCH  13  16
HETATM   16  C   UNL     1      -9.825  10.702  66.945  1.00  0.00    -0.228 C  
BRANCH  16  17
HETATM   17  C   UNL     1     -10.773   9.884  67.823  1.00  0.00    -0.332 C  
BRANCH  17  18
HETATM   18  C   UNL     1     -10.288   9.803  69.275  1.00  0.00    -0.230 C  
BRANCH  18  19
HETATM   19  C   UNL     1     -11.300  10.424  70.238  1.00  0.00    -0.406 C  
BRANCH  19  20
HETATM   20  C   UNL     1     -11.576   9.505  71.394  1.00  0.00    -0.466 C  
HETATM   21  C   UNL     1     -10.912   8.362  71.616  1.00  0.00    -0.345 C  
HETATM   22  C   UNL     1     -11.193   7.437  72.775  1.00  0.00    -0.380 C  
HETATM   23  C   UNL     1      -9.967   7.342  73.682  1.00  0.00    -0.379 C  
HETATM   24  C   UNL     1     -11.590   6.054  72.257  1.00  0.00    -0.359 C  
ENDBRANCH  19  20
ENDBRANCH  18  19
ENDBRANCH  17  18
ENDBRANCH  16  17
ENDBRANCH  13  16
ENDBRANCH  11  12
ENDBRANCH   9  11
ENDBRANCH   2   3
TORSDOF 8
ENDMDL
MODEL       58
REMARK 921   NORMALIZED FREE ENERGY PREDICTED BY IDOCK:   -5.25 KCAL/MOL
REMARK 922        TOTAL FREE ENERGY PREDICTED BY IDOCK:   -8.92 KCAL/MOL
REMARK 923 INTER-LIGAND FREE ENERGY PREDICTED BY IDOCK:   -7.78 KCAL/MOL
REMARK 924 INTRA-LIGAND FREE ENERGY PREDICTED BY IDOCK:   -1.14 KCAL/MOL
REMARK 927      BINDING AFFINITY PREDICTED BY RF-SCORE:    0.00 PKD
ROOT
HETATM    1  C   UNL     1      -9.547   7.790  70.975  1.00  0.00    -0.159 C  
HETATM    2  O   UNL     1     -10.919   7.876  70.608  1.00  0.00    -0.238 OA 
ENDROOT
BRANCH   2   3
HETATM    3  C   UNL     1     -11.516   9.103  70.755  1.00  0.00    -0.282 A  
HETATM    4  C   UNL     1     -12.549   9.148  71.697  1.00  0.00    -0.360 A  
HETATM    5  O   UNL     1     -12.912   8.018  72.378  1.00  0.00    -0.523 OA 
HETATM    6  C   UNL     1     -13.243  10.321  71.960  1.00  0.00    -0.516 A  
HETATM    7  C   UNL     1     -12.927  11.473  71.240  1.00  0.00    -0.397 A  
HETATM    8  H   UNL     1     -13.614   8.048  73.018  1.00  0.00     0.000 HD 
HETATM    9  C   UNL     1     -11.926  11.447  70.256  1.00  0.00    -0.460 A  
HETATM   10  C   UNL     1     -11.200  10.261  70.043  1.00  0.00    -0.376 A  
BRANCH   9  11
HETATM   11  C   UNL     1     -11.663  12.668  69.413  1.00  0.00    -0.325 C  
BRANCH  11  12
HETATM   12  N   UNL     1     -12.004  12.457  68.028  1.00  0.00    -0.301 N  
HETATM   13  C   UNL     1     -12.124  13.527  67.174  1.00  0.00    -0.340 C  
HETATM   14  H   UNL     1     -12.156  11.509  67.681  1.00  0.00     0.000 HD 
HETATM   15  O   UNL     1     -11.950  14.690  67.522  1.00  0.00    -0.375 OA 
BRANCH  13  16
HETATM   16  C   UNL     1     -12.511  13.143  65.759  1.00  0.00    -0.441 C  
BRANCH  16  17
HETATM   17  C   UNL     1     -11.746  13.948  64.708  1.00  0.00    -0.399 C  
BRANCH  17  18
HETATM   18  C   UNL     1     -10.673  13.109  64.006  1.00  0.00    -0.330 C  
BRANCH  18  19
HETATM   19  C   UNL     1     -11.177  11.700  63.697  1.00  0.00    -0.497 C  
BRANCH  19  20
HETATM   20  C   UNL     1     -10.274  10.661  64.298  1.00  0.00    -0.391 C  
HETATM   21  C   UNL     1     -10.276  10.329  65.597  1.00  0.00    -0.301 C  
HETATM   22  C   UNL     1      -9.365   9.289  66.200  1.00  0.00    -0.270 C  
HETATM   23  C   UNL     1     -10.188   8.134  66.769  1.00  0.00    -0.372 C  
HETATM   24  C   UNL     1      -8.498   9.921  67.290  1.00  0.00    -0.121 C  
ENDBRANCH  19  20
ENDBRANCH  18  19
ENDBRANCH  17  18
ENDBRANCH  16  17
ENDBRANCH  13  16
ENDBRANCH  11  12
ENDBRANCH   9  11
ENDBRANCH   2   3
TORSDOF 8
ENDMDL
MODEL       59
REMARK 921   NORMALIZED FREE ENERGY PREDICTED BY IDOCK:   -5.24 KCAL/MOL
REMARK 922        TOTAL FREE ENERGY PREDICTED BY IDOCK:   -8.90 KCAL/MOL
REMARK 923 INTER-LIGAND FREE ENERGY PREDICTED BY IDOCK:   -8.09 KCAL/MOL
REMARK 924 INTRA-LIGAND FREE ENERGY PREDICTED BY IDOCK:   -0.81 KCAL/MOL
REMARK 927      BINDING AFFINITY PREDICTED BY RF-SCORE:    0.00 PKD
ROOT
HETATM    1  C   UNL     1     -12.507   9.770  71.694  1.00  0.00    -0.410 C  
HETATM    2  O   UNL     1     -13.090  11.046  71.930  1.00  0.00    -0.486 OA 
ENDROOT
BRANCH   2   3
HETATM    3  C   UNL     1     -12.671  12.070  71.118  1.00  0.00    -0.266 A  
HETATM    4  C   UNL     1     -12.981  13.354  71.579  1.00  0.00    -0.341 A  
HETATM    5  O   UNL     1     -13.669  13.520  72.749  1.00  0.00    -0.710 OA 
HETATM    6  C   UNL     1     -12.617  14.489  70.868  1.00  0.00    -0.414 A  
HETATM    7  C   UNL     1     -11.961  14.345  69.645  1.00  0.00    -0.385 A  
HETATM    8  H   UNL     1     -13.879  14.392  73.063  1.00  0.00     0.000 HD 
HETATM    9  C   UNL     1     -11.679  13.067  69.134  1.00  0.00    -0.378 A  
HETATM   10  C   UNL     1     -12.009  11.932  69.897  1.00  0.00    -0.398 A  
BRANCH   9  11
HETATM   11  C   UNL     1     -11.063  12.920  67.767  1.00  0.00    -0.259 C  
BRANCH  11  12
HETATM   12  N   UNL     1     -11.372  14.038  66.909  1.00  0.00    -0.316 N  
HETATM   13  C   UNL     1     -10.364  14.704  66.253  1.00  0.00    -0.294 C  
HETATM   14  H   UNL     1     -12.340  14.334  66.788  1.00  0.00     0.000 HD 
HETATM   15  O   UNL     1      -9.180  14.399  66.348  1.00  0.00    -0.267 OA 
BRANCH  13  16
HETATM   16  C   UNL     1     -10.846  15.869  65.411  1.00  0.00    -0.361 C  
BRANCH  16  17
HETATM   17  C   UNL     1     -10.272  17.205  65.884  1.00  0.00    -0.290 C  
BRANCH  17  18
HETATM   18  C   UNL     1     -10.519  17.443  67.378  1.00  0.00    -0.336 C  
BRANCH  18  19
HETATM   19  C   UNL     1     -10.660  18.932  67.692  1.00  0.00    -0.501 C  
BRANCH  19  20
HETATM   20  C   UNL     1      -9.321  19.613  67.678  1.00  0.00    -0.430 C  
HETATM   21  C   UNL     1      -8.212  19.093  68.221  1.00  0.00    -0.369 C  
HETATM   22  C   UNL     1      -6.869  19.780  68.212  1.00  0.00    -0.326 C  
HETATM   23  C   UNL     1      -5.858  18.950  67.421  1.00  0.00    -0.166 C  
HETATM   24  C   UNL     1      -6.382  20.000  69.644  1.00  0.00    -0.387 C  
ENDBRANCH  19  20
ENDBRANCH  18  19
ENDBRANCH  17  18
ENDBRANCH  16  17
ENDBRANCH  13  16
ENDBRANCH  11  12
ENDBRANCH   9  11
ENDBRANCH   2   3
TORSDOF 8
ENDMDL
MODEL       60
REMARK 921   NORMALIZED FREE ENERGY PREDICTED BY IDOCK:   -5.23 KCAL/MOL
REMARK 922        TOTAL FREE ENERGY PREDICTED BY IDOCK:   -8.88 KCAL/MOL
REMARK 923 INTER-LIGAND FREE ENERGY PREDICTED BY IDOCK:   -8.20 KCAL/MOL
REMARK 924 INTRA-LIGAND FREE ENERGY PREDICTED BY IDOCK:   -0.68 KCAL/MOL
REMARK 927      BINDING AFFINITY PREDICTED BY RF-SCORE:    0.00 PKD
ROOT
HETATM    1  C   UNL     1     -10.454  19.625  65.925  1.00  0.00    -0.493 C  
HETATM    2  O   UNL     1     -10.911  18.494  65.193  1.00  0.00    -0.588 OA 
ENDROOT
BRANCH   2   3
HETATM    3  C   UNL     1     -10.896  17.291  65.854  1.00  0.00    -0.003 A  
HETATM    4  C   UNL     1     -11.237  16.183  65.071  1.00  0.00    -0.220 A  
HETATM    5  O   UNL     1     -11.574  16.345  63.755  1.00  0.00    -1.605 OA 
HETATM    6  C   UNL     1     -11.261  14.899  65.598  1.00  0.00    -0.347 A  
HETATM    7  C   UNL     1     -10.973  14.714  66.951  1.00  0.00    -0.324 A  
HETATM    8  H   UNL     1     -11.806  15.593  63.223  1.00  0.00     0.000 HD 
HETATM    9  C   UNL     1     -10.672  15.813  67.772  1.00  0.00    -0.307 A  
HETATM   10  C   UNL     1     -10.602  17.099  67.204  1.00  0.00    -0.244 A  
BRANCH   9  11
HETATM   11  C   UNL     1     -10.464  15.616  69.251  1.00  0.00    -0.247 C  
BRANCH  11  12
HETATM   12  N   UNL     1     -10.995  14.356  69.711  1.00  0.00    -0.429 N  
HETATM   13  C   UNL     1     -12.217  14.308  70.338  1.00  0.00    -0.342 C  
HETATM   14  H   UNL     1     -10.462  13.497  69.570  1.00  0.00     0.000 HD 
HETATM   15  O   UNL     1     -12.912  15.299  70.536  1.00  0.00    -0.383 OA 
BRANCH  13  16
HETATM   16  C   UNL     1     -12.625  12.918  70.784  1.00  0.00    -0.314 C  
BRANCH  16  17
HETATM   17  C   UNL     1     -11.708  11.833  70.218  1.00  0.00    -0.317 C  
BRANCH  17  18
HETATM   18  C   UNL     1     -11.952  11.593  68.724  1.00  0.00    -0.326 C  
BRANCH  18  19
HETATM   19  C   UNL     1     -10.689  11.092  68.024  1.00  0.00    -0.254 C  
BRANCH  19  20
HETATM   20  C   UNL     1     -10.936   9.773  67.348  1.00  0.00    -0.176 C  
HETATM   21  C   UNL     1     -10.293   8.640  67.662  1.00  0.00    -0.317 C  
HETATM   22  C   UNL     1     -10.539   7.317  66.979  1.00  0.00    -0.415 C  
HETATM   23  C   UNL     1     -11.077   6.298  67.983  1.00  0.00    -0.365 C  
HETATM   24  C   UNL     1      -9.247   6.811  66.337  1.00  0.00    -0.185 C  
ENDBRANCH  19  20
ENDBRANCH  18  19
ENDBRANCH  17  18
ENDBRANCH  16  17
ENDBRANCH  13  16
ENDBRANCH  11  12
ENDBRANCH   9  11
ENDBRANCH   2   3
TORSDOF 8
ENDMDL
MODEL       61
REMARK 921   NORMALIZED FREE ENERGY PREDICTED BY IDOCK:   -5.22 KCAL/MOL
REMARK 922        TOTAL FREE ENERGY PREDICTED BY IDOCK:   -8.87 KCAL/MOL
REMARK 923 INTER-LIGAND FREE ENERGY PREDICTED BY IDOCK:   -7.88 KCAL/MOL
REMARK 924 INTRA-LIGAND FREE ENERGY PREDICTED BY IDOCK:   -1.00 KCAL/MOL
REMARK 927      BINDING AFFINITY PREDICTED BY RF-SCORE:    0.00 PKD
ROOT
HETATM    1  C   UNL     1     -13.812  13.993  72.437  1.00  0.00    -0.551 C  
HETATM    2  O   UNL     1     -13.558  12.596  72.526  1.00  0.00    -0.499 OA 
ENDROOT
BRANCH   2   3
HETATM    3  C   UNL     1     -12.905  12.023  71.464  1.00  0.00    -0.297 A  
HETATM    4  C   UNL     1     -12.769  10.633  71.535  1.00  0.00    -0.444 A  
HETATM    5  O   UNL     1     -13.249   9.946  72.616  1.00  0.00    -0.519 OA 
HETATM    6  C   UNL     1     -12.136   9.912  70.531  1.00  0.00    -0.289 A  
HETATM    7  C   UNL     1     -11.591  10.595  69.444  1.00  0.00    -0.352 A  
HETATM    8  H   UNL     1     -13.157   9.002  72.664  1.00  0.00     0.000 HD 
HETATM    9  C   UNL     1     -11.672  11.995  69.369  1.00  0.00    -0.402 A  
HETATM   10  C   UNL     1     -12.364  12.700  70.370  1.00  0.00    -0.315 A  
BRANCH   9  11
HETATM   11  C   UNL     1     -10.991  12.731  68.243  1.00  0.00    -0.252 C  
BRANCH  11  12
HETATM   12  N   UNL     1     -11.323  12.178  66.953  1.00  0.00    -0.323 N  
HETATM   13  C   UNL     1     -11.803  12.991  65.955  1.00  0.00    -0.417 C  
HETATM   14  H   UNL     1     -11.200  11.180  66.781  1.00  0.00     0.000 HD 
HETATM   15  O   UNL     1     -11.970  14.199  66.091  1.00  0.00    -0.387 OA 
BRANCH  13  16
HETATM   16  C   UNL     1     -12.128  12.259  64.669  1.00  0.00    -0.449 C  
BRANCH  16  17
HETATM   17  C   UNL     1     -10.890  12.024  63.803  1.00  0.00    -0.481 C  
BRANCH  17  18
HETATM   18  C   UNL     1     -10.319  10.613  63.982  1.00  0.00    -0.262 C  
BRANCH  18  19
HETATM   19  C   UNL     1      -9.206  10.588  65.029  1.00  0.00    -0.245 C  
BRANCH  19  20
HETATM   20  C   UNL     1      -9.125   9.244  65.696  1.00  0.00    -0.268 C  
HETATM   21  C   UNL     1     -10.031   8.787  66.571  1.00  0.00    -0.360 C  
HETATM   22  C   UNL     1      -9.946   7.439  67.243  1.00  0.00    -0.259 C  
HETATM   23  C   UNL     1     -11.138   6.573  66.839  1.00  0.00    -0.342 C  
HETATM   24  C   UNL     1      -9.895   7.612  68.760  1.00  0.00    -0.165 C  
ENDBRANCH  19  20
ENDBRANCH  18  19
ENDBRANCH  17  18
ENDBRANCH  16  17
ENDBRANCH  13  16
ENDBRANCH  11  12
ENDBRANCH   9  11
ENDBRANCH   2   3
TORSDOF 8
ENDMDL
MODEL       62
REMARK 921   NORMALIZED FREE ENERGY PREDICTED BY IDOCK:   -5.22 KCAL/MOL
REMARK 922        TOTAL FREE ENERGY PREDICTED BY IDOCK:   -8.86 KCAL/MOL
REMARK 923 INTER-LIGAND FREE ENERGY PREDICTED BY IDOCK:   -8.05 KCAL/MOL
REMARK 924 INTRA-LIGAND FREE ENERGY PREDICTED BY IDOCK:   -0.81 KCAL/MOL
REMARK 927      BINDING AFFINITY PREDICTED BY RF-SCORE:    0.00 PKD
ROOT
HETATM    1  C   UNL     1      -8.684   9.832  69.642  1.00  0.00    -0.199 C  
HETATM    2  O   UNL     1      -9.969   9.378  69.234  1.00  0.00    -0.168 OA 
ENDROOT
BRANCH   2   3
HETATM    3  C   UNL     1     -10.969   9.449  70.170  1.00  0.00    -0.246 A  
HETATM    4  C   UNL     1     -11.410   8.215  70.658  1.00  0.00    -0.249 A  
HETATM    5  O   UNL     1     -10.866   7.052  70.187  1.00  0.00    -0.237 OA 
HETATM    6  C   UNL     1     -12.413   8.127  71.614  1.00  0.00    -0.349 A  
HETATM    7  C   UNL     1     -13.021   9.296  72.071  1.00  0.00    -0.504 A  
HETATM    8  H   UNL     1     -11.165   6.213  70.519  1.00  0.00     0.000 HD 
HETATM    9  C   UNL     1     -12.631  10.547  71.565  1.00  0.00    -0.529 A  
HETATM   10  C   UNL     1     -11.577  10.616  70.637  1.00  0.00    -0.432 A  
BRANCH   9  11
HETATM   11  C   UNL     1     -13.363  11.794  71.989  1.00  0.00    -0.312 C  
BRANCH  11  12
HETATM   12  N   UNL     1     -12.869  12.969  71.314  1.00  0.00    -0.333 N  
HETATM   13  C   UNL     1     -13.223  14.221  71.757  1.00  0.00    -0.367 C  
HETATM   14  H   UNL     1     -12.253  12.871  70.507  1.00  0.00     0.000 HD 
HETATM   15  O   UNL     1     -13.953  14.413  72.724  1.00  0.00    -0.569 OA 
BRANCH  13  16
HETATM   16  C   UNL     1     -12.644  15.352  70.931  1.00  0.00    -0.496 C  
BRANCH  16  17
HETATM   17  C   UNL     1     -11.511  14.884  70.016  1.00  0.00    -0.317 C  
BRANCH  17  18
HETATM   18  C   UNL     1     -11.767  15.248  68.549  1.00  0.00    -0.352 C  
BRANCH  18  19
HETATM   19  C   UNL     1     -10.485  15.162  67.720  1.00  0.00    -0.247 C  
BRANCH  19  20
HETATM   20  C   UNL     1      -9.838  16.511  67.591  1.00  0.00    -0.247 C  
HETATM   21  C   UNL     1     -10.509  17.670  67.628  1.00  0.00    -0.372 C  
HETATM   22  C   UNL     1      -9.858  19.025  67.493  1.00  0.00    -0.386 C  
HETATM   23  C   UNL     1     -10.059  19.836  68.772  1.00  0.00    -0.523 C  
HETATM   24  C   UNL     1     -10.436  19.766  66.288  1.00  0.00    -0.614 C  
ENDBRANCH  19  20
ENDBRANCH  18  19
ENDBRANCH  17  18
ENDBRANCH  16  17
ENDBRANCH  13  16
ENDBRANCH  11  12
ENDBRANCH   9  11
ENDBRANCH   2   3
TORSDOF 8
ENDMDL
MODEL       63
REMARK 921   NORMALIZED FREE ENERGY PREDICTED BY IDOCK:   -5.20 KCAL/MOL
REMARK 922        TOTAL FREE ENERGY PREDICTED BY IDOCK:   -8.85 KCAL/MOL
REMARK 923 INTER-LIGAND FREE ENERGY PREDICTED BY IDOCK:   -7.94 KCAL/MOL
REMARK 924 INTRA-LIGAND FREE ENERGY PREDICTED BY IDOCK:   -0.90 KCAL/MOL
REMARK 927      BINDING AFFINITY PREDICTED BY RF-SCORE:    0.00 PKD
ROOT
HETATM    1  C   UNL     1     -12.384  14.909  64.164  1.00  0.00    -0.185 C  
HETATM    2  O   UNL     1     -12.488  13.500  63.997  1.00  0.00    -0.645 OA 
ENDROOT
BRANCH   2   3
HETATM    3  C   UNL     1     -11.864  12.723  64.940  1.00  0.00    -0.379 A  
HETATM    4  C   UNL     1     -11.196  11.603  64.434  1.00  0.00    -0.291 A  
HETATM    5  O   UNL     1     -11.212  11.337  63.092  1.00  0.00    -0.829 OA 
HETATM    6  C   UNL     1     -10.514  10.727  65.266  1.00  0.00    -0.282 A  
HETATM    7  C   UNL     1     -10.527  10.947  66.643  1.00  0.00    -0.307 A  
HETATM    8  H   UNL     1     -10.758  10.577  62.748  1.00  0.00     0.000 HD 
HETATM    9  C   UNL     1     -11.229  12.037  67.184  1.00  0.00    -0.374 A  
HETATM   10  C   UNL     1     -11.868  12.942  66.318  1.00  0.00    -0.477 A  
BRANCH   9  11
HETATM   11  C   UNL     1     -11.323  12.208  68.678  1.00  0.00    -0.280 C  
BRANCH  11  12
HETATM   12  N   UNL     1     -10.668  13.411  69.129  1.00  0.00    -0.428 N  
HETATM   13  C   UNL     1     -11.410  14.467  69.601  1.00  0.00    -0.273 C  
HETATM   14  H   UNL     1      -9.650  13.478  69.099  1.00  0.00     0.000 HD 
HETATM   15  O   UNL     1     -12.634  14.453  69.670  1.00  0.00    -0.255 OA 
BRANCH  13  16
HETATM   16  C   UNL     1     -10.579  15.666  70.012  1.00  0.00    -0.342 C  
BRANCH  16  17
HETATM   17  C   UNL     1      -9.467  15.976  69.010  1.00  0.00    -0.243 C  
BRANCH  17  18
HETATM   18  C   UNL     1     -10.011  16.591  67.716  1.00  0.00    -0.253 C  
BRANCH  18  19
HETATM   19  C   UNL     1     -10.545  18.004  67.949  1.00  0.00    -0.387 C  
BRANCH  19  20
HETATM   20  C   UNL     1      -9.742  19.016  67.182  1.00  0.00    -0.372 C  
HETATM   21  C   UNL     1      -8.403  19.067  67.185  1.00  0.00    -0.296 C  
HETATM   22  C   UNL     1      -7.598  20.086  66.418  1.00  0.00    -0.320 C  
HETATM   23  C   UNL     1      -6.730  19.392  65.370  1.00  0.00    -0.300 C  
HETATM   24  C   UNL     1      -6.734  20.902  67.379  1.00  0.00    -0.427 C  
ENDBRANCH  19  20
ENDBRANCH  18  19
ENDBRANCH  17  18
ENDBRANCH  16  17
ENDBRANCH  13  16
ENDBRANCH  11  12
ENDBRANCH   9  11
ENDBRANCH   2   3
TORSDOF 8
ENDMDL
MODEL       64
REMARK 921   NORMALIZED FREE ENERGY PREDICTED BY IDOCK:   -5.20 KCAL/MOL
REMARK 922        TOTAL FREE ENERGY PREDICTED BY IDOCK:   -8.84 KCAL/MOL
REMARK 923 INTER-LIGAND FREE ENERGY PREDICTED BY IDOCK:   -7.97 KCAL/MOL
REMARK 924 INTRA-LIGAND FREE ENERGY PREDICTED BY IDOCK:   -0.88 KCAL/MOL
REMARK 927      BINDING AFFINITY PREDICTED BY RF-SCORE:    0.00 PKD
ROOT
HETATM    1  C   UNL     1      -8.424   8.191  72.857  1.00  0.00    -0.196 C  
HETATM    2  O   UNL     1      -9.209   7.404  71.970  1.00  0.00    -0.132 OA 
ENDROOT
BRANCH   2   3
HETATM    3  C   UNL     1     -10.509   7.802  71.786  1.00  0.00    -0.216 A  
HETATM    4  C   UNL     1     -11.436   6.760  71.674  1.00  0.00    -0.282 A  
HETATM    5  O   UNL     1     -11.021   5.458  71.730  1.00  0.00    -0.213 OA 
HETATM    6  C   UNL     1     -12.789   7.007  71.491  1.00  0.00    -0.420 A  
HETATM    7  C   UNL     1     -13.231   8.325  71.377  1.00  0.00    -0.241 A  
HETATM    8  H   UNL     1     -11.650   4.750  71.655  1.00  0.00     0.000 HD 
HETATM    9  C   UNL     1     -12.317   9.390  71.439  1.00  0.00    -0.439 A  
HETATM   10  C   UNL     1     -10.958   9.119  71.679  1.00  0.00    -0.445 A  
BRANCH   9  11
HETATM   11  C   UNL     1     -12.789  10.803  71.212  1.00  0.00    -0.438 C  
BRANCH  11  12
HETATM   12  N   UNL     1     -11.796  11.607  70.542  1.00  0.00    -0.488 N  
HETATM   13  C   UNL     1     -11.687  11.570  69.172  1.00  0.00    -0.329 C  
HETATM   14  H   UNL     1     -11.173  12.204  71.086  1.00  0.00     0.000 HD 
HETATM   15  O   UNL     1     -12.405  10.880  68.457  1.00  0.00    -0.490 OA 
BRANCH  13  16
HETATM   16  C   UNL     1     -10.582  12.449  68.621  1.00  0.00    -0.243 C  
BRANCH  16  17
HETATM   17  C   UNL     1     -10.987  13.148  67.323  1.00  0.00    -0.288 C  
BRANCH  17  18
HETATM   18  C   UNL     1     -11.340  14.623  67.548  1.00  0.00    -0.361 C  
BRANCH  18  19
HETATM   19  C   UNL     1     -10.752  15.145  68.858  1.00  0.00    -0.240 C  
BRANCH  19  20
HETATM   20  C   UNL     1     -11.840  15.515  69.826  1.00  0.00    -0.376 C  
HETATM   21  C   UNL     1     -11.914  15.054  71.082  1.00  0.00    -0.375 C  
HETATM   22  C   UNL     1     -13.010  15.423  72.051  1.00  0.00    -0.485 C  
HETATM   23  C   UNL     1     -12.424  16.164  73.252  1.00  0.00    -0.642 C  
HETATM   24  C   UNL     1     -13.754  14.166  72.503  1.00  0.00    -0.626 C  
ENDBRANCH  19  20
ENDBRANCH  18  19
ENDBRANCH  17  18
ENDBRANCH  16  17
ENDBRANCH  13  16
ENDBRANCH  11  12
ENDBRANCH   9  11
ENDBRANCH   2   3
TORSDOF 8
ENDMDL
MODEL       65
REMARK 921   NORMALIZED FREE ENERGY PREDICTED BY IDOCK:   -5.20 KCAL/MOL
REMARK 922        TOTAL FREE ENERGY PREDICTED BY IDOCK:   -8.84 KCAL/MOL
REMARK 923 INTER-LIGAND FREE ENERGY PREDICTED BY IDOCK:   -7.53 KCAL/MOL
REMARK 924 INTRA-LIGAND FREE ENERGY PREDICTED BY IDOCK:   -1.31 KCAL/MOL
REMARK 927      BINDING AFFINITY PREDICTED BY RF-SCORE:    0.00 PKD
ROOT
HETATM    1  C   UNL     1     -10.986   5.868  69.830  1.00  0.00    -0.382 C  
HETATM    2  O   UNL     1     -10.578   7.023  70.553  1.00  0.00    -0.216 OA 
ENDROOT
BRANCH   2   3
HETATM    3  C   UNL     1     -10.744   8.230  69.923  1.00  0.00    -0.234 A  
HETATM    4  C   UNL     1     -11.374   9.216  70.691  1.00  0.00    -0.273 A  
HETATM    5  O   UNL     1     -11.792   8.937  71.963  1.00  0.00    -0.346 OA 
HETATM    6  C   UNL     1     -11.606  10.489  70.191  1.00  0.00    -0.408 A  
HETATM    7  C   UNL     1     -11.237  10.782  68.878  1.00  0.00    -0.328 A  
HETATM    8  H   UNL     1     -12.219   9.606  72.486  1.00  0.00     0.000 HD 
HETATM    9  C   UNL     1     -10.646   9.800  68.068  1.00  0.00    -0.291 A  
HETATM   10  C   UNL     1     -10.371   8.532  68.612  1.00  0.00    -0.224 A  
BRANCH   9  11
HETATM   11  C   UNL     1     -10.345  10.094  66.621  1.00  0.00    -0.208 C  
BRANCH  11  12
HETATM   12  N   UNL     1     -10.359  11.509  66.341  1.00  0.00    -0.230 N  
HETATM   13  C   UNL     1     -10.705  11.963  65.090  1.00  0.00    -0.291 C  
HETATM   14  H   UNL     1     -10.112  12.175  67.073  1.00  0.00     0.000 HD 
HETATM   15  O   UNL     1     -11.018  11.220  64.166  1.00  0.00    -0.372 OA 
BRANCH  13  16
HETATM   16  C   UNL     1     -10.647  13.471  64.947  1.00  0.00    -0.409 C  
BRANCH  16  17
HETATM   17  C   UNL     1     -10.110  14.156  66.204  1.00  0.00    -0.324 C  
BRANCH  17  18
HETATM   18  C   UNL     1     -11.235  14.722  67.078  1.00  0.00    -0.347 C  
BRANCH  18  19
HETATM   19  C   UNL     1     -10.947  14.515  68.565  1.00  0.00    -0.261 C  
BRANCH  19  20
HETATM   20  C   UNL     1     -12.223  14.433  69.353  1.00  0.00    -0.305 C  
HETATM   21  C   UNL     1     -12.271  14.297  70.686  1.00  0.00    -0.427 C  
HETATM   22  C   UNL     1     -13.554  14.211  71.476  1.00  0.00    -0.405 C  
HETATM   23  C   UNL     1     -13.662  15.395  72.436  1.00  0.00    -0.644 C  
HETATM   24  C   UNL     1     -13.608  12.889  72.242  1.00  0.00    -0.611 C  
ENDBRANCH  19  20
ENDBRANCH  18  19
ENDBRANCH  17  18
ENDBRANCH  16  17
ENDBRANCH  13  16
ENDBRANCH  11  12
ENDBRANCH   9  11
ENDBRANCH   2   3
TORSDOF 8
ENDMDL
MODEL       66
REMARK 921   NORMALIZED FREE ENERGY PREDICTED BY IDOCK:   -5.18 KCAL/MOL
REMARK 922        TOTAL FREE ENERGY PREDICTED BY IDOCK:   -8.81 KCAL/MOL
REMARK 923 INTER-LIGAND FREE ENERGY PREDICTED BY IDOCK:   -8.09 KCAL/MOL
REMARK 924 INTRA-LIGAND FREE ENERGY PREDICTED BY IDOCK:   -0.72 KCAL/MOL
REMARK 927      BINDING AFFINITY PREDICTED BY RF-SCORE:    0.00 PKD
ROOT
HETATM    1  C   UNL     1     -12.488  12.384  63.764  1.00  0.00    -0.492 C  
HETATM    2  O   UNL     1     -12.160  13.766  63.686  1.00  0.00    -0.486 OA 
ENDROOT
BRANCH   2   3
HETATM    3  C   UNL     1     -11.391  14.271  64.703  1.00  0.00    -0.373 A  
HETATM    4  C   UNL     1     -11.252  15.663  64.704  1.00  0.00    -0.369 A  
HETATM    5  O   UNL     1     -11.842  16.416  63.726  1.00  0.00    -1.455 OA 
HETATM    6  C   UNL     1     -10.507  16.319  65.675  1.00  0.00    -0.386 A  
HETATM    7  C   UNL     1      -9.852  15.569  66.651  1.00  0.00    -0.268 A  
HETATM    8  H   UNL     1     -11.748  17.361  63.726  1.00  0.00     0.000 HD 
HETATM    9  C   UNL     1      -9.935  14.167  66.648  1.00  0.00    -0.280 A  
HETATM   10  C   UNL     1     -10.738  13.527  65.687  1.00  0.00    -0.284 A  
BRANCH   9  11
HETATM   11  C   UNL     1      -9.141  13.362  67.644  1.00  0.00    -0.203 C  
BRANCH  11  12
HETATM   12  N   UNL     1      -9.575  11.987  67.700  1.00  0.00    -0.184 N  
HETATM   13  C   UNL     1     -10.651  11.633  68.479  1.00  0.00    -0.215 C  
HETATM   14  H   UNL     1      -9.083  11.276  67.160  1.00  0.00     0.000 HD 
HETATM   15  O   UNL     1     -11.291  12.436  69.150  1.00  0.00    -0.249 OA 
BRANCH  13  16
HETATM   16  C   UNL     1     -10.967  10.151  68.453  1.00  0.00    -0.293 C  
BRANCH  16  17
HETATM   17  C   UNL     1     -10.555   9.491  67.136  1.00  0.00    -0.295 C  
BRANCH  17  18
HETATM   18  C   UNL     1      -9.794   8.180  67.361  1.00  0.00    -0.242 C  
BRANCH  18  19
HETATM   19  C   UNL     1     -10.701   6.966  67.162  1.00  0.00    -0.436 C  
BRANCH  19  20
HETATM   20  C   UNL     1     -10.865   6.201  68.445  1.00  0.00    -0.382 C  
HETATM   21  C   UNL     1     -10.688   6.735  69.662  1.00  0.00    -0.290 C  
HETATM   22  C   UNL     1     -10.849   5.964  70.949  1.00  0.00    -0.347 C  
HETATM   23  C   UNL     1     -11.988   6.556  71.778  1.00  0.00    -0.394 C  
HETATM   24  C   UNL     1      -9.540   5.985  71.738  1.00  0.00    -0.168 C  
ENDBRANCH  19  20
ENDBRANCH  18  19
ENDBRANCH  17  18
ENDBRANCH  16  17
ENDBRANCH  13  16
ENDBRANCH  11  12
ENDBRANCH   9  11
ENDBRANCH   2   3
TORSDOF 8
ENDMDL
MODEL       67
REMARK 921   NORMALIZED FREE ENERGY PREDICTED BY IDOCK:   -5.17 KCAL/MOL
REMARK 922        TOTAL FREE ENERGY PREDICTED BY IDOCK:   -8.80 KCAL/MOL
REMARK 923 INTER-LIGAND FREE ENERGY PREDICTED BY IDOCK:   -7.95 KCAL/MOL
REMARK 924 INTRA-LIGAND FREE ENERGY PREDICTED BY IDOCK:   -0.85 KCAL/MOL
REMARK 927      BINDING AFFINITY PREDICTED BY RF-SCORE:    0.00 PKD
ROOT
HETATM    1  C   UNL     1      -9.979   9.221  68.559  1.00  0.00    -0.175 C  
HETATM    2  O   UNL     1     -10.745   8.658  69.617  1.00  0.00    -0.229 OA 
ENDROOT
BRANCH   2   3
HETATM    3  C   UNL     1     -11.521   9.528  70.341  1.00  0.00    -0.242 A  
HETATM    4  C   UNL     1     -12.365   8.926  71.280  1.00  0.00    -0.291 A  
HETATM    5  O   UNL     1     -12.391   7.565  71.412  1.00  0.00    -0.320 OA 
HETATM    6  C   UNL     1     -13.205   9.677  72.090  1.00  0.00    -0.535 A  
HETATM    7  C   UNL     1     -13.236  11.063  71.937  1.00  0.00    -0.503 A  
HETATM    8  H   UNL     1     -12.964   7.155  72.049  1.00  0.00     0.000 HD 
HETATM    9  C   UNL     1     -12.435  11.692  70.971  1.00  0.00    -0.436 A  
HETATM   10  C   UNL     1     -11.551  10.916  70.198  1.00  0.00    -0.425 A  
BRANCH   9  11
HETATM   11  C   UNL     1     -12.550  13.177  70.744  1.00  0.00    -0.260 C  
BRANCH  11  12
HETATM   12  N   UNL     1     -11.369  13.725  70.124  1.00  0.00    -0.488 N  
HETATM   13  C   UNL     1     -11.319  15.057  69.789  1.00  0.00    -0.283 C  
HETATM   14  H   UNL     1     -10.568  13.123  69.933  1.00  0.00     0.000 HD 
HETATM   15  O   UNL     1     -12.241  15.839  69.993  1.00  0.00    -0.365 OA 
BRANCH  13  16
HETATM   16  C   UNL     1     -10.022  15.475  69.124  1.00  0.00    -0.246 C  
BRANCH  16  17
HETATM   17  C   UNL     1      -9.505  14.421  68.144  1.00  0.00    -0.204 C  
BRANCH  17  18
HETATM   18  C   UNL     1      -9.274  15.000  66.743  1.00  0.00    -0.280 C  
BRANCH  18  19
HETATM   19  C   UNL     1     -10.591  15.397  66.078  1.00  0.00    -0.330 C  
BRANCH  19  20
HETATM   20  C   UNL     1     -10.814  14.611  64.816  1.00  0.00    -0.402 C  
HETATM   21  C   UNL     1     -11.126  13.308  64.791  1.00  0.00    -0.359 C  
HETATM   22  C   UNL     1     -11.344  12.520  63.524  1.00  0.00    -0.556 C  
HETATM   23  C   UNL     1     -12.781  12.003  63.466  1.00  0.00    -0.567 C  
HETATM   24  C   UNL     1     -10.351  11.360  63.450  1.00  0.00    -0.458 C  
ENDBRANCH  19  20
ENDBRANCH  18  19
ENDBRANCH  17  18
ENDBRANCH  16  17
ENDBRANCH  13  16
ENDBRANCH  11  12
ENDBRANCH   9  11
ENDBRANCH   2   3
TORSDOF 8
ENDMDL
MODEL       68
REMARK 921   NORMALIZED FREE ENERGY PREDICTED BY IDOCK:   -5.16 KCAL/MOL
REMARK 922        TOTAL FREE ENERGY PREDICTED BY IDOCK:   -8.79 KCAL/MOL
REMARK 923 INTER-LIGAND FREE ENERGY PREDICTED BY IDOCK:   -7.33 KCAL/MOL
REMARK 924 INTRA-LIGAND FREE ENERGY PREDICTED BY IDOCK:   -1.45 KCAL/MOL
REMARK 927      BINDING AFFINITY PREDICTED BY RF-SCORE:    0.00 PKD
ROOT
HETATM    1  C   UNL     1     -12.125  12.853  63.289  1.00  0.00    -0.440 C  
HETATM    2  O   UNL     1     -12.564  14.108  63.794  1.00  0.00    -0.804 OA 
ENDROOT
BRANCH   2   3
HETATM    3  C   UNL     1     -12.010  14.519  64.980  1.00  0.00    -0.399 A  
HETATM    4  C   UNL     1     -11.393  15.774  64.941  1.00  0.00    -0.280 A  
HETATM    5  O   UNL     1     -11.355  16.488  63.775  1.00  0.00    -1.553 OA 
HETATM    6  C   UNL     1     -10.793  16.325  66.065  1.00  0.00    -0.123 A  
HETATM    7  C   UNL     1     -10.772  15.593  67.252  1.00  0.00    -0.305 A  
HETATM    8  H   UNL     1     -10.936  17.341  63.748  1.00  0.00     0.000 HD 
HETATM    9  C   UNL     1     -11.342  14.311  67.309  1.00  0.00    -0.350 A  
HETATM   10  C   UNL     1     -11.991  13.794  66.172  1.00  0.00    -0.449 A  
BRANCH   9  11
HETATM   11  C   UNL     1     -11.224  13.487  68.565  1.00  0.00    -0.278 C  
BRANCH  11  12
HETATM   12  N   UNL     1     -10.206  12.471  68.455  1.00  0.00    -0.230 N  
HETATM   13  C   UNL     1     -10.537  11.203  68.039  1.00  0.00    -0.198 C  
HETATM   14  H   UNL     1      -9.238  12.694  68.685  1.00  0.00     0.000 HD 
HETATM   15  O   UNL     1     -11.678  10.867  67.741  1.00  0.00    -0.569 OA 
BRANCH  13  16
HETATM   16  C   UNL     1      -9.363  10.244  67.999  1.00  0.00    -0.145 C  
BRANCH  16  17
HETATM   17  C   UNL     1      -8.370  10.491  69.135  1.00  0.00    -0.154 C  
BRANCH  17  18
HETATM   18  C   UNL     1      -6.923  10.550  68.634  1.00  0.00    -0.067 C  
BRANCH  18  19
HETATM   19  C   UNL     1      -6.783  11.492  67.438  1.00  0.00    -0.101 C  
BRANCH  19  20
HETATM   20  C   UNL     1      -6.474  12.891  67.890  1.00  0.00    -0.127 C  
HETATM   21  C   UNL     1      -7.336  13.913  67.800  1.00  0.00    -0.170 C  
HETATM   22  C   UNL     1      -7.023  15.319  68.250  1.00  0.00    -0.119 C  
HETATM   23  C   UNL     1      -7.959  15.729  69.387  1.00  0.00    -0.211 C  
HETATM   24  C   UNL     1      -7.149  16.286  67.073  1.00  0.00    -0.259 C  
ENDBRANCH  19  20
ENDBRANCH  18  19
ENDBRANCH  17  18
ENDBRANCH  16  17
ENDBRANCH  13  16
ENDBRANCH  11  12
ENDBRANCH   9  11
ENDBRANCH   2   3
TORSDOF 8
ENDMDL
MODEL       69
REMARK 921   NORMALIZED FREE ENERGY PREDICTED BY IDOCK:   -5.16 KCAL/MOL
REMARK 922        TOTAL FREE ENERGY PREDICTED BY IDOCK:   -8.78 KCAL/MOL
REMARK 923 INTER-LIGAND FREE ENERGY PREDICTED BY IDOCK:   -7.80 KCAL/MOL
REMARK 924 INTRA-LIGAND FREE ENERGY PREDICTED BY IDOCK:   -0.97 KCAL/MOL
REMARK 927      BINDING AFFINITY PREDICTED BY RF-SCORE:    0.00 PKD
ROOT
HETATM    1  C   UNL     1     -13.176  10.917  71.954  1.00  0.00    -0.403 C  
HETATM    2  O   UNL     1     -13.105   9.528  72.248  1.00  0.00    -0.415 OA 
ENDROOT
BRANCH   2   3
HETATM    3  C   UNL     1     -12.303   8.769  71.432  1.00  0.00    -0.306 A  
HETATM    4  C   UNL     1     -12.608   7.404  71.408  1.00  0.00    -0.370 A  
HETATM    5  O   UNL     1     -13.626   6.910  72.177  1.00  0.00    -0.547 OA 
HETATM    6  C   UNL     1     -11.887   6.512  70.626  1.00  0.00    -0.398 A  
HETATM    7  C   UNL     1     -10.811   6.983  69.874  1.00  0.00    -0.280 A  
HETATM    8  H   UNL     1     -13.833   5.983  72.160  1.00  0.00     0.000 HD 
HETATM    9  C   UNL     1     -10.452   8.340  69.915  1.00  0.00    -0.223 A  
HETATM   10  C   UNL     1     -11.229   9.235  70.673  1.00  0.00    -0.333 A  
BRANCH   9  11
HETATM   11  C   UNL     1      -9.226   8.820  69.181  1.00  0.00    -0.149 C  
BRANCH  11  12
HETATM   12  N   UNL     1      -9.480  10.024  68.430  1.00  0.00    -0.140 N  
HETATM   13  C   UNL     1      -9.795   9.952  67.094  1.00  0.00    -0.186 C  
HETATM   14  H   UNL     1      -9.425  10.932  68.891  1.00  0.00     0.000 HD 
HETATM   15  O   UNL     1      -9.883   8.896  66.478  1.00  0.00    -0.230 OA 
BRANCH  13  16
HETATM   16  C   UNL     1     -10.008  11.303  66.440  1.00  0.00    -0.252 C  
BRANCH  16  17
HETATM   17  C   UNL     1     -11.466  11.758  66.503  1.00  0.00    -0.325 C  
BRANCH  17  18
HETATM   18  C   UNL     1     -11.610  13.149  67.131  1.00  0.00    -0.410 C  
BRANCH  18  19
HETATM   19  C   UNL     1     -11.287  13.125  68.625  1.00  0.00    -0.327 C  
BRANCH  19  20
HETATM   20  C   UNL     1     -12.100  14.147  69.367  1.00  0.00    -0.372 C  
HETATM   21  C   UNL     1     -12.130  14.254  70.703  1.00  0.00    -0.417 C  
HETATM   22  C   UNL     1     -12.950  15.278  71.447  1.00  0.00    -0.503 C  
HETATM   23  C   UNL     1     -12.035  16.215  72.234  1.00  0.00    -0.637 C  
HETATM   24  C   UNL     1     -13.938  14.580  72.381  1.00  0.00    -0.580 C  
ENDBRANCH  19  20
ENDBRANCH  18  19
ENDBRANCH  17  18
ENDBRANCH  16  17
ENDBRANCH  13  16
ENDBRANCH  11  12
ENDBRANCH   9  11
ENDBRANCH   2   3
TORSDOF 8
ENDMDL
MODEL       70
REMARK 921   NORMALIZED FREE ENERGY PREDICTED BY IDOCK:   -5.15 KCAL/MOL
REMARK 922        TOTAL FREE ENERGY PREDICTED BY IDOCK:   -8.77 KCAL/MOL
REMARK 923 INTER-LIGAND FREE ENERGY PREDICTED BY IDOCK:   -7.85 KCAL/MOL
REMARK 924 INTRA-LIGAND FREE ENERGY PREDICTED BY IDOCK:   -0.92 KCAL/MOL
REMARK 927      BINDING AFFINITY PREDICTED BY RF-SCORE:    0.00 PKD
ROOT
HETATM    1  C   UNL     1     -10.696   6.697  71.801  1.00  0.00    -0.227 C  
HETATM    2  O   UNL     1     -11.875   7.389  72.196  1.00  0.00    -0.283 OA 
ENDROOT
BRANCH   2   3
HETATM    3  C   UNL     1     -12.025   8.666  71.717  1.00  0.00    -0.336 A  
HETATM    4  C   UNL     1     -13.082   9.388  72.282  1.00  0.00    -0.428 A  
HETATM    5  O   UNL     1     -13.889   8.809  73.223  1.00  0.00    -1.115 OA 
HETATM    6  C   UNL     1     -13.355  10.695  71.902  1.00  0.00    -0.454 A  
HETATM    7  C   UNL     1     -12.579  11.289  70.907  1.00  0.00    -0.467 A  
HETATM    8  H   UNL     1     -14.607   9.299  73.607  1.00  0.00     0.000 HD 
HETATM    9  C   UNL     1     -11.541  10.573  70.289  1.00  0.00    -0.417 A  
HETATM   10  C   UNL     1     -11.249   9.269  70.727  1.00  0.00    -0.351 A  
BRANCH   9  11
HETATM   11  C   UNL     1     -10.777  11.188  69.145  1.00  0.00    -0.221 C  
BRANCH  11  12
HETATM   12  N   UNL     1     -10.263  10.191  68.238  1.00  0.00    -0.159 N  
HETATM   13  C   UNL     1      -9.377  10.547  67.249  1.00  0.00    -0.146 C  
HETATM   14  H   UNL     1     -10.556   9.218  68.331  1.00  0.00     0.000 HD 
HETATM   15  O   UNL     1      -8.978  11.695  67.082  1.00  0.00    -0.164 OA 
BRANCH  13  16
HETATM   16  C   UNL     1      -8.949   9.394  66.363  1.00  0.00    -0.182 C  
BRANCH  16  17
HETATM   17  C   UNL     1      -9.556   9.478  64.963  1.00  0.00    -0.218 C  
BRANCH  17  18
HETATM   18  C   UNL     1      -8.643  10.223  63.982  1.00  0.00    -0.194 C  
BRANCH  18  19
HETATM   19  C   UNL     1      -9.446  11.125  63.044  1.00  0.00    -0.386 C  
BRANCH  19  20
HETATM   20  C   UNL     1     -10.662  11.672  63.736  1.00  0.00    -0.482 C  
HETATM   21  C   UNL     1     -10.700  12.862  64.352  1.00  0.00    -0.407 C  
HETATM   22  C   UNL     1     -11.921  13.408  65.051  1.00  0.00    -0.405 C  
HETATM   23  C   UNL     1     -12.389  14.692  64.366  1.00  0.00    -0.420 C  
HETATM   24  C   UNL     1     -11.610  13.666  66.525  1.00  0.00    -0.392 C  
ENDBRANCH  19  20
ENDBRANCH  18  19
ENDBRANCH  17  18
ENDBRANCH  16  17
ENDBRANCH  13  16
ENDBRANCH  11  12
ENDBRANCH   9  11
ENDBRANCH   2   3
TORSDOF 8
ENDMDL
MODEL       71
REMARK 921   NORMALIZED FREE ENERGY PREDICTED BY IDOCK:   -5.14 KCAL/MOL
REMARK 922        TOTAL FREE ENERGY PREDICTED BY IDOCK:   -8.75 KCAL/MOL
REMARK 923 INTER-LIGAND FREE ENERGY PREDICTED BY IDOCK:   -8.19 KCAL/MOL
REMARK 924 INTRA-LIGAND FREE ENERGY PREDICTED BY IDOCK:   -0.56 KCAL/MOL
REMARK 927      BINDING AFFINITY PREDICTED BY RF-SCORE:    0.00 PKD
ROOT
HETATM    1  C   UNL     1     -12.056  14.791  64.701  1.00  0.00    -0.427 C  
HETATM    2  O   UNL     1     -11.137  14.346  65.692  1.00  0.00    -0.306 OA 
ENDROOT
BRANCH   2   3
HETATM    3  C   UNL     1     -11.085  15.078  66.851  1.00  0.00    -0.331 A  
HETATM    4  C   UNL     1     -10.092  16.063  66.883  1.00  0.00    -0.265 A  
HETATM    5  O   UNL     1      -9.249  16.229  65.819  1.00  0.00    -0.439 OA 
HETATM    6  C   UNL     1      -9.920  16.887  67.987  1.00  0.00    -0.279 A  
HETATM    7  C   UNL     1     -10.733  16.703  69.105  1.00  0.00    -0.342 A  
HETATM    8  H   UNL     1      -8.575  16.898  65.839  1.00  0.00     0.000 HD 
HETATM    9  C   UNL     1     -11.706  15.691  69.120  1.00  0.00    -0.402 A  
HETATM   10  C   UNL     1     -11.899  14.903  67.971  1.00  0.00    -0.296 A  
BRANCH   9  11
HETATM   11  C   UNL     1     -12.509  15.434  70.370  1.00  0.00    -0.404 C  
BRANCH  11  12
HETATM   12  N   UNL     1     -12.546  14.033  70.711  1.00  0.00    -0.349 N  
HETATM   13  C   UNL     1     -13.316  13.598  71.763  1.00  0.00    -0.388 C  
HETATM   14  H   UNL     1     -12.000  13.362  70.170  1.00  0.00     0.000 HD 
HETATM   15  O   UNL     1     -14.001  14.347  72.452  1.00  0.00    -0.466 OA 
BRANCH  13  16
HETATM   16  C   UNL     1     -13.231  12.106  72.012  1.00  0.00    -0.496 C  
BRANCH  16  17
HETATM   17  C   UNL     1     -12.471  11.374  70.905  1.00  0.00    -0.478 C  
BRANCH  17  18
HETATM   18  C   UNL     1     -12.923   9.916  70.761  1.00  0.00    -0.277 C  
BRANCH  18  19
HETATM   19  C   UNL     1     -13.098   9.247  72.124  1.00  0.00    -0.520 C  
BRANCH  19  20
HETATM   20  C   UNL     1     -11.962   8.306  72.410  1.00  0.00    -0.447 C  
HETATM   21  C   UNL     1     -11.970   7.005  72.091  1.00  0.00    -0.299 C  
HETATM   22  C   UNL     1     -10.831   6.060  72.384  1.00  0.00    -0.288 C  
HETATM   23  C   UNL     1     -10.252   5.513  71.080  1.00  0.00    -0.287 C  
HETATM   24  C   UNL     1     -11.313   4.919  73.280  1.00  0.00    -0.408 C  
ENDBRANCH  19  20
ENDBRANCH  18  19
ENDBRANCH  17  18
ENDBRANCH  16  17
ENDBRANCH  13  16
ENDBRANCH  11  12
ENDBRANCH   9  11
ENDBRANCH   2   3
TORSDOF 8
ENDMDL
MODEL       72
REMARK 921   NORMALIZED FREE ENERGY PREDICTED BY IDOCK:   -5.14 KCAL/MOL
REMARK 922        TOTAL FREE ENERGY PREDICTED BY IDOCK:   -8.75 KCAL/MOL
REMARK 923 INTER-LIGAND FREE ENERGY PREDICTED BY IDOCK:   -7.75 KCAL/MOL
REMARK 924 INTRA-LIGAND FREE ENERGY PREDICTED BY IDOCK:   -1.00 KCAL/MOL
REMARK 927      BINDING AFFINITY PREDICTED BY RF-SCORE:    0.00 PKD
ROOT
HETATM    1  C   UNL     1     -11.166  14.798  68.128  1.00  0.00    -0.294 C  
HETATM    2  O   UNL     1     -11.982  15.084  69.258  1.00  0.00    -0.307 OA 
ENDROOT
BRANCH   2   3
HETATM    3  C   UNL     1     -12.316  14.019  70.056  1.00  0.00    -0.337 A  
HETATM    4  C   UNL     1     -13.086  14.342  71.179  1.00  0.00    -0.352 A  
HETATM    5  O   UNL     1     -13.434  15.641  71.428  1.00  0.00    -0.500 OA 
HETATM    6  C   UNL     1     -13.506  13.370  72.077  1.00  0.00    -0.584 A  
HETATM    7  C   UNL     1     -13.119  12.045  71.874  1.00  0.00    -0.475 A  
HETATM    8  H   UNL     1     -13.956  15.861  72.190  1.00  0.00     0.000 HD 
HETATM    9  C   UNL     1     -12.308  11.698  70.782  1.00  0.00    -0.454 A  
HETATM   10  C   UNL     1     -11.939  12.691  69.856  1.00  0.00    -0.365 A  
BRANCH   9  11
HETATM   11  C   UNL     1     -11.811  10.284  70.629  1.00  0.00    -0.347 C  
BRANCH  11  12
HETATM   12  N   UNL     1     -11.314  10.023  69.300  1.00  0.00    -0.414 N  
HETATM   13  C   UNL     1     -10.003   9.657  69.112  1.00  0.00    -0.185 C  
HETATM   14  H   UNL     1     -11.938  10.111  68.498  1.00  0.00     0.000 HD 
HETATM   15  O   UNL     1      -9.200   9.528  70.031  1.00  0.00    -0.200 OA 
BRANCH  13  16
HETATM   16  C   UNL     1      -9.627   9.444  67.660  1.00  0.00    -0.163 C  
BRANCH  16  17
HETATM   17  C   UNL     1     -10.521   8.410  66.973  1.00  0.00    -0.375 C  
BRANCH  17  18
HETATM   18  C   UNL     1     -10.075   6.974  67.269  1.00  0.00    -0.265 C  
BRANCH  18  19
HETATM   19  C   UNL     1     -11.033   6.279  68.236  1.00  0.00    -0.408 C  
BRANCH  19  20
HETATM   20  C   UNL     1     -10.459   6.237  69.623  1.00  0.00    -0.295 C  
HETATM   21  C   UNL     1     -11.197   6.294  70.741  1.00  0.00    -0.387 C  
HETATM   22  C   UNL     1     -10.619   6.256  72.134  1.00  0.00    -0.256 C  
HETATM   23  C   UNL     1     -11.114   5.015  72.876  1.00  0.00    -0.348 C  
HETATM   24  C   UNL     1     -11.000   7.527  72.894  1.00  0.00    -0.434 C  
ENDBRANCH  19  20
ENDBRANCH  18  19
ENDBRANCH  17  18
ENDBRANCH  16  17
ENDBRANCH  13  16
ENDBRANCH  11  12
ENDBRANCH   9  11
ENDBRANCH   2   3
TORSDOF 8
ENDMDL
MODEL       73
REMARK 921   NORMALIZED FREE ENERGY PREDICTED BY IDOCK:   -5.14 KCAL/MOL
REMARK 922        TOTAL FREE ENERGY PREDICTED BY IDOCK:   -8.75 KCAL/MOL
REMARK 923 INTER-LIGAND FREE ENERGY PREDICTED BY IDOCK:   -7.57 KCAL/MOL
REMARK 924 INTRA-LIGAND FREE ENERGY PREDICTED BY IDOCK:   -1.17 KCAL/MOL
REMARK 927      BINDING AFFINITY PREDICTED BY RF-SCORE:    0.00 PKD
ROOT
HETATM    1  C   UNL     1     -11.897  14.363  70.344  1.00  0.00    -0.312 C  
HETATM    2  O   UNL     1     -12.031  15.509  69.512  1.00  0.00    -0.343 OA 
ENDROOT
BRANCH   2   3
HETATM    3  C   UNL     1     -11.634  15.367  68.206  1.00  0.00    -0.348 A  
HETATM    4  C   UNL     1     -10.805  16.386  67.727  1.00  0.00    -0.306 A  
HETATM    5  O   UNL     1     -10.462  17.435  68.535  1.00  0.00    -0.353 OA 
HETATM    6  C   UNL     1     -10.318  16.377  66.427  1.00  0.00    -0.319 A  
HETATM    7  C   UNL     1     -10.697  15.346  65.567  1.00  0.00    -0.397 A  
HETATM    8  H   UNL     1      -9.898  18.128  68.210  1.00  0.00     0.000 HD 
HETATM    9  C   UNL     1     -11.566  14.335  66.006  1.00  0.00    -0.362 A  
HETATM   10  C   UNL     1     -12.004  14.335  67.343  1.00  0.00    -0.426 A  
BRANCH   9  11
HETATM   11  C   UNL     1     -12.050  13.283  65.041  1.00  0.00    -0.408 C  
BRANCH  11  12
HETATM   12  N   UNL     1     -11.359  12.029  65.212  1.00  0.00    -0.327 N  
HETATM   13  C   UNL     1     -10.389  11.646  64.317  1.00  0.00    -0.322 C  
HETATM   14  H   UNL     1     -11.590  11.425  66.001  1.00  0.00     0.000 HD 
HETATM   15  O   UNL     1     -10.057  12.325  63.351  1.00  0.00    -0.407 OA 
BRANCH  13  16
HETATM   16  C   UNL     1      -9.774  10.294  64.619  1.00  0.00    -0.398 C  
BRANCH  16  17
HETATM   17  C   UNL     1      -9.982   9.871  66.073  1.00  0.00    -0.338 C  
BRANCH  17  18
HETATM   18  C   UNL     1      -8.898  10.434  66.999  1.00  0.00    -0.143 C  
BRANCH  18  19
HETATM   19  C   UNL     1      -9.504  11.254  68.137  1.00  0.00    -0.184 C  
BRANCH  19  20
HETATM   20  C   UNL     1     -10.620  10.502  68.806  1.00  0.00    -0.233 C  
HETATM   21  C   UNL     1     -10.806  10.464  70.133  1.00  0.00    -0.333 C  
HETATM   22  C   UNL     1     -11.924   9.705  70.803  1.00  0.00    -0.356 C  
HETATM   23  C   UNL     1     -12.844  10.671  71.549  1.00  0.00    -0.567 C  
HETATM   24  C   UNL     1     -11.348   8.662  71.761  1.00  0.00    -0.393 C  
ENDBRANCH  19  20
ENDBRANCH  18  19
ENDBRANCH  17  18
ENDBRANCH  16  17
ENDBRANCH  13  16
ENDBRANCH  11  12
ENDBRANCH   9  11
ENDBRANCH   2   3
TORSDOF 8
ENDMDL
MODEL       74
REMARK 921   NORMALIZED FREE ENERGY PREDICTED BY IDOCK:   -5.13 KCAL/MOL
REMARK 922        TOTAL FREE ENERGY PREDICTED BY IDOCK:   -8.73 KCAL/MOL
REMARK 923 INTER-LIGAND FREE ENERGY PREDICTED BY IDOCK:   -7.63 KCAL/MOL
REMARK 924 INTRA-LIGAND FREE ENERGY PREDICTED BY IDOCK:   -1.10 KCAL/MOL
REMARK 927      BINDING AFFINITY PREDICTED BY RF-SCORE:    0.00 PKD
ROOT
HETATM    1  C   UNL     1     -10.924  16.170  69.402  1.00  0.00    -0.333 C  
HETATM    2  O   UNL     1     -11.729  16.171  70.575  1.00  0.00    -0.352 OA 
ENDROOT
BRANCH   2   3
HETATM    3  C   UNL     1     -12.206  14.954  70.991  1.00  0.00    -0.317 A  
HETATM    4  C   UNL     1     -12.839  14.963  72.239  1.00  0.00    -0.333 A  
HETATM    5  O   UNL     1     -12.929  16.122  72.959  1.00  0.00    -0.467 OA 
HETATM    6  C   UNL     1     -13.377  13.808  72.789  1.00  0.00    -0.519 A  
HETATM    7  C   UNL     1     -13.251  12.602  72.098  1.00  0.00    -0.527 A  
HETATM    8  H   UNL     1     -13.359  16.129  73.806  1.00  0.00     0.000 HD 
HETATM    9  C   UNL     1     -12.580  12.554  70.866  1.00  0.00    -0.331 A  
HETATM   10  C   UNL     1     -12.089  13.746  70.302  1.00  0.00    -0.425 A  
BRANCH   9  11
HETATM   11  C   UNL     1     -12.359  11.232  70.178  1.00  0.00    -0.276 C  
BRANCH  11  12
HETATM   12  N   UNL     1     -11.145  10.587  70.616  1.00  0.00    -0.420 N  
HETATM   13  C   UNL     1     -11.200   9.545  71.510  1.00  0.00    -0.367 C  
HETATM   14  H   UNL     1     -10.243  10.906  70.261  1.00  0.00     0.000 HD 
HETATM   15  O   UNL     1     -12.249   9.108  71.973  1.00  0.00    -0.367 OA 
BRANCH  13  16
HETATM   16  C   UNL     1      -9.842   8.991  71.892  1.00  0.00    -0.283 C  
BRANCH  16  17
HETATM   17  C   UNL     1      -9.947   7.718  72.731  1.00  0.00    -0.321 C  
BRANCH  17  18
HETATM   18  C   UNL     1      -9.601   6.463  71.921  1.00  0.00    -0.160 C  
BRANCH  18  19
HETATM   19  C   UNL     1     -10.855   5.673  71.549  1.00  0.00    -0.297 C  
BRANCH  19  20
HETATM   20  C   UNL     1     -11.320   6.025  70.164  1.00  0.00    -0.351 C  
HETATM   21  C   UNL     1     -10.506   6.449  69.187  1.00  0.00    -0.274 C  
HETATM   22  C   UNL     1     -10.975   6.806  67.798  1.00  0.00    -0.321 C  
HETATM   23  C   UNL     1     -10.339   5.870  66.771  1.00  0.00    -0.302 C  
HETATM   24  C   UNL     1     -10.630   8.262  67.487  1.00  0.00    -0.291 C  
ENDBRANCH  19  20
ENDBRANCH  18  19
ENDBRANCH  17  18
ENDBRANCH  16  17
ENDBRANCH  13  16
ENDBRANCH  11  12
ENDBRANCH   9  11
ENDBRANCH   2   3
TORSDOF 8
ENDMDL
MODEL       75
REMARK 921   NORMALIZED FREE ENERGY PREDICTED BY IDOCK:   -5.12 KCAL/MOL
REMARK 922        TOTAL FREE ENERGY PREDICTED BY IDOCK:   -8.72 KCAL/MOL
REMARK 923 INTER-LIGAND FREE ENERGY PREDICTED BY IDOCK:   -8.07 KCAL/MOL
REMARK 924 INTRA-LIGAND FREE ENERGY PREDICTED BY IDOCK:   -0.66 KCAL/MOL
REMARK 927      BINDING AFFINITY PREDICTED BY RF-SCORE:    0.00 PKD
ROOT
HETATM    1  C   UNL     1     -12.642  12.187  63.488  1.00  0.00    -0.506 C  
HETATM    2  O   UNL     1     -12.331  13.567  63.634  1.00  0.00    -0.687 OA 
ENDROOT
BRANCH   2   3
HETATM    3  C   UNL     1     -11.681  13.930  64.787  1.00  0.00    -0.386 A  
HETATM    4  C   UNL     1     -11.345  15.285  64.875  1.00  0.00    -0.384 A  
HETATM    5  O   UNL     1     -11.648  16.139  63.850  1.00  0.00    -1.369 OA 
HETATM    6  C   UNL     1     -10.689  15.801  65.984  1.00  0.00    -0.311 A  
HETATM    7  C   UNL     1     -10.323  14.940  67.019  1.00  0.00    -0.264 A  
HETATM    8  H   UNL     1     -11.420  17.059  63.910  1.00  0.00     0.000 HD 
HETATM    9  C   UNL     1     -10.604  13.567  66.937  1.00  0.00    -0.270 A  
HETATM   10  C   UNL     1     -11.317  13.075  65.828  1.00  0.00    -0.331 A  
BRANCH   9  11
HETATM   11  C   UNL     1     -10.114  12.631  68.011  1.00  0.00    -0.229 C  
BRANCH  11  12
HETATM   12  N   UNL     1     -11.090  12.445  69.057  1.00  0.00    -0.306 N  
HETATM   13  C   UNL     1     -11.920  11.350  69.042  1.00  0.00    -0.320 C  
HETATM   14  H   UNL     1     -11.163  13.129  69.811  1.00  0.00     0.000 HD 
HETATM   15  O   UNL     1     -11.883  10.488  68.170  1.00  0.00    -0.417 OA 
BRANCH  13  16
HETATM   16  C   UNL     1     -12.905  11.311  70.193  1.00  0.00    -0.007 C  
BRANCH  16  17
HETATM   17  C   UNL     1     -12.322  10.640  71.436  1.00  0.00    -0.455 C  
BRANCH  17  18
HETATM   18  C   UNL     1     -12.448   9.113  71.382  1.00  0.00    -0.396 C  
BRANCH  18  19
HETATM   19  C   UNL     1     -11.128   8.456  70.980  1.00  0.00    -0.298 C  
BRANCH  19  20
HETATM   20  C   UNL     1     -10.063   8.720  72.007  1.00  0.00    -0.397 C  
HETATM   21  C   UNL     1      -9.133   7.825  72.367  1.00  0.00    -0.208 C  
HETATM   22  C   UNL     1      -8.067   8.090  73.402  1.00  0.00    -0.247 C  
HETATM   23  C   UNL     1      -6.681   8.016  72.761  1.00  0.00    -0.090 C  
HETATM   24  C   UNL     1      -8.186   7.084  74.546  1.00  0.00    -0.189 C  
ENDBRANCH  19  20
ENDBRANCH  18  19
ENDBRANCH  17  18
ENDBRANCH  16  17
ENDBRANCH  13  16
ENDBRANCH  11  12
ENDBRANCH   9  11
ENDBRANCH   2   3
TORSDOF 8
ENDMDL
MODEL       76
REMARK 921   NORMALIZED FREE ENERGY PREDICTED BY IDOCK:   -5.12 KCAL/MOL
REMARK 922        TOTAL FREE ENERGY PREDICTED BY IDOCK:   -8.72 KCAL/MOL
REMARK 923 INTER-LIGAND FREE ENERGY PREDICTED BY IDOCK:   -7.81 KCAL/MOL
REMARK 924 INTRA-LIGAND FREE ENERGY PREDICTED BY IDOCK:   -0.91 KCAL/MOL
REMARK 927      BINDING AFFINITY PREDICTED BY RF-SCORE:    0.00 PKD
ROOT
HETATM    1  C   UNL     1     -11.843  15.472  71.638  1.00  0.00    -0.415 C  
HETATM    2  O   UNL     1     -12.911  14.748  71.039  1.00  0.00    -0.327 OA 
ENDROOT
BRANCH   2   3
HETATM    3  C   UNL     1     -12.681  13.421  70.777  1.00  0.00    -0.228 A  
HETATM    4  C   UNL     1     -13.159  12.536  71.750  1.00  0.00    -0.347 A  
HETATM    5  O   UNL     1     -13.783  13.012  72.870  1.00  0.00    -0.679 OA 
HETATM    6  C   UNL     1     -13.006  11.163  71.621  1.00  0.00    -0.548 A  
HETATM    7  C   UNL     1     -12.326  10.655  70.513  1.00  0.00    -0.448 A  
HETATM    8  H   UNL     1     -14.108  12.412  73.530  1.00  0.00     0.000 HD 
HETATM    9  C   UNL     1     -11.794  11.522  69.545  1.00  0.00    -0.419 A  
HETATM   10  C   UNL     1     -12.008  12.907  69.669  1.00  0.00    -0.358 A  
BRANCH   9  11
HETATM   11  C   UNL     1     -10.973  10.971  68.408  1.00  0.00    -0.230 C  
BRANCH  11  12
HETATM   12  N   UNL     1     -11.063   9.534  68.319  1.00  0.00    -0.497 N  
HETATM   13  C   UNL     1     -10.549   8.875  67.228  1.00  0.00    -0.234 C  
HETATM   14  H   UNL     1     -11.509   9.006  69.069  1.00  0.00     0.000 HD 
HETATM   15  O   UNL     1      -9.996   9.447  66.294  1.00  0.00    -0.261 OA 
BRANCH  13  16
HETATM   16  C   UNL     1     -10.743   7.373  67.271  1.00  0.00    -0.379 C  
BRANCH  16  17
HETATM   17  C   UNL     1      -9.804   6.693  68.269  1.00  0.00    -0.137 C  
BRANCH  17  18
HETATM   18  C   UNL     1     -10.567   5.843  69.291  1.00  0.00    -0.379 C  
BRANCH  18  19
HETATM   19  C   UNL     1     -11.781   6.589  69.845  1.00  0.00    -0.349 C  
BRANCH  19  20
HETATM   20  C   UNL     1     -11.672   6.764  71.333  1.00  0.00    -0.371 C  
HETATM   21  C   UNL     1     -10.630   6.340  72.061  1.00  0.00    -0.253 C  
HETATM   22  C   UNL     1     -10.524   6.512  73.557  1.00  0.00    -0.317 C  
HETATM   23  C   UNL     1      -9.327   7.398  73.901  1.00  0.00    -0.318 C  
HETATM   24  C   UNL     1     -10.397   5.147  74.233  1.00  0.00    -0.314 C  
ENDBRANCH  19  20
ENDBRANCH  18  19
ENDBRANCH  17  18
ENDBRANCH  16  17
ENDBRANCH  13  16
ENDBRANCH  11  12
ENDBRANCH   9  11
ENDBRANCH   2   3
TORSDOF 8
ENDMDL
MODEL       77
REMARK 921   NORMALIZED FREE ENERGY PREDICTED BY IDOCK:   -5.11 KCAL/MOL
REMARK 922        TOTAL FREE ENERGY PREDICTED BY IDOCK:   -8.71 KCAL/MOL
REMARK 923 INTER-LIGAND FREE ENERGY PREDICTED BY IDOCK:   -7.49 KCAL/MOL
REMARK 924 INTRA-LIGAND FREE ENERGY PREDICTED BY IDOCK:   -1.22 KCAL/MOL
REMARK 927      BINDING AFFINITY PREDICTED BY RF-SCORE:    0.00 PKD
ROOT
HETATM    1  C   UNL     1     -12.444  15.024  72.163  1.00  0.00    -0.344 C  
HETATM    2  O   UNL     1     -12.786  13.673  71.879  1.00  0.00    -0.324 OA 
ENDROOT
BRANCH   2   3
HETATM    3  C   UNL     1     -12.448  13.205  70.634  1.00  0.00    -0.286 A  
HETATM    4  C   UNL     1     -12.352  11.813  70.533  1.00  0.00    -0.299 A  
HETATM    5  O   UNL     1     -12.567  11.024  71.629  1.00  0.00    -0.358 OA 
HETATM    6  C   UNL     1     -12.024  11.192  69.335  1.00  0.00    -0.420 A  
HETATM    7  C   UNL     1     -11.748  11.977  68.216  1.00  0.00    -0.396 A  
HETATM    8  H   UNL     1     -12.501  10.079  71.561  1.00  0.00     0.000 HD 
HETATM    9  C   UNL     1     -11.791  13.378  68.299  1.00  0.00    -0.393 A  
HETATM   10  C   UNL     1     -12.178  13.984  69.509  1.00  0.00    -0.355 A  
BRANCH   9  11
HETATM   11  C   UNL     1     -11.392  14.218  67.114  1.00  0.00    -0.337 C  
BRANCH  11  12
HETATM   12  N   UNL     1     -11.203  13.425  65.925  1.00  0.00    -0.298 N  
HETATM   13  C   UNL     1     -12.204  13.334  64.987  1.00  0.00    -0.432 C  
HETATM   14  H   UNL     1     -10.323  12.929  65.778  1.00  0.00     0.000 HD 
HETATM   15  O   UNL     1     -13.283  13.907  65.096  1.00  0.00    -0.768 OA 
BRANCH  13  16
HETATM   16  C   UNL     1     -11.863  12.444  63.809  1.00  0.00    -0.587 C  
BRANCH  16  17
HETATM   17  C   UNL     1     -10.375  12.099  63.750  1.00  0.00    -0.465 C  
BRANCH  17  18
HETATM   18  C   UNL     1     -10.121  10.604  63.973  1.00  0.00    -0.378 C  
BRANCH  18  19
HETATM   19  C   UNL     1     -10.050  10.264  65.461  1.00  0.00    -0.351 C  
BRANCH  19  20
HETATM   20  C   UNL     1      -8.873  10.936  66.110  1.00  0.00    -0.195 C  
HETATM   21  C   UNL     1      -8.866  11.375  67.377  1.00  0.00    -0.150 C  
HETATM   22  C   UNL     1      -7.685  12.054  68.025  1.00  0.00    -0.132 C  
HETATM   23  C   UNL     1      -7.178  11.218  69.200  1.00  0.00    -0.115 C  
HETATM   24  C   UNL     1      -8.077  13.456  68.490  1.00  0.00    -0.105 C  
ENDBRANCH  19  20
ENDBRANCH  18  19
ENDBRANCH  17  18
ENDBRANCH  16  17
ENDBRANCH  13  16
ENDBRANCH  11  12
ENDBRANCH   9  11
ENDBRANCH   2   3
TORSDOF 8
ENDMDL
MODEL       78
REMARK 921   NORMALIZED FREE ENERGY PREDICTED BY IDOCK:   -5.10 KCAL/MOL
REMARK 922        TOTAL FREE ENERGY PREDICTED BY IDOCK:   -8.69 KCAL/MOL
REMARK 923 INTER-LIGAND FREE ENERGY PREDICTED BY IDOCK:   -6.96 KCAL/MOL
REMARK 924 INTRA-LIGAND FREE ENERGY PREDICTED BY IDOCK:   -1.73 KCAL/MOL
REMARK 927      BINDING AFFINITY PREDICTED BY RF-SCORE:    0.00 PKD
ROOT
HETATM    1  C   UNL     1     -12.127  13.429  63.799  1.00  0.00    -0.456 C  
HETATM    2  O   UNL     1     -11.927  13.914  65.121  1.00  0.00    -0.350 OA 
ENDROOT
BRANCH   2   3
HETATM    3  C   UNL     1     -11.124  13.156  65.936  1.00  0.00    -0.278 A  
HETATM    4  C   UNL     1      -9.847  13.681  66.161  1.00  0.00    -0.293 A  
HETATM    5  O   UNL     1      -9.470  14.856  65.571  1.00  0.00    -0.467 OA 
HETATM    6  C   UNL     1      -8.925  13.029  66.969  1.00  0.00    -0.225 A  
HETATM    7  C   UNL     1      -9.267  11.803  67.539  1.00  0.00    -0.175 A  
HETATM    8  H   UNL     1      -8.603  15.213  65.724  1.00  0.00     0.000 HD 
HETATM    9  C   UNL     1     -10.525  11.229  67.293  1.00  0.00    -0.249 A  
HETATM   10  C   UNL     1     -11.463  11.932  66.515  1.00  0.00    -0.381 A  
BRANCH   9  11
HETATM   11  C   UNL     1     -10.847   9.858  67.829  1.00  0.00    -0.264 C  
BRANCH  11  12
HETATM   12  N   UNL     1     -11.608   9.918  69.053  1.00  0.00    -0.474 N  
HETATM   13  C   UNL     1     -10.971   9.834  70.268  1.00  0.00    -0.298 C  
HETATM   14  H   UNL     1     -12.622  10.024  69.016  1.00  0.00     0.000 HD 
HETATM   15  O   UNL     1      -9.756   9.711  70.385  1.00  0.00    -0.250 OA 
BRANCH  13  16
HETATM   16  C   UNL     1     -11.909   9.887  71.457  1.00  0.00    -0.445 C  
BRANCH  16  17
HETATM   17  C   UNL     1     -13.092  10.827  71.224  1.00  0.00    -0.427 C  
BRANCH  17  18
HETATM   18  C   UNL     1     -12.731  12.290  71.503  1.00  0.00    -0.339 C  
BRANCH  18  19
HETATM   19  C   UNL     1     -12.761  13.127  70.225  1.00  0.00    -0.012 C  
BRANCH  19  20
HETATM   20  C   UNL     1     -11.887  14.342  70.357  1.00  0.00    -0.375 C  
HETATM   21  C   UNL     1     -11.048  14.767  69.403  1.00  0.00    -0.302 C  
HETATM   22  C   UNL     1     -10.167  15.985  69.539  1.00  0.00    -0.274 C  
HETATM   23  C   UNL     1     -10.549  17.031  68.492  1.00  0.00    -0.370 C  
HETATM   24  C   UNL     1      -8.698  15.587  69.393  1.00  0.00    -0.258 C  
ENDBRANCH  19  20
ENDBRANCH  18  19
ENDBRANCH  17  18
ENDBRANCH  16  17
ENDBRANCH  13  16
ENDBRANCH  11  12
ENDBRANCH   9  11
ENDBRANCH   2   3
TORSDOF 8
ENDMDL
MODEL       79
REMARK 921   NORMALIZED FREE ENERGY PREDICTED BY IDOCK:   -5.07 KCAL/MOL
REMARK 922        TOTAL FREE ENERGY PREDICTED BY IDOCK:   -8.65 KCAL/MOL
REMARK 923 INTER-LIGAND FREE ENERGY PREDICTED BY IDOCK:   -6.97 KCAL/MOL
REMARK 924 INTRA-LIGAND FREE ENERGY PREDICTED BY IDOCK:   -1.68 KCAL/MOL
REMARK 927      BINDING AFFINITY PREDICTED BY RF-SCORE:    0.00 PKD
ROOT
HETATM    1  C   UNL     1     -14.111   8.805  72.115  1.00  0.00    -0.450 C  
HETATM    2  O   UNL     1     -12.733   8.910  72.448  1.00  0.00    -0.388 OA 
ENDROOT
BRANCH   2   3
HETATM    3  C   UNL     1     -11.911   9.450  71.490  1.00  0.00    -0.382 A  
HETATM    4  C   UNL     1     -10.620   8.914  71.449  1.00  0.00    -0.303 A  
HETATM    5  O   UNL     1     -10.248   7.941  72.335  1.00  0.00    -0.221 OA 
HETATM    6  C   UNL     1      -9.678   9.356  70.530  1.00  0.00    -0.331 A  
HETATM    7  C   UNL     1     -10.016  10.384  69.651  1.00  0.00    -0.209 A  
HETATM    8  H   UNL     1      -9.371   7.576  72.307  1.00  0.00     0.000 HD 
HETATM    9  C   UNL     1     -11.290  10.974  69.700  1.00  0.00    -0.363 A  
HETATM   10  C   UNL     1     -12.246  10.474  70.603  1.00  0.00    -0.446 A  
BRANCH   9  11
HETATM   11  C   UNL     1     -11.611  12.152  68.817  1.00  0.00    -0.327 C  
BRANCH  11  12
HETATM   12  N   UNL     1     -11.650  11.791  67.421  1.00  0.00    -0.306 N  
HETATM   13  C   UNL     1     -11.017  12.575  66.486  1.00  0.00    -0.266 C  
HETATM   14  H   UNL     1     -12.147  10.950  67.127  1.00  0.00     0.000 HD 
HETATM   15  O   UNL     1     -10.397  13.595  66.770  1.00  0.00    -0.263 OA 
BRANCH  13  16
HETATM   16  C   UNL     1     -11.169  12.077  65.063  1.00  0.00    -0.374 C  
BRANCH  16  17
HETATM   17  C   UNL     1     -10.659  10.647  64.889  1.00  0.00    -0.192 C  
BRANCH  17  18
HETATM   18  C   UNL     1      -9.131  10.563  64.986  1.00  0.00    -0.231 C  
BRANCH  18  19
HETATM   19  C   UNL     1      -8.692   9.553  66.045  1.00  0.00    -0.166 C  
BRANCH  19  20
HETATM   20  C   UNL     1      -9.802   8.593  66.364  1.00  0.00    -0.341 C  
HETATM   21  C   UNL     1      -9.615   7.395  66.936  1.00  0.00    -0.240 C  
HETATM   22  C   UNL     1     -10.730   6.430  67.252  1.00  0.00    -0.426 C  
HETATM   23  C   UNL     1     -10.814   6.198  68.760  1.00  0.00    -0.402 C  
HETATM   24  C   UNL     1     -10.505   5.109  66.515  1.00  0.00    -0.346 C  
ENDBRANCH  19  20
ENDBRANCH  18  19
ENDBRANCH  17  18
ENDBRANCH  16  17
ENDBRANCH  13  16
ENDBRANCH  11  12
ENDBRANCH   9  11
ENDBRANCH   2   3
TORSDOF 8
ENDMDL
MODEL       80
REMARK 921   NORMALIZED FREE ENERGY PREDICTED BY IDOCK:   -5.03 KCAL/MOL
REMARK 922        TOTAL FREE ENERGY PREDICTED BY IDOCK:   -8.59 KCAL/MOL
REMARK 923 INTER-LIGAND FREE ENERGY PREDICTED BY IDOCK:   -7.56 KCAL/MOL
REMARK 924 INTRA-LIGAND FREE ENERGY PREDICTED BY IDOCK:   -1.03 KCAL/MOL
REMARK 927      BINDING AFFINITY PREDICTED BY RF-SCORE:    0.00 PKD
ROOT
HETATM    1  C   UNL     1     -12.369  15.803  72.202  1.00  0.00    -0.456 C  
HETATM    2  O   UNL     1     -12.820  15.728  70.855  1.00  0.00    -0.468 OA 
ENDROOT
BRANCH   2   3
HETATM    3  C   UNL     1     -12.142  14.867  70.029  1.00  0.00    -0.338 A  
HETATM    4  C   UNL     1     -11.169  15.466  69.222  1.00  0.00    -0.296 A  
HETATM    5  O   UNL     1     -10.963  16.817  69.276  1.00  0.00    -0.294 OA 
HETATM    6  C   UNL     1     -10.398  14.722  68.340  1.00  0.00    -0.233 A  
HETATM    7  C   UNL     1     -10.626  13.350  68.228  1.00  0.00    -0.264 A  
HETATM    8  H   UNL     1     -10.302  17.224  68.728  1.00  0.00     0.000 HD 
HETATM    9  C   UNL     1     -11.628  12.730  68.991  1.00  0.00    -0.366 A  
HETATM   10  C   UNL     1     -12.361  13.494  69.918  1.00  0.00    -0.287 A  
BRANCH   9  11
HETATM   11  C   UNL     1     -11.935  11.268  68.789  1.00  0.00    -0.282 C  
BRANCH  11  12
HETATM   12  N   UNL     1     -12.473  10.656  69.979  1.00  0.00    -0.478 N  
HETATM   13  C   UNL     1     -11.647   9.973  70.839  1.00  0.00    -0.378 C  
HETATM   14  H   UNL     1     -13.469  10.732  70.184  1.00  0.00     0.000 HD 
HETATM   15  O   UNL     1     -10.440   9.848  70.658  1.00  0.00    -0.292 OA 
BRANCH  13  16
HETATM   16  C   UNL     1     -12.364   9.367  72.029  1.00  0.00    -0.418 C  
BRANCH  16  17
HETATM   17  C   UNL     1     -11.695   8.083  72.520  1.00  0.00    -0.446 C  
BRANCH  17  18
HETATM   18  C   UNL     1     -12.266   6.836  71.835  1.00  0.00    -0.377 C  
BRANCH  18  19
HETATM   19  C   UNL     1     -11.182   5.788  71.587  1.00  0.00    -0.258 C  
BRANCH  19  20
HETATM   20  C   UNL     1     -10.427   6.086  70.322  1.00  0.00    -0.305 C  
HETATM   21  C   UNL     1     -11.013   6.359  69.148  1.00  0.00    -0.416 C  
HETATM   22  C   UNL     1     -10.253   6.653  67.878  1.00  0.00    -0.203 C  
HETATM   23  C   UNL     1     -10.553   8.074  67.402  1.00  0.00    -0.337 C  
HETATM   24  C   UNL     1     -10.622   5.634  66.800  1.00  0.00    -0.372 C  
ENDBRANCH  19  20
ENDBRANCH  18  19
ENDBRANCH  17  18
ENDBRANCH  16  17
ENDBRANCH  13  16
ENDBRANCH  11  12
ENDBRANCH   9  11
ENDBRANCH   2   3
TORSDOF 8
ENDMDL
MODEL       81
REMARK 921   NORMALIZED FREE ENERGY PREDICTED BY IDOCK:   -5.03 KCAL/MOL
REMARK 922        TOTAL FREE ENERGY PREDICTED BY IDOCK:   -8.59 KCAL/MOL
REMARK 923 INTER-LIGAND FREE ENERGY PREDICTED BY IDOCK:   -6.99 KCAL/MOL
REMARK 924 INTRA-LIGAND FREE ENERGY PREDICTED BY IDOCK:   -1.60 KCAL/MOL
REMARK 927      BINDING AFFINITY PREDICTED BY RF-SCORE:    0.00 PKD
ROOT
HETATM    1  C   UNL     1      -8.900   7.796  65.885  1.00  0.00    -0.142 C  
HETATM    2  O   UNL     1      -9.595   9.006  65.607  1.00  0.00    -0.247 OA 
ENDROOT
BRANCH   2   3
HETATM    3  C   UNL     1      -9.714   9.896  66.644  1.00  0.00    -0.198 A  
HETATM    4  C   UNL     1      -8.881  11.017  66.559  1.00  0.00    -0.169 A  
HETATM    5  O   UNL     1      -8.015  11.156  65.510  1.00  0.00    -0.365 OA 
HETATM    6  C   UNL     1      -8.893  12.007  67.532  1.00  0.00    -0.172 A  
HETATM    7  C   UNL     1      -9.729  11.863  68.639  1.00  0.00    -0.116 A  
HETATM    8  H   UNL     1      -7.449  11.916  65.451  1.00  0.00     0.000 HD 
HETATM    9  C   UNL     1     -10.542  10.726  68.774  1.00  0.00    -0.229 A  
HETATM   10  C   UNL     1     -10.553   9.761  67.751  1.00  0.00    -0.320 A  
BRANCH   9  11
HETATM   11  C   UNL     1     -11.364  10.530  70.022  1.00  0.00    -0.318 C  
BRANCH  11  12
HETATM   12  N   UNL     1     -11.903  11.773  70.518  1.00  0.00    -0.500 N  
HETATM   13  C   UNL     1     -12.826  11.768  71.536  1.00  0.00    -0.345 C  
HETATM   14  H   UNL     1     -11.597  12.657  70.113  1.00  0.00     0.000 HD 
HETATM   15  O   UNL     1     -13.234  10.743  72.073  1.00  0.00    -0.484 OA 
BRANCH  13  16
HETATM   16  C   UNL     1     -13.315  13.149  71.928  1.00  0.00    -0.546 C  
BRANCH  16  17
HETATM   17  C   UNL     1     -12.325  14.248  71.543  1.00  0.00    -0.417 C  
BRANCH  17  18
HETATM   18  C   UNL     1     -12.804  15.059  70.334  1.00  0.00    -0.332 C  
BRANCH  18  19
HETATM   19  C   UNL     1     -11.657  15.839  69.692  1.00  0.00    -0.363 C  
BRANCH  19  20
HETATM   20  C   UNL     1     -11.141  15.130  68.472  1.00  0.00    -0.281 C  
HETATM   21  C   UNL     1     -11.890  14.853  67.395  1.00  0.00    -0.245 C  
HETATM   22  C   UNL     1     -11.372  14.137  66.173  1.00  0.00    -0.337 C  
HETATM   23  C   UNL     1     -11.454  15.052  64.952  1.00  0.00    -0.399 C  
HETATM   24  C   UNL     1     -12.170  12.854  65.940  1.00  0.00    -0.469 C  
ENDBRANCH  19  20
ENDBRANCH  18  19
ENDBRANCH  17  18
ENDBRANCH  16  17
ENDBRANCH  13  16
ENDBRANCH  11  12
ENDBRANCH   9  11
ENDBRANCH   2   3
TORSDOF 8
ENDMDL
MODEL       82
REMARK 921   NORMALIZED FREE ENERGY PREDICTED BY IDOCK:   -5.03 KCAL/MOL
REMARK 922        TOTAL FREE ENERGY PREDICTED BY IDOCK:   -8.58 KCAL/MOL
REMARK 923 INTER-LIGAND FREE ENERGY PREDICTED BY IDOCK:   -7.84 KCAL/MOL
REMARK 924 INTRA-LIGAND FREE ENERGY PREDICTED BY IDOCK:   -0.74 KCAL/MOL
REMARK 927      BINDING AFFINITY PREDICTED BY RF-SCORE:    0.00 PKD
ROOT
HETATM    1  C   UNL     1     -14.282   8.740  71.902  1.00  0.00    -0.389 C  
HETATM    2  O   UNL     1     -13.126   8.597  72.719  1.00  0.00    -0.304 OA 
ENDROOT
BRANCH   2   3
HETATM    3  C   UNL     1     -11.913   8.686  72.085  1.00  0.00    -0.379 A  
HETATM    4  C   UNL     1     -10.896   7.904  72.642  1.00  0.00    -0.364 A  
HETATM    5  O   UNL     1     -11.140   7.141  73.750  1.00  0.00    -0.537 OA 
HETATM    6  C   UNL     1      -9.615   7.887  72.106  1.00  0.00    -0.255 A  
HETATM    7  C   UNL     1      -9.327   8.697  71.008  1.00  0.00    -0.254 A  
HETATM    8  H   UNL     1     -10.450   6.609  74.129  1.00  0.00     0.000 HD 
HETATM    9  C   UNL     1     -10.315   9.528  70.457  1.00  0.00    -0.350 A  
HETATM   10  C   UNL     1     -11.620   9.490  70.982  1.00  0.00    -0.419 A  
BRANCH   9  11
HETATM   11  C   UNL     1      -9.967  10.475  69.337  1.00  0.00    -0.196 C  
BRANCH  11  12
HETATM   12  N   UNL     1     -10.631  11.748  69.477  1.00  0.00    -0.437 N  
HETATM   13  C   UNL     1     -11.533  12.165  68.528  1.00  0.00    -0.300 C  
HETATM   14  H   UNL     1     -10.430  12.341  70.283  1.00  0.00     0.000 HD 
HETATM   15  O   UNL     1     -11.826  11.502  67.539  1.00  0.00    -0.605 OA 
BRANCH  13  16
HETATM   16  C   UNL     1     -12.125  13.533  68.803  1.00  0.00    -0.305 C  
BRANCH  16  17
HETATM   17  C   UNL     1     -12.173  13.858  70.297  1.00  0.00    -0.428 C  
BRANCH  17  18
HETATM   18  C   UNL     1     -12.290  15.364  70.556  1.00  0.00    -0.452 C  
BRANCH  18  19
HETATM   19  C   UNL     1     -10.947  16.070  70.374  1.00  0.00    -0.347 C  
BRANCH  19  20
HETATM   20  C   UNL     1     -10.879  16.762  69.042  1.00  0.00    -0.291 C  
HETATM   21  C   UNL     1     -10.103  16.357  68.027  1.00  0.00    -0.248 C  
HETATM   22  C   UNL     1     -10.033  17.056  66.691  1.00  0.00    -0.307 C  
HETATM   23  C   UNL     1     -10.521  16.124  65.583  1.00  0.00    -0.402 C  
HETATM   24  C   UNL     1      -8.603  17.518  66.416  1.00  0.00    -0.273 C  
ENDBRANCH  19  20
ENDBRANCH  18  19
ENDBRANCH  17  18
ENDBRANCH  16  17
ENDBRANCH  13  16
ENDBRANCH  11  12
ENDBRANCH   9  11
ENDBRANCH   2   3
TORSDOF 8
ENDMDL
MODEL       83
REMARK 921   NORMALIZED FREE ENERGY PREDICTED BY IDOCK:   -5.02 KCAL/MOL
REMARK 922        TOTAL FREE ENERGY PREDICTED BY IDOCK:   -8.58 KCAL/MOL
REMARK 923 INTER-LIGAND FREE ENERGY PREDICTED BY IDOCK:   -8.04 KCAL/MOL
REMARK 924 INTRA-LIGAND FREE ENERGY PREDICTED BY IDOCK:   -0.55 KCAL/MOL
REMARK 927      BINDING AFFINITY PREDICTED BY RF-SCORE:    0.00 PKD
ROOT
HETATM    1  C   UNL     1     -11.562   5.933  72.404  1.00  0.00    -0.288 C  
HETATM    2  O   UNL     1     -11.454   6.301  71.034  1.00  0.00    -0.319 OA 
ENDROOT
BRANCH   2   3
HETATM    3  C   UNL     1     -11.516   7.642  70.754  1.00  0.00    -0.277 A  
HETATM    4  C   UNL     1     -10.656   8.073  69.738  1.00  0.00    -0.238 A  
HETATM    5  O   UNL     1      -9.821   7.186  69.117  1.00  0.00    -0.157 OA 
HETATM    6  C   UNL     1     -10.610   9.403  69.339  1.00  0.00    -0.235 A  
HETATM    7  C   UNL     1     -11.414  10.337  69.993  1.00  0.00    -0.367 A  
HETATM    8  H   UNL     1      -9.237   7.478  68.427  1.00  0.00     0.000 HD 
HETATM    9  C   UNL     1     -12.252   9.941  71.048  1.00  0.00    -0.446 A  
HETATM   10  C   UNL     1     -12.322   8.581  71.399  1.00  0.00    -0.332 A  
BRANCH   9  11
HETATM   11  C   UNL     1     -13.038  10.973  71.815  1.00  0.00    -0.449 C  
BRANCH  11  12
HETATM   12  N   UNL     1     -12.689  12.318  71.430  1.00  0.00    -0.315 N  
HETATM   13  C   UNL     1     -13.403  13.385  71.922  1.00  0.00    -0.451 C  
HETATM   14  H   UNL     1     -11.910  12.479  70.792  1.00  0.00     0.000 HD 
HETATM   15  O   UNL     1     -14.346  13.266  72.696  1.00  0.00    -0.679 OA 
BRANCH  13  16
HETATM   16  C   UNL     1     -12.931  14.730  71.406  1.00  0.00    -0.413 C  
BRANCH  16  17
HETATM   17  C   UNL     1     -11.801  14.598  70.384  1.00  0.00    -0.365 C  
BRANCH  17  18
HETATM   18  C   UNL     1     -11.780  15.766  69.392  1.00  0.00    -0.379 C  
BRANCH  18  19
HETATM   19  C   UNL     1     -10.351  16.179  69.044  1.00  0.00    -0.258 C  
BRANCH  19  20
HETATM   20  C   UNL     1     -10.278  17.644  68.719  1.00  0.00    -0.373 C  
HETATM   21  C   UNL     1      -9.726  18.136  67.601  1.00  0.00    -0.293 C  
HETATM   22  C   UNL     1      -9.650  19.608  67.278  1.00  0.00    -0.459 C  
HETATM   23  C   UNL     1     -10.449  19.911  66.011  1.00  0.00    -0.580 C  
HETATM   24  C   UNL     1      -8.191  20.033  67.110  1.00  0.00    -0.365 C  
ENDBRANCH  19  20
ENDBRANCH  18  19
ENDBRANCH  17  18
ENDBRANCH  16  17
ENDBRANCH  13  16
ENDBRANCH  11  12
ENDBRANCH   9  11
ENDBRANCH   2   3
TORSDOF 8
ENDMDL
MODEL       84
REMARK 921   NORMALIZED FREE ENERGY PREDICTED BY IDOCK:   -5.02 KCAL/MOL
REMARK 922        TOTAL FREE ENERGY PREDICTED BY IDOCK:   -8.58 KCAL/MOL
REMARK 923 INTER-LIGAND FREE ENERGY PREDICTED BY IDOCK:   -7.76 KCAL/MOL
REMARK 924 INTRA-LIGAND FREE ENERGY PREDICTED BY IDOCK:   -0.82 KCAL/MOL
REMARK 927      BINDING AFFINITY PREDICTED BY RF-SCORE:    0.00 PKD
ROOT
HETATM    1  C   UNL     1     -12.171  13.164  63.545  1.00  0.00    -0.476 C  
HETATM    2  O   UNL     1     -11.099  12.240  63.406  1.00  0.00    -0.443 OA 
ENDROOT
BRANCH   2   3
HETATM    3  C   UNL     1     -10.332  12.019  64.522  1.00  0.00    -0.296 A  
HETATM    4  C   UNL     1      -9.693  10.775  64.562  1.00  0.00    -0.295 A  
HETATM    5  O   UNL     1      -9.870   9.874  63.549  1.00  0.00    -0.495 OA 
HETATM    6  C   UNL     1      -8.879  10.410  65.626  1.00  0.00    -0.190 A  
HETATM    7  C   UNL     1      -8.725  11.290  66.697  1.00  0.00    -0.174 A  
HETATM    8  H   UNL     1      -9.436   9.030  63.575  1.00  0.00     0.000 HD 
HETATM    9  C   UNL     1      -9.391  12.526  66.706  1.00  0.00    -0.230 A  
HETATM   10  C   UNL     1     -10.169  12.898  65.594  1.00  0.00    -0.295 A  
BRANCH   9  11
HETATM   11  C   UNL     1      -9.301  13.425  67.912  1.00  0.00    -0.216 C  
BRANCH  11  12
HETATM   12  N   UNL     1     -10.236  13.046  68.943  1.00  0.00    -0.435 N  
HETATM   13  C   UNL     1     -11.422  13.727  69.085  1.00  0.00    -0.298 C  
HETATM   14  H   UNL     1     -10.017  12.270  69.568  1.00  0.00     0.000 HD 
HETATM   15  O   UNL     1     -11.751  14.664  68.366  1.00  0.00    -0.304 OA 
BRANCH  13  16
HETATM   16  C   UNL     1     -12.284  13.227  70.227  1.00  0.00    -0.391 C  
BRANCH  16  17
HETATM   17  C   UNL     1     -12.182  11.713  70.414  1.00  0.00    -0.434 C  
BRANCH  17  18
HETATM   18  C   UNL     1     -12.914  11.236  71.674  1.00  0.00    -0.537 C  
BRANCH  18  19
HETATM   19  C   UNL     1     -13.266   9.751  71.589  1.00  0.00    -0.514 C  
BRANCH  19  20
HETATM   20  C   UNL     1     -12.054   8.931  71.248  1.00  0.00    -0.360 C  
HETATM   21  C   UNL     1     -12.073   7.600  71.087  1.00  0.00    -0.322 C  
HETATM   22  C   UNL     1     -10.855   6.777  70.749  1.00  0.00    -0.291 C  
HETATM   23  C   UNL     1     -11.038   6.099  69.392  1.00  0.00    -0.479 C  
HETATM   24  C   UNL     1     -10.605   5.738  71.842  1.00  0.00    -0.285 C  
ENDBRANCH  19  20
ENDBRANCH  18  19
ENDBRANCH  17  18
ENDBRANCH  16  17
ENDBRANCH  13  16
ENDBRANCH  11  12
ENDBRANCH   9  11
ENDBRANCH   2   3
TORSDOF 8
ENDMDL
MODEL       85
REMARK 921   NORMALIZED FREE ENERGY PREDICTED BY IDOCK:   -5.02 KCAL/MOL
REMARK 922        TOTAL FREE ENERGY PREDICTED BY IDOCK:   -8.57 KCAL/MOL
REMARK 923 INTER-LIGAND FREE ENERGY PREDICTED BY IDOCK:   -7.02 KCAL/MOL
REMARK 924 INTRA-LIGAND FREE ENERGY PREDICTED BY IDOCK:   -1.55 KCAL/MOL
REMARK 927      BINDING AFFINITY PREDICTED BY RF-SCORE:    0.00 PKD
ROOT
HETATM    1  C   UNL     1     -11.818  12.883  64.374  1.00  0.00    -0.383 C  
HETATM    2  O   UNL     1     -12.344  12.390  65.600  1.00  0.00    -0.639 OA 
ENDROOT
BRANCH   2   3
HETATM    3  C   UNL     1     -11.942  13.036  66.742  1.00  0.00    -0.369 A  
HETATM    4  C   UNL     1     -11.740  12.206  67.850  1.00  0.00    -0.336 A  
HETATM    5  O   UNL     1     -11.962  10.860  67.754  1.00  0.00    -0.691 OA 
HETATM    6  C   UNL     1     -11.328  12.714  69.074  1.00  0.00    -0.345 A  
HETATM    7  C   UNL     1     -11.146  14.090  69.212  1.00  0.00    -0.271 A  
HETATM    8  H   UNL     1     -11.825  10.296  68.506  1.00  0.00     0.000 HD 
HETATM    9  C   UNL     1     -11.386  14.953  68.130  1.00  0.00    -0.326 A  
HETATM   10  C   UNL     1     -11.752  14.411  66.885  1.00  0.00    -0.422 A  
BRANCH   9  11
HETATM   11  C   UNL     1     -11.286  16.445  68.318  1.00  0.00    -0.241 C  
BRANCH  11  12
HETATM   12  N   UNL     1     -10.467  17.066  67.306  1.00  0.00    -0.316 N  
HETATM   13  C   UNL     1     -10.331  18.433  67.269  1.00  0.00    -0.392 C  
HETATM   14  H   UNL     1      -9.986  16.489  66.616  1.00  0.00     0.000 HD 
HETATM   15  O   UNL     1     -10.876  19.187  68.070  1.00  0.00    -0.298 OA 
BRANCH  13  16
HETATM   16  C   UNL     1      -9.460  18.934  66.134  1.00  0.00    -0.235 C  
BRANCH  16  17
HETATM   17  C   UNL     1      -8.383  19.907  66.613  1.00  0.00    -0.369 C  
BRANCH  17  18
HETATM   18  C   UNL     1      -7.207  19.184  67.281  1.00  0.00    -0.231 C  
BRANCH  18  19
HETATM   19  C   UNL     1      -6.420  18.346  66.273  1.00  0.00    -0.245 C  
BRANCH  19  20
HETATM   20  C   UNL     1      -6.228  16.943  66.775  1.00  0.00    -0.228 C  
HETATM   21  C   UNL     1      -7.173  16.243  67.418  1.00  0.00    -0.200 C  
HETATM   22  C   UNL     1      -6.977  14.836  67.926  1.00  0.00    -0.173 C  
HETATM   23  C   UNL     1      -7.940  13.882  67.220  1.00  0.00    -0.147 C  
HETATM   24  C   UNL     1      -7.186  14.791  69.439  1.00  0.00    -0.168 C  
ENDBRANCH  19  20
ENDBRANCH  18  19
ENDBRANCH  17  18
ENDBRANCH  16  17
ENDBRANCH  13  16
ENDBRANCH  11  12
ENDBRANCH   9  11
ENDBRANCH   2   3
TORSDOF 8
ENDMDL
MODEL       86
REMARK 921   NORMALIZED FREE ENERGY PREDICTED BY IDOCK:   -5.02 KCAL/MOL
REMARK 922        TOTAL FREE ENERGY PREDICTED BY IDOCK:   -8.57 KCAL/MOL
REMARK 923 INTER-LIGAND FREE ENERGY PREDICTED BY IDOCK:   -7.78 KCAL/MOL
REMARK 924 INTRA-LIGAND FREE ENERGY PREDICTED BY IDOCK:   -0.79 KCAL/MOL
REMARK 927      BINDING AFFINITY PREDICTED BY RF-SCORE:    0.00 PKD
ROOT
HETATM    1  C   UNL     1      -9.603  17.197  66.845  1.00  0.00    -0.262 C  
HETATM    2  O   UNL     1     -10.033  16.581  65.638  1.00  0.00    -0.497 OA 
ENDROOT
BRANCH   2   3
HETATM    3  C   UNL     1     -10.717  15.398  65.764  1.00  0.00    -0.351 A  
HETATM    4  C   UNL     1     -11.648  15.143  64.751  1.00  0.00    -0.364 A  
HETATM    5  O   UNL     1     -11.839  16.049  63.745  1.00  0.00    -1.334 OA 
HETATM    6  C   UNL     1     -12.411  13.983  64.741  1.00  0.00    -0.437 A  
HETATM    7  C   UNL     1     -12.272  13.068  65.784  1.00  0.00    -0.511 A  
HETATM    8  H   UNL     1     -12.471  15.876  63.057  1.00  0.00     0.000 HD 
HETATM    9  C   UNL     1     -11.380  13.320  66.838  1.00  0.00    -0.351 A  
HETATM   10  C   UNL     1     -10.578  14.475  66.802  1.00  0.00    -0.276 A  
BRANCH   9  11
HETATM   11  C   UNL     1     -11.312  12.377  68.012  1.00  0.00    -0.287 C  
BRANCH  11  12
HETATM   12  N   UNL     1     -11.195  11.000  67.597  1.00  0.00    -0.301 N  
HETATM   13  C   UNL     1      -9.962  10.468  67.304  1.00  0.00    -0.186 C  
HETATM   14  H   UNL     1     -12.031  10.420  67.520  1.00  0.00     0.000 HD 
HETATM   15  O   UNL     1      -8.918  11.106  67.380  1.00  0.00    -0.138 OA 
BRANCH  13  16
HETATM   16  C   UNL     1     -10.008   9.020  66.859  1.00  0.00    -0.313 C  
BRANCH  16  17
HETATM   17  C   UNL     1      -8.896   8.182  67.489  1.00  0.00    -0.137 C  
BRANCH  17  18
HETATM   18  C   UNL     1      -9.383   6.785  67.890  1.00  0.00    -0.113 C  
BRANCH  18  19
HETATM   19  C   UNL     1     -10.909   6.707  67.904  1.00  0.00    -0.353 C  
BRANCH  19  20
HETATM   20  C   UNL     1     -11.421   6.426  69.288  1.00  0.00    -0.318 C  
HETATM   21  C   UNL     1     -11.506   7.349  70.256  1.00  0.00    -0.206 C  
HETATM   22  C   UNL     1     -12.016   7.064  71.648  1.00  0.00    -0.365 C  
HETATM   23  C   UNL     1     -13.281   7.876  71.922  1.00  0.00    -0.314 C  
HETATM   24  C   UNL     1     -10.934   7.387  72.678  1.00  0.00    -0.363 C  
ENDBRANCH  19  20
ENDBRANCH  18  19
ENDBRANCH  17  18
ENDBRANCH  16  17
ENDBRANCH  13  16
ENDBRANCH  11  12
ENDBRANCH   9  11
ENDBRANCH   2   3
TORSDOF 8
ENDMDL
MODEL       87
REMARK 921   NORMALIZED FREE ENERGY PREDICTED BY IDOCK:   -5.01 KCAL/MOL
REMARK 922        TOTAL FREE ENERGY PREDICTED BY IDOCK:   -8.56 KCAL/MOL
REMARK 923 INTER-LIGAND FREE ENERGY PREDICTED BY IDOCK:   -6.88 KCAL/MOL
REMARK 924 INTRA-LIGAND FREE ENERGY PREDICTED BY IDOCK:   -1.67 KCAL/MOL
REMARK 927      BINDING AFFINITY PREDICTED BY RF-SCORE:    0.00 PKD
ROOT
HETATM    1  C   UNL     1     -12.846  12.637  64.674  1.00  0.00    -0.275 C  
HETATM    2  O   UNL     1     -11.918  13.501  64.030  1.00  0.00    -0.431 OA 
ENDROOT
BRANCH   2   3
HETATM    3  C   UNL     1     -11.015  14.143  64.840  1.00  0.00    -0.397 A  
HETATM    4  C   UNL     1     -10.950  15.530  64.668  1.00  0.00    -0.322 A  
HETATM    5  O   UNL     1     -11.733  16.148  63.732  1.00  0.00    -1.404 OA 
HETATM    6  C   UNL     1     -10.087  16.316  65.420  1.00  0.00    -0.179 A  
HETATM    7  C   UNL     1      -9.240  15.704  66.343  1.00  0.00    -0.346 A  
HETATM    8  H   UNL     1     -11.689  17.090  63.615  1.00  0.00     0.000 HD 
HETATM    9  C   UNL     1      -9.250  14.309  66.504  1.00  0.00    -0.259 A  
HETATM   10  C   UNL     1     -10.170  13.537  65.770  1.00  0.00    -0.305 A  
BRANCH   9  11
HETATM   11  C   UNL     1      -8.260  13.648  67.428  1.00  0.00    -0.179 C  
BRANCH  11  12
HETATM   12  N   UNL     1      -8.296  12.210  67.323  1.00  0.00    -0.172 N  
HETATM   13  C   UNL     1      -7.753  11.430  68.317  1.00  0.00    -0.124 C  
HETATM   14  H   UNL     1      -8.726  11.770  66.510  1.00  0.00     0.000 HD 
HETATM   15  O   UNL     1      -7.226  11.892  69.323  1.00  0.00    -0.069 OA 
BRANCH  13  16
HETATM   16  C   UNL     1      -7.846   9.941  68.049  1.00  0.00    -0.086 C  
BRANCH  16  17
HETATM   17  C   UNL     1      -9.251   9.513  67.624  1.00  0.00    -0.138 C  
BRANCH  17  18
HETATM   18  C   UNL     1     -10.249   9.573  68.787  1.00  0.00    -0.215 C  
BRANCH  18  19
HETATM   19  C   UNL     1     -11.388  10.549  68.496  1.00  0.00    -0.320 C  
BRANCH  19  20
HETATM   20  C   UNL     1     -11.250  11.797  69.321  1.00  0.00    -0.318 C  
HETATM   21  C   UNL     1     -12.043  12.870  69.193  1.00  0.00    -0.216 C  
HETATM   22  C   UNL     1     -11.900  14.125  70.019  1.00  0.00    -0.388 C  
HETATM   23  C   UNL     1     -13.155  14.345  70.864  1.00  0.00    -0.390 C  
HETATM   24  C   UNL     1     -11.646  15.325  69.108  1.00  0.00    -0.349 C  
ENDBRANCH  19  20
ENDBRANCH  18  19
ENDBRANCH  17  18
ENDBRANCH  16  17
ENDBRANCH  13  16
ENDBRANCH  11  12
ENDBRANCH   9  11
ENDBRANCH   2   3
TORSDOF 8
ENDMDL
MODEL       88
REMARK 921   NORMALIZED FREE ENERGY PREDICTED BY IDOCK:   -5.00 KCAL/MOL
REMARK 922        TOTAL FREE ENERGY PREDICTED BY IDOCK:   -8.55 KCAL/MOL
REMARK 923 INTER-LIGAND FREE ENERGY PREDICTED BY IDOCK:   -7.81 KCAL/MOL
REMARK 924 INTRA-LIGAND FREE ENERGY PREDICTED BY IDOCK:   -0.74 KCAL/MOL
REMARK 927      BINDING AFFINITY PREDICTED BY RF-SCORE:    0.00 PKD
ROOT
HETATM    1  C   UNL     1     -10.931   6.776  72.547  1.00  0.00    -0.247 C  
HETATM    2  O   UNL     1     -12.185   7.316  72.148  1.00  0.00    -0.285 OA 
ENDROOT
BRANCH   2   3
HETATM    3  C   UNL     1     -12.176   8.609  71.689  1.00  0.00    -0.333 A  
HETATM    4  C   UNL     1     -13.129   9.449  72.275  1.00  0.00    -0.428 A  
HETATM    5  O   UNL     1     -13.995   8.962  73.215  1.00  0.00    -1.203 OA 
HETATM    6  C   UNL     1     -13.238  10.786  71.916  1.00  0.00    -0.524 A  
HETATM    7  C   UNL     1     -12.402  11.294  70.922  1.00  0.00    -0.490 A  
HETATM    8  H   UNL     1     -14.642   9.533  73.613  1.00  0.00     0.000 HD 
HETATM    9  C   UNL     1     -11.468  10.462  70.283  1.00  0.00    -0.406 A  
HETATM   10  C   UNL     1     -11.338   9.124  70.699  1.00  0.00    -0.323 A  
BRANCH   9  11
HETATM   11  C   UNL     1     -10.641  10.993  69.140  1.00  0.00    -0.219 C  
BRANCH  11  12
HETATM   12  N   UNL     1     -10.985  12.353  68.807  1.00  0.00    -0.240 N  
HETATM   13  C   UNL     1     -11.672  12.629  67.649  1.00  0.00    -0.361 C  
HETATM   14  H   UNL     1     -10.719  13.113  69.433  1.00  0.00     0.000 HD 
HETATM   15  O   UNL     1     -12.028  11.765  66.854  1.00  0.00    -0.605 OA 
BRANCH  13  16
HETATM   16  C   UNL     1     -11.936  14.105  67.428  1.00  0.00    -0.439 C  
BRANCH  16  17
HETATM   17  C   UNL     1     -10.965  14.993  68.206  1.00  0.00    -0.274 C  
BRANCH  17  18
HETATM   18  C   UNL     1     -10.744  16.346  67.520  1.00  0.00    -0.298 C  
BRANCH  18  19
HETATM   19  C   UNL     1      -9.668  17.165  68.231  1.00  0.00    -0.280 C  
BRANCH  19  20
HETATM   20  C   UNL     1      -8.722  16.272  68.984  1.00  0.00    -0.246 C  
HETATM   21  C   UNL     1      -7.390  16.299  68.837  1.00  0.00    -0.198 C  
HETATM   22  C   UNL     1      -6.443  15.398  69.589  1.00  0.00    -0.171 C  
HETATM   23  C   UNL     1      -5.518  16.230  70.477  1.00  0.00    -0.144 C  
HETATM   24  C   UNL     1      -5.631  14.554  68.607  1.00  0.00    -0.093 C  
ENDBRANCH  19  20
ENDBRANCH  18  19
ENDBRANCH  17  18
ENDBRANCH  16  17
ENDBRANCH  13  16
ENDBRANCH  11  12
ENDBRANCH   9  11
ENDBRANCH   2   3
TORSDOF 8
ENDMDL
MODEL       89
REMARK 921   NORMALIZED FREE ENERGY PREDICTED BY IDOCK:   -5.00 KCAL/MOL
REMARK 922        TOTAL FREE ENERGY PREDICTED BY IDOCK:   -8.54 KCAL/MOL
REMARK 923 INTER-LIGAND FREE ENERGY PREDICTED BY IDOCK:   -7.62 KCAL/MOL
REMARK 924 INTRA-LIGAND FREE ENERGY PREDICTED BY IDOCK:   -0.92 KCAL/MOL
REMARK 927      BINDING AFFINITY PREDICTED BY RF-SCORE:    0.00 PKD
ROOT
HETATM    1  C   UNL     1     -10.427  10.166  69.896  1.00  0.00    -0.275 C  
HETATM    2  O   UNL     1     -11.820  10.404  70.063  1.00  0.00    -0.267 OA 
ENDROOT
BRANCH   2   3
HETATM    3  C   UNL     1     -12.179  11.651  70.507  1.00  0.00    -0.361 A  
HETATM    4  C   UNL     1     -12.964  11.663  71.665  1.00  0.00    -0.378 A  
HETATM    5  O   UNL     1     -13.337  10.488  72.258  1.00  0.00    -0.601 OA 
HETATM    6  C   UNL     1     -13.400  12.850  72.236  1.00  0.00    -0.597 A  
HETATM    7  C   UNL     1     -13.078  14.060  71.620  1.00  0.00    -0.435 A  
HETATM    8  H   UNL     1     -13.870  10.495  73.044  1.00  0.00     0.000 HD 
HETATM    9  C   UNL     1     -12.330  14.077  70.432  1.00  0.00    -0.429 A  
HETATM   10  C   UNL     1     -11.854  12.865  69.899  1.00  0.00    -0.373 A  
BRANCH   9  11
HETATM   11  C   UNL     1     -12.075  15.380  69.719  1.00  0.00    -0.347 C  
BRANCH  11  12
HETATM   12  N   UNL     1     -10.667  15.641  69.551  1.00  0.00    -0.247 N  
HETATM   13  C   UNL     1     -10.244  16.643  68.711  1.00  0.00    -0.288 C  
HETATM   14  H   UNL     1      -9.982  15.080  70.059  1.00  0.00     0.000 HD 
HETATM   15  O   UNL     1     -11.011  17.358  68.075  1.00  0.00    -0.341 OA 
BRANCH  13  16
HETATM   16  C   UNL     1      -8.737  16.776  68.623  1.00  0.00    -0.255 C  
BRANCH  16  17
HETATM   17  C   UNL     1      -8.211  16.519  67.211  1.00  0.00    -0.196 C  
BRANCH  17  18
HETATM   18  C   UNL     1      -7.499  15.166  67.097  1.00  0.00    -0.176 C  
BRANCH  18  19
HETATM   19  C   UNL     1      -8.491  14.006  67.150  1.00  0.00    -0.207 C  
BRANCH  19  20
HETATM   20  C   UNL     1      -9.442  14.059  65.988  1.00  0.00    -0.164 C  
HETATM   21  C   UNL     1     -10.227  13.037  65.616  1.00  0.00    -0.296 C  
HETATM   22  C   UNL     1     -11.178  13.091  64.446  1.00  0.00    -0.393 C  
HETATM   23  C   UNL     1     -12.617  12.920  64.929  1.00  0.00    -0.525 C  
HETATM   24  C   UNL     1     -10.819  12.007  63.429  1.00  0.00    -0.471 C  
ENDBRANCH  19  20
ENDBRANCH  18  19
ENDBRANCH  17  18
ENDBRANCH  16  17
ENDBRANCH  13  16
ENDBRANCH  11  12
ENDBRANCH   9  11
ENDBRANCH   2   3
TORSDOF 8
ENDMDL
MODEL       90
REMARK 921   NORMALIZED FREE ENERGY PREDICTED BY IDOCK:   -4.99 KCAL/MOL
REMARK 922        TOTAL FREE ENERGY PREDICTED BY IDOCK:   -8.54 KCAL/MOL
REMARK 923 INTER-LIGAND FREE ENERGY PREDICTED BY IDOCK:   -7.18 KCAL/MOL
REMARK 924 INTRA-LIGAND FREE ENERGY PREDICTED BY IDOCK:   -1.36 KCAL/MOL
REMARK 927      BINDING AFFINITY PREDICTED BY RF-SCORE:    0.00 PKD
ROOT
HETATM    1  C   UNL     1      -7.032   9.813  68.777  1.00  0.00    -0.066 C  
HETATM    2  O   UNL     1      -7.854  10.875  69.246  1.00  0.00    -0.144 OA 
ENDROOT
BRANCH   2   3
HETATM    3  C   UNL     1      -9.003  11.120  68.537  1.00  0.00    -0.168 A  
HETATM    4  C   UNL     1     -10.188  10.777  69.197  1.00  0.00    -0.211 A  
HETATM    5  O   UNL     1     -10.147  10.222  70.446  1.00  0.00    -0.404 OA 
HETATM    6  C   UNL     1     -11.430  10.971  68.608  1.00  0.00    -0.375 A  
HETATM    7  C   UNL     1     -11.496  11.486  67.313  1.00  0.00    -0.338 A  
HETATM    8  H   UNL     1     -10.952   9.989  70.894  1.00  0.00     0.000 HD 
HETATM    9  C   UNL     1     -10.321  11.796  66.609  1.00  0.00    -0.251 A  
HETATM   10  C   UNL     1      -9.076  11.641  67.245  1.00  0.00    -0.167 A  
BRANCH   9  11
HETATM   11  C   UNL     1     -10.399  12.254  65.176  1.00  0.00    -0.286 C  
BRANCH  11  12
HETATM   12  N   UNL     1     -10.240  13.683  65.053  1.00  0.00    -0.507 N  
HETATM   13  C   UNL     1     -11.340  14.505  65.076  1.00  0.00    -0.377 C  
HETATM   14  H   UNL     1      -9.307  14.083  64.949  1.00  0.00     0.000 HD 
HETATM   15  O   UNL     1     -12.488  14.092  65.204  1.00  0.00    -0.436 OA 
BRANCH  13  16
HETATM   16  C   UNL     1     -11.012  15.976  64.911  1.00  0.00    -0.399 C  
BRANCH  16  17
HETATM   17  C   UNL     1     -10.301  16.555  66.135  1.00  0.00    -0.344 C  
BRANCH  17  18
HETATM   18  C   UNL     1     -10.994  16.162  67.444  1.00  0.00    -0.210 C  
BRANCH  18  19
HETATM   19  C   UNL     1     -10.168  15.146  68.233  1.00  0.00    -0.223 C  
BRANCH  19  20
HETATM   20  C   UNL     1     -10.809  14.845  69.557  1.00  0.00    -0.272 C  
HETATM   21  C   UNL     1     -11.669  15.665  70.177  1.00  0.00    -0.374 C  
HETATM   22  C   UNL     1     -12.309  15.362  71.510  1.00  0.00    -0.443 C  
HETATM   23  C   UNL     1     -13.826  15.259  71.354  1.00  0.00    -0.603 C  
HETATM   24  C   UNL     1     -11.943  16.446  72.524  1.00  0.00    -0.579 C  
ENDBRANCH  19  20
ENDBRANCH  18  19
ENDBRANCH  17  18
ENDBRANCH  16  17
ENDBRANCH  13  16
ENDBRANCH  11  12
ENDBRANCH   9  11
ENDBRANCH   2   3
TORSDOF 8
ENDMDL
MODEL       91
REMARK 921   NORMALIZED FREE ENERGY PREDICTED BY IDOCK:   -4.99 KCAL/MOL
REMARK 922        TOTAL FREE ENERGY PREDICTED BY IDOCK:   -8.53 KCAL/MOL
REMARK 923 INTER-LIGAND FREE ENERGY PREDICTED BY IDOCK:   -7.71 KCAL/MOL
REMARK 924 INTRA-LIGAND FREE ENERGY PREDICTED BY IDOCK:   -0.82 KCAL/MOL
REMARK 927      BINDING AFFINITY PREDICTED BY RF-SCORE:    0.00 PKD
ROOT
HETATM    1  C   UNL     1      -8.743   8.950  70.938  1.00  0.00    -0.210 C  
HETATM    2  O   UNL     1      -9.738   8.109  70.368  1.00  0.00    -0.177 OA 
ENDROOT
BRANCH   2   3
HETATM    3  C   UNL     1     -11.008   8.236  70.870  1.00  0.00    -0.246 A  
HETATM    4  C   UNL     1     -11.738   7.044  70.940  1.00  0.00    -0.343 A  
HETATM    5  O   UNL     1     -11.186   5.871  70.505  1.00  0.00    -0.305 OA 
HETATM    6  C   UNL     1     -13.036   7.014  71.431  1.00  0.00    -0.395 A  
HETATM    7  C   UNL     1     -13.640   8.206  71.831  1.00  0.00    -0.370 A  
HETATM    8  H   UNL     1     -11.681   5.061  70.553  1.00  0.00     0.000 HD 
HETATM    9  C   UNL     1     -12.948   9.424  71.729  1.00  0.00    -0.484 A  
HETATM   10  C   UNL     1     -11.616   9.424  71.278  1.00  0.00    -0.434 A  
BRANCH   9  11
HETATM   11  C   UNL     1     -13.644  10.718  72.065  1.00  0.00    -0.064 C  
BRANCH  11  12
HETATM   12  N   UNL     1     -12.795  11.864  71.849  1.00  0.00    -0.304 N  
HETATM   13  C   UNL     1     -13.240  13.124  72.168  1.00  0.00    -0.462 C  
HETATM   14  H   UNL     1     -11.861  11.738  71.459  1.00  0.00     0.000 HD 
HETATM   15  O   UNL     1     -14.348  13.348  72.645  1.00  0.00    -0.709 OA 
BRANCH  13  16
HETATM   16  C   UNL     1     -12.243  14.224  71.859  1.00  0.00    -0.268 C  
BRANCH  16  17
HETATM   17  C   UNL     1     -12.883  15.399  71.120  1.00  0.00    -0.520 C  
BRANCH  17  18
HETATM   18  C   UNL     1     -12.222  15.655  69.761  1.00  0.00    -0.293 C  
BRANCH  18  19
HETATM   19  C   UNL     1     -10.791  15.121  69.726  1.00  0.00    -0.298 C  
BRANCH  19  20
HETATM   20  C   UNL     1     -10.477  14.511  68.389  1.00  0.00    -0.246 C  
HETATM   21  C   UNL     1     -11.335  14.482  67.360  1.00  0.00    -0.370 C  
HETATM   22  C   UNL     1     -11.021  13.864  66.020  1.00  0.00    -0.285 C  
HETATM   23  C   UNL     1     -11.054  14.932  64.927  1.00  0.00    -0.424 C  
HETATM   24  C   UNL     1     -12.017  12.746  65.712  1.00  0.00    -0.502 C  
ENDBRANCH  19  20
ENDBRANCH  18  19
ENDBRANCH  17  18
ENDBRANCH  16  17
ENDBRANCH  13  16
ENDBRANCH  11  12
ENDBRANCH   9  11
ENDBRANCH   2   3
TORSDOF 8
ENDMDL
MODEL       92
REMARK 921   NORMALIZED FREE ENERGY PREDICTED BY IDOCK:   -4.95 KCAL/MOL
REMARK 922        TOTAL FREE ENERGY PREDICTED BY IDOCK:   -8.48 KCAL/MOL
REMARK 923 INTER-LIGAND FREE ENERGY PREDICTED BY IDOCK:   -7.72 KCAL/MOL
REMARK 924 INTRA-LIGAND FREE ENERGY PREDICTED BY IDOCK:   -0.76 KCAL/MOL
REMARK 927      BINDING AFFINITY PREDICTED BY RF-SCORE:    0.00 PKD
ROOT
HETATM    1  C   UNL     1     -10.499   7.876  66.853  1.00  0.00    -0.318 C  
HETATM    2  O   UNL     1     -11.116   6.638  67.188  1.00  0.00    -0.392 OA 
ENDROOT
BRANCH   2   3
HETATM    3  C   UNL     1     -10.750   6.075  68.384  1.00  0.00    -0.280 A  
HETATM    4  C   UNL     1      -9.892   4.975  68.281  1.00  0.00    -0.150 A  
HETATM    5  O   UNL     1      -9.494   4.523  67.053  1.00  0.00    -0.145 OA 
HETATM    6  C   UNL     1      -9.431   4.304  69.405  1.00  0.00    -0.256 A  
HETATM    7  C   UNL     1      -9.865   4.714  70.666  1.00  0.00    -0.296 A  
HETATM    8  H   UNL     1      -8.911   3.776  66.982  1.00  0.00     0.000 HD 
HETATM    9  C   UNL     1     -10.763   5.785  70.798  1.00  0.00    -0.342 A  
HETATM   10  C   UNL     1     -11.175   6.484  69.649  1.00  0.00    -0.446 A  
BRANCH   9  11
HETATM   11  C   UNL     1     -11.305   6.153  72.155  1.00  0.00    -0.299 C  
BRANCH  11  12
HETATM   12  N   UNL     1     -12.184   7.295  72.097  1.00  0.00    -0.443 N  
HETATM   13  C   UNL     1     -11.680   8.564  72.257  1.00  0.00    -0.373 C  
HETATM   14  H   UNL     1     -13.182   7.161  71.936  1.00  0.00     0.000 HD 
HETATM   15  O   UNL     1     -10.491   8.798  72.448  1.00  0.00    -0.305 OA 
BRANCH  13  16
HETATM   16  C   UNL     1     -12.731   9.655  72.195  1.00  0.00    -0.427 C  
BRANCH  16  17
HETATM   17  C   UNL     1     -12.960  10.162  70.771  1.00  0.00    -0.380 C  
BRANCH  17  18
HETATM   18  C   UNL     1     -11.912  11.200  70.353  1.00  0.00    -0.469 C  
BRANCH  18  19
HETATM   19  C   UNL     1     -11.309  10.867  68.989  1.00  0.00    -0.348 C  
BRANCH  19  20
HETATM   20  C   UNL     1     -11.706  11.889  67.962  1.00  0.00    -0.382 C  
HETATM   21  C   UNL     1     -11.296  11.866  66.686  1.00  0.00    -0.400 C  
HETATM   22  C   UNL     1     -11.692  12.896  65.657  1.00  0.00    -0.430 C  
HETATM   23  C   UNL     1     -12.489  12.236  64.531  1.00  0.00    -0.464 C  
HETATM   24  C   UNL     1     -10.447  13.588  65.102  1.00  0.00    -0.375 C  
ENDBRANCH  19  20
ENDBRANCH  18  19
ENDBRANCH  17  18
ENDBRANCH  16  17
ENDBRANCH  13  16
ENDBRANCH  11  12
ENDBRANCH   9  11
ENDBRANCH   2   3
TORSDOF 8
ENDMDL
MODEL       93
REMARK 921   NORMALIZED FREE ENERGY PREDICTED BY IDOCK:   -4.95 KCAL/MOL
REMARK 922        TOTAL FREE ENERGY PREDICTED BY IDOCK:   -8.47 KCAL/MOL
REMARK 923 INTER-LIGAND FREE ENERGY PREDICTED BY IDOCK:   -7.66 KCAL/MOL
REMARK 924 INTRA-LIGAND FREE ENERGY PREDICTED BY IDOCK:   -0.81 KCAL/MOL
REMARK 927      BINDING AFFINITY PREDICTED BY RF-SCORE:    0.00 PKD
ROOT
HETATM    1  C   UNL     1      -9.432   9.208  69.397  1.00  0.00    -0.161 C  
HETATM    2  O   UNL     1     -10.844   9.123  69.252  1.00  0.00    -0.213 OA 
ENDROOT
BRANCH   2   3
HETATM    3  C   UNL     1     -11.594   9.890  70.107  1.00  0.00    -0.218 A  
HETATM    4  C   UNL     1     -12.436   9.171  70.963  1.00  0.00    -0.181 A  
HETATM    5  O   UNL     1     -12.484   7.806  70.896  1.00  0.00    -0.499 OA 
HETATM    6  C   UNL     1     -13.251   9.810  71.887  1.00  0.00    -0.545 A  
HETATM    7  C   UNL     1     -13.259  11.204  71.937  1.00  0.00    -0.488 A  
HETATM    8  H   UNL     1     -13.055   7.317  71.478  1.00  0.00     0.000 HD 
HETATM    9  C   UNL     1     -12.460  11.954  71.059  1.00  0.00    -0.390 A  
HETATM   10  C   UNL     1     -11.602  11.285  70.167  1.00  0.00    -0.393 A  
BRANCH   9  11
HETATM   11  C   UNL     1     -12.553  13.458  71.051  1.00  0.00    -0.343 C  
BRANCH  11  12
HETATM   12  N   UNL     1     -11.539  14.060  70.220  1.00  0.00    -0.466 N  
HETATM   13  C   UNL     1     -11.117  15.345  70.466  1.00  0.00    -0.335 C  
HETATM   14  H   UNL     1     -11.134  13.530  69.448  1.00  0.00     0.000 HD 
HETATM   15  O   UNL     1     -11.556  16.036  71.379  1.00  0.00    -0.417 OA 
BRANCH  13  16
HETATM   16  C   UNL     1     -10.068  15.843  69.492  1.00  0.00    -0.277 C  
BRANCH  16  17
HETATM   17  C   UNL     1      -9.790  14.840  68.372  1.00  0.00    -0.220 C  
BRANCH  17  18
HETATM   18  C   UNL     1      -8.444  15.100  67.686  1.00  0.00    -0.171 C  
BRANCH  18  19
HETATM   19  C   UNL     1      -8.631  15.726  66.304  1.00  0.00    -0.307 C  
BRANCH  19  20
HETATM   20  C   UNL     1      -8.622  17.226  66.389  1.00  0.00    -0.294 C  
HETATM   21  C   UNL     1      -9.710  17.968  66.635  1.00  0.00    -0.332 C  
HETATM   22  C   UNL     1      -9.699  19.475  66.715  1.00  0.00    -0.464 C  
HETATM   23  C   UNL     1     -10.103  19.931  68.117  1.00  0.00    -0.569 C  
HETATM   24  C   UNL     1     -10.643  20.061  65.665  1.00  0.00    -0.380 C  
ENDBRANCH  19  20
ENDBRANCH  18  19
ENDBRANCH  17  18
ENDBRANCH  16  17
ENDBRANCH  13  16
ENDBRANCH  11  12
ENDBRANCH   9  11
ENDBRANCH   2   3
TORSDOF 8
ENDMDL
MODEL       94
REMARK 921   NORMALIZED FREE ENERGY PREDICTED BY IDOCK:   -4.95 KCAL/MOL
REMARK 922        TOTAL FREE ENERGY PREDICTED BY IDOCK:   -8.47 KCAL/MOL
REMARK 923 INTER-LIGAND FREE ENERGY PREDICTED BY IDOCK:   -7.54 KCAL/MOL
REMARK 924 INTRA-LIGAND FREE ENERGY PREDICTED BY IDOCK:   -0.93 KCAL/MOL
REMARK 927      BINDING AFFINITY PREDICTED BY RF-SCORE:    0.00 PKD
ROOT
HETATM    1  C   UNL     1      -9.793  12.626  68.601  1.00  0.00    -0.069 C  
HETATM    2  O   UNL     1     -11.184  12.920  68.567  1.00  0.00    -0.240 OA 
ENDROOT
BRANCH   2   3
HETATM    3  C   UNL     1     -11.892  12.662  69.714  1.00  0.00    -0.309 A  
HETATM    4  C   UNL     1     -12.386  13.794  70.371  1.00  0.00    -0.353 A  
HETATM    5  O   UNL     1     -12.134  15.044  69.875  1.00  0.00    -0.308 OA 
HETATM    6  C   UNL     1     -13.126  13.692  71.541  1.00  0.00    -0.431 A  
HETATM    7  C   UNL     1     -13.350  12.432  72.095  1.00  0.00    -0.508 A  
HETATM    8  H   UNL     1     -12.469  15.814  70.321  1.00  0.00     0.000 HD 
HETATM    9  C   UNL     1     -12.828  11.281  71.483  1.00  0.00    -0.519 A  
HETATM   10  C   UNL     1     -12.126  11.403  70.270  1.00  0.00    -0.459 A  
BRANCH   9  11
HETATM   11  C   UNL     1     -12.988   9.936  72.144  1.00  0.00    -0.379 C  
BRANCH  11  12
HETATM   12  N   UNL     1     -12.796   8.849  71.215  1.00  0.00    -0.469 N  
HETATM   13  C   UNL     1     -12.065   7.745  71.584  1.00  0.00    -0.304 C  
HETATM   14  H   UNL     1     -13.205   8.899  70.282  1.00  0.00     0.000 HD 
HETATM   15  O   UNL     1     -11.550   7.616  72.691  1.00  0.00    -0.339 OA 
BRANCH  13  16
HETATM   16  C   UNL     1     -11.932   6.703  70.492  1.00  0.00    -0.377 C  
BRANCH  16  17
HETATM   17  C   UNL     1     -10.819   7.037  69.499  1.00  0.00    -0.265 C  
BRANCH  17  18
HETATM   18  C   UNL     1     -10.707   5.992  68.383  1.00  0.00    -0.351 C  
BRANCH  18  19
HETATM   19  C   UNL     1     -10.923   6.619  67.006  1.00  0.00    -0.463 C  
BRANCH  19  20
HETATM   20  C   UNL     1     -10.562   8.077  67.017  1.00  0.00    -0.364 C  
HETATM   21  C   UNL     1      -9.778   8.660  66.100  1.00  0.00    -0.292 C  
HETATM   22  C   UNL     1      -9.412  10.124  66.114  1.00  0.00    -0.238 C  
HETATM   23  C   UNL     1      -9.955  10.815  64.864  1.00  0.00    -0.374 C  
HETATM   24  C   UNL     1      -7.894  10.284  66.202  1.00  0.00    -0.129 C  
ENDBRANCH  19  20
ENDBRANCH  18  19
ENDBRANCH  17  18
ENDBRANCH  16  17
ENDBRANCH  13  16
ENDBRANCH  11  12
ENDBRANCH   9  11
ENDBRANCH   2   3
TORSDOF 8
ENDMDL
MODEL       95
REMARK 921   NORMALIZED FREE ENERGY PREDICTED BY IDOCK:   -4.95 KCAL/MOL
REMARK 922        TOTAL FREE ENERGY PREDICTED BY IDOCK:   -8.47 KCAL/MOL
REMARK 923 INTER-LIGAND FREE ENERGY PREDICTED BY IDOCK:   -7.39 KCAL/MOL
REMARK 924 INTRA-LIGAND FREE ENERGY PREDICTED BY IDOCK:   -1.08 KCAL/MOL
REMARK 927      BINDING AFFINITY PREDICTED BY RF-SCORE:    0.00 PKD
ROOT
HETATM    1  C   UNL     1     -10.796  16.280  69.529  1.00  0.00    -0.342 C  
HETATM    2  O   UNL     1     -11.484  16.199  70.771  1.00  0.00    -0.393 OA 
ENDROOT
BRANCH   2   3
HETATM    3  C   UNL     1     -12.113  15.011  71.047  1.00  0.00    -0.324 A  
HETATM    4  C   UNL     1     -12.939  15.028  72.176  1.00  0.00    -0.342 A  
HETATM    5  O   UNL     1     -13.059  16.165  72.927  1.00  0.00    -0.459 OA 
HETATM    6  C   UNL     1     -13.645  13.902  72.577  1.00  0.00    -0.680 A  
HETATM    7  C   UNL     1     -13.498  12.716  71.859  1.00  0.00    -0.424 A  
HETATM    8  H   UNL     1     -13.620  16.178  73.693  1.00  0.00     0.000 HD 
HETATM    9  C   UNL     1     -12.639  12.656  70.750  1.00  0.00    -0.302 A  
HETATM   10  C   UNL     1     -11.974  13.822  70.329  1.00  0.00    -0.397 A  
BRANCH   9  11
HETATM   11  C   UNL     1     -12.408  11.345  70.044  1.00  0.00    -0.237 C  
BRANCH  11  12
HETATM   12  N   UNL     1     -11.135  10.760  70.387  1.00  0.00    -0.462 N  
HETATM   13  C   UNL     1     -11.082   9.538  71.014  1.00  0.00    -0.363 C  
HETATM   14  H   UNL     1     -10.271  11.255  70.164  1.00  0.00     0.000 HD 
HETATM   15  O   UNL     1     -12.079   8.886  71.306  1.00  0.00    -0.294 OA 
BRANCH  13  16
HETATM   16  C   UNL     1      -9.675   9.071  71.331  1.00  0.00    -0.369 C  
BRANCH  16  17
HETATM   17  C   UNL     1      -9.107   8.156  70.246  1.00  0.00    -0.151 C  
BRANCH  17  18
HETATM   18  C   UNL     1      -8.692   8.936  68.993  1.00  0.00    -0.136 C  
BRANCH  18  19
HETATM   19  C   UNL     1      -9.379   8.392  67.741  1.00  0.00    -0.150 C  
BRANCH  19  20
HETATM   20  C   UNL     1     -10.422   9.350  67.241  1.00  0.00    -0.332 C  
HETATM   21  C   UNL     1     -10.145  10.552  66.717  1.00  0.00    -0.270 C  
HETATM   22  C   UNL     1     -11.195  11.515  66.219  1.00  0.00    -0.286 C  
HETATM   23  C   UNL     1     -11.020  11.755  64.720  1.00  0.00    -0.360 C  
HETATM   24  C   UNL     1     -11.105  12.831  66.991  1.00  0.00    -0.316 C  
ENDBRANCH  19  20
ENDBRANCH  18  19
ENDBRANCH  17  18
ENDBRANCH  16  17
ENDBRANCH  13  16
ENDBRANCH  11  12
ENDBRANCH   9  11
ENDBRANCH   2   3
TORSDOF 8
ENDMDL
MODEL       96
REMARK 921   NORMALIZED FREE ENERGY PREDICTED BY IDOCK:   -4.93 KCAL/MOL
REMARK 922        TOTAL FREE ENERGY PREDICTED BY IDOCK:   -8.45 KCAL/MOL
REMARK 923 INTER-LIGAND FREE ENERGY PREDICTED BY IDOCK:   -7.27 KCAL/MOL
REMARK 924 INTRA-LIGAND FREE ENERGY PREDICTED BY IDOCK:   -1.18 KCAL/MOL
REMARK 927      BINDING AFFINITY PREDICTED BY RF-SCORE:    0.00 PKD
ROOT
HETATM    1  C   UNL     1     -10.931  15.973  69.685  1.00  0.00    -0.326 C  
HETATM    2  O   UNL     1     -12.300  15.646  69.889  1.00  0.00    -0.354 OA 
ENDROOT
BRANCH   2   3
HETATM    3  C   UNL     1     -12.560  14.438  70.486  1.00  0.00    -0.353 A  
HETATM    4  C   UNL     1     -13.457  14.489  71.558  1.00  0.00    -0.374 A  
HETATM    5  O   UNL     1     -13.990  15.684  71.955  1.00  0.00    -0.483 OA 
HETATM    6  C   UNL     1     -13.820  13.346  72.257  1.00  0.00    -0.671 A  
HETATM    7  C   UNL     1     -13.249  12.123  71.905  1.00  0.00    -0.474 A  
HETATM    8  H   UNL     1     -14.600  15.719  72.683  1.00  0.00     0.000 HD 
HETATM    9  C   UNL     1     -12.310  12.049  70.864  1.00  0.00    -0.384 A  
HETATM   10  C   UNL     1     -11.996  13.210  70.134  1.00  0.00    -0.381 A  
BRANCH   9  11
HETATM   11  C   UNL     1     -11.622  10.743  70.559  1.00  0.00    -0.330 C  
BRANCH  11  12
HETATM   12  N   UNL     1     -10.561  10.900  69.594  1.00  0.00    -0.412 N  
HETATM   13  C   UNL     1      -9.529   9.994  69.547  1.00  0.00    -0.226 C  
HETATM   14  H   UNL     1     -10.578  11.686  68.944  1.00  0.00     0.000 HD 
HETATM   15  O   UNL     1      -9.449   9.024  70.294  1.00  0.00    -0.173 OA 
BRANCH  13  16
HETATM   16  C   UNL     1      -8.482  10.309  68.498  1.00  0.00    -0.121 C  
BRANCH  16  17
HETATM   17  C   UNL     1      -7.515  11.404  68.951  1.00  0.00    -0.113 C  
BRANCH  17  18
HETATM   18  C   UNL     1      -7.380  12.521  67.910  1.00  0.00    -0.115 C  
BRANCH  18  19
HETATM   19  C   UNL     1      -8.532  13.521  68.010  1.00  0.00    -0.176 C  
BRANCH  19  20
HETATM   20  C   UNL     1      -9.362  13.511  66.758  1.00  0.00    -0.262 C  
HETATM   21  C   UNL     1     -10.432  14.295  66.563  1.00  0.00    -0.287 C  
HETATM   22  C   UNL     1     -11.267  14.281  65.307  1.00  0.00    -0.337 C  
HETATM   23  C   UNL     1     -11.195  15.640  64.611  1.00  0.00    -0.380 C  
HETATM   24  C   UNL     1     -12.715  13.925  65.645  1.00  0.00    -0.534 C  
ENDBRANCH  19  20
ENDBRANCH  18  19
ENDBRANCH  17  18
ENDBRANCH  16  17
ENDBRANCH  13  16
ENDBRANCH  11  12
ENDBRANCH   9  11
ENDBRANCH   2   3
TORSDOF 8
ENDMDL
MODEL       97
REMARK 921   NORMALIZED FREE ENERGY PREDICTED BY IDOCK:   -4.93 KCAL/MOL
REMARK 922        TOTAL FREE ENERGY PREDICTED BY IDOCK:   -8.44 KCAL/MOL
REMARK 923 INTER-LIGAND FREE ENERGY PREDICTED BY IDOCK:   -7.77 KCAL/MOL
REMARK 924 INTRA-LIGAND FREE ENERGY PREDICTED BY IDOCK:   -0.68 KCAL/MOL
REMARK 927      BINDING AFFINITY PREDICTED BY RF-SCORE:    0.00 PKD
ROOT
HETATM    1  C   UNL     1     -12.087  12.578  63.511  1.00  0.00    -0.562 C  
HETATM    2  O   UNL     1     -12.771  13.665  64.121  1.00  0.00    -0.657 OA 
ENDROOT
BRANCH   2   3
HETATM    3  C   UNL     1     -12.122  14.298  65.150  1.00  0.00    -0.410 A  
HETATM    4  C   UNL     1     -11.525  15.517  64.812  1.00  0.00    -0.313 A  
HETATM    5  O   UNL     1     -11.596  15.988  63.530  1.00  0.00    -0.960 OA 
HETATM    6  C   UNL     1     -10.837  16.275  65.750  1.00  0.00    -0.173 A  
HETATM    7  C   UNL     1     -10.705  15.790  67.051  1.00  0.00    -0.306 A  
HETATM    8  H   UNL     1     -11.192  16.817  63.300  1.00  0.00     0.000 HD 
HETATM    9  C   UNL     1     -11.253  14.547  67.408  1.00  0.00    -0.337 A  
HETATM   10  C   UNL     1     -11.992  13.821  66.456  1.00  0.00    -0.470 A  
BRANCH   9  11
HETATM   11  C   UNL     1     -11.017  13.985  68.786  1.00  0.00    -0.262 C  
BRANCH  11  12
HETATM   12  N   UNL     1     -11.274  12.567  68.846  1.00  0.00    -0.265 N  
HETATM   13  C   UNL     1     -11.891  12.022  69.946  1.00  0.00    -0.331 C  
HETATM   14  H   UNL     1     -10.996  11.967  68.069  1.00  0.00     0.000 HD 
HETATM   15  O   UNL     1     -12.256  12.684  70.912  1.00  0.00    -0.349 OA 
BRANCH  13  16
HETATM   16  C   UNL     1     -12.067  10.519  69.869  1.00  0.00    -0.318 C  
BRANCH  16  17
HETATM   17  C   UNL     1     -11.916   9.844  71.233  1.00  0.00    -0.489 C  
BRANCH  17  18
HETATM   18  C   UNL     1     -11.953   8.315  71.128  1.00  0.00    -0.290 C  
BRANCH  18  19
HETATM   19  C   UNL     1     -10.596   7.749  70.713  1.00  0.00    -0.220 C  
BRANCH  19  20
HETATM   20  C   UNL     1     -10.581   7.406  69.251  1.00  0.00    -0.220 C  
HETATM   21  C   UNL     1      -9.613   7.782  68.404  1.00  0.00    -0.157 C  
HETATM   22  C   UNL     1      -9.602   7.441  66.934  1.00  0.00    -0.240 C  
HETATM   23  C   UNL     1      -8.389   6.570  66.605  1.00  0.00    -0.113 C  
HETATM   24  C   UNL     1      -9.588   8.721  66.099  1.00  0.00    -0.323 C  
ENDBRANCH  19  20
ENDBRANCH  18  19
ENDBRANCH  17  18
ENDBRANCH  16  17
ENDBRANCH  13  16
ENDBRANCH  11  12
ENDBRANCH   9  11
ENDBRANCH   2   3
TORSDOF 8
ENDMDL
MODEL       98
REMARK 921   NORMALIZED FREE ENERGY PREDICTED BY IDOCK:   -4.93 KCAL/MOL
REMARK 922        TOTAL FREE ENERGY PREDICTED BY IDOCK:   -8.44 KCAL/MOL
REMARK 923 INTER-LIGAND FREE ENERGY PREDICTED BY IDOCK:   -6.89 KCAL/MOL
REMARK 924 INTRA-LIGAND FREE ENERGY PREDICTED BY IDOCK:   -1.55 KCAL/MOL
REMARK 927      BINDING AFFINITY PREDICTED BY RF-SCORE:    0.00 PKD
ROOT
HETATM    1  C   UNL     1     -11.616  16.102  71.097  1.00  0.00    -0.404 C  
HETATM    2  O   UNL     1     -12.756  15.273  70.908  1.00  0.00    -0.369 OA 
ENDROOT
BRANCH   2   3
HETATM    3  C   UNL     1     -12.520  14.002  70.450  1.00  0.00    -0.350 A  
HETATM    4  C   UNL     1     -12.831  12.981  71.355  1.00  0.00    -0.292 A  
HETATM    5  O   UNL     1     -13.310  13.283  72.599  1.00  0.00    -0.517 OA 
HETATM    6  C   UNL     1     -12.651  11.643  71.031  1.00  0.00    -0.431 A  
HETATM    7  C   UNL     1     -12.113  11.311  69.787  1.00  0.00    -0.394 A  
HETATM    8  H   UNL     1     -13.521  12.590  73.214  1.00  0.00     0.000 HD 
HETATM    9  C   UNL     1     -11.748  12.315  68.877  1.00  0.00    -0.380 A  
HETATM   10  C   UNL     1     -11.989  13.662  69.205  1.00  0.00    -0.394 A  
BRANCH   9  11
HETATM   11  C   UNL     1     -11.073  11.951  67.580  1.00  0.00    -0.273 C  
BRANCH  11  12
HETATM   12  N   UNL     1     -10.793  13.110  66.769  1.00  0.00    -0.274 N  
HETATM   13  C   UNL     1     -11.675  13.498  65.789  1.00  0.00    -0.345 C  
HETATM   14  H   UNL     1      -9.937  13.644  66.923  1.00  0.00     0.000 HD 
HETATM   15  O   UNL     1     -12.724  12.908  65.554  1.00  0.00    -0.568 OA 
BRANCH  13  16
HETATM   16  C   UNL     1     -11.228  14.718  65.008  1.00  0.00    -0.399 C  
BRANCH  16  17
HETATM   17  C   UNL     1     -10.106  15.481  65.713  1.00  0.00    -0.388 C  
BRANCH  17  18
HETATM   18  C   UNL     1     -10.635  16.680  66.508  1.00  0.00    -0.203 C  
BRANCH  18  19
HETATM   19  C   UNL     1      -9.878  16.856  67.824  1.00  0.00    -0.252 C  
BRANCH  19  20
HETATM   20  C   UNL     1      -8.659  15.979  67.864  1.00  0.00    -0.165 C  
HETATM   21  C   UNL     1      -8.455  15.024  68.782  1.00  0.00    -0.180 C  
HETATM   22  C   UNL     1      -7.227  14.147  68.824  1.00  0.00    -0.120 C  
HETATM   23  C   UNL     1      -7.617  12.685  68.612  1.00  0.00    -0.083 C  
HETATM   24  C   UNL     1      -6.502  14.324  70.158  1.00  0.00    -0.110 C  
ENDBRANCH  19  20
ENDBRANCH  18  19
ENDBRANCH  17  18
ENDBRANCH  16  17
ENDBRANCH  13  16
ENDBRANCH  11  12
ENDBRANCH   9  11
ENDBRANCH   2   3
TORSDOF 8
ENDMDL
MODEL       99
REMARK 921   NORMALIZED FREE ENERGY PREDICTED BY IDOCK:   -4.93 KCAL/MOL
REMARK 922        TOTAL FREE ENERGY PREDICTED BY IDOCK:   -8.44 KCAL/MOL
REMARK 923 INTER-LIGAND FREE ENERGY PREDICTED BY IDOCK:   -7.78 KCAL/MOL
REMARK 924 INTRA-LIGAND FREE ENERGY PREDICTED BY IDOCK:   -0.66 KCAL/MOL
REMARK 927      BINDING AFFINITY PREDICTED BY RF-SCORE:    0.00 PKD
ROOT
HETATM    1  C   UNL     1      -9.913   7.012  73.926  1.00  0.00    -0.332 C  
HETATM    2  O   UNL     1     -11.207   7.343  73.436  1.00  0.00    -0.285 OA 
ENDROOT
BRANCH   2   3
HETATM    3  C   UNL     1     -11.268   8.328  72.483  1.00  0.00    -0.376 A  
HETATM    4  C   UNL     1     -12.473   9.037  72.442  1.00  0.00    -0.305 A  
HETATM    5  O   UNL     1     -13.492   8.717  73.297  1.00  0.00    -0.954 OA 
HETATM    6  C   UNL     1     -12.680  10.066  71.534  1.00  0.00    -0.532 A  
HETATM    7  C   UNL     1     -11.677  10.375  70.616  1.00  0.00    -0.444 A  
HETATM    8  H   UNL     1     -14.310   9.199  73.270  1.00  0.00     0.000 HD 
HETATM    9  C   UNL     1     -10.475   9.650  70.603  1.00  0.00    -0.379 A  
HETATM   10  C   UNL     1     -10.265   8.646  71.566  1.00  0.00    -0.345 A  
BRANCH   9  11
HETATM   11  C   UNL     1      -9.439   9.923  69.542  1.00  0.00    -0.223 C  
BRANCH  11  12
HETATM   12  N   UNL     1     -10.037  10.203  68.260  1.00  0.00    -0.151 N  
HETATM   13  C   UNL     1      -9.342  10.921  67.315  1.00  0.00    -0.155 C  
HETATM   14  H   UNL     1     -10.977   9.868  68.052  1.00  0.00     0.000 HD 
HETATM   15  O   UNL     1      -8.206  11.349  67.495  1.00  0.00    -0.123 OA 
BRANCH  13  16
HETATM   16  C   UNL     1     -10.112  11.154  66.031  1.00  0.00    -0.292 C  
BRANCH  16  17
HETATM   17  C   UNL     1     -11.359  12.012  66.248  1.00  0.00    -0.415 C  
BRANCH  17  18
HETATM   18  C   UNL     1     -11.839  12.670  64.949  1.00  0.00    -0.436 C  
BRANCH  18  19
HETATM   19  C   UNL     1     -12.402  14.068  65.205  1.00  0.00    -0.480 C  
BRANCH  19  20
HETATM   20  C   UNL     1     -11.320  15.106  65.119  1.00  0.00    -0.357 C  
HETATM   21  C   UNL     1     -10.837  15.774  66.176  1.00  0.00    -0.240 C  
HETATM   22  C   UNL     1      -9.754  16.820  66.087  1.00  0.00    -0.315 C  
HETATM   23  C   UNL     1      -8.522  16.371  66.870  1.00  0.00    -0.254 C  
HETATM   24  C   UNL     1     -10.272  18.157  66.617  1.00  0.00    -0.388 C  
ENDBRANCH  19  20
ENDBRANCH  18  19
ENDBRANCH  17  18
ENDBRANCH  16  17
ENDBRANCH  13  16
ENDBRANCH  11  12
ENDBRANCH   9  11
ENDBRANCH   2   3
TORSDOF 8
ENDMDL
MODEL      100
REMARK 921   NORMALIZED FREE ENERGY PREDICTED BY IDOCK:   -4.91 KCAL/MOL
REMARK 922        TOTAL FREE ENERGY PREDICTED BY IDOCK:   -8.42 KCAL/MOL
REMARK 923 INTER-LIGAND FREE ENERGY PREDICTED BY IDOCK:   -7.70 KCAL/MOL
REMARK 924 INTRA-LIGAND FREE ENERGY PREDICTED BY IDOCK:   -0.72 KCAL/MOL
REMARK 927      BINDING AFFINITY PREDICTED BY RF-SCORE:    0.00 PKD
ROOT
HETATM    1  C   UNL     1     -13.959   8.646  71.734  1.00  0.00    -0.434 C  
HETATM    2  O   UNL     1     -12.874   8.820  72.638  1.00  0.00    -0.383 OA 
ENDROOT
BRANCH   2   3
HETATM    3  C   UNL     1     -11.614   8.775  72.098  1.00  0.00    -0.364 A  
HETATM    4  C   UNL     1     -10.716   7.933  72.763  1.00  0.00    -0.371 A  
HETATM    5  O   UNL     1     -11.111   7.244  73.877  1.00  0.00    -0.497 OA 
HETATM    6  C   UNL     1      -9.406   7.780  72.330  1.00  0.00    -0.224 A  
HETATM    7  C   UNL     1      -8.964   8.512  71.228  1.00  0.00    -0.244 A  
HETATM    8  H   UNL     1     -10.502   6.672  74.329  1.00  0.00     0.000 HD 
HETATM    9  C   UNL     1      -9.829   9.400  70.570  1.00  0.00    -0.331 A  
HETATM   10  C   UNL     1     -11.167   9.500  70.993  1.00  0.00    -0.432 A  
BRANCH   9  11
HETATM   11  C   UNL     1      -9.314  10.262  69.446  1.00  0.00    -0.199 C  
BRANCH  11  12
HETATM   12  N   UNL     1     -10.269  11.269  69.052  1.00  0.00    -0.337 N  
HETATM   13  C   UNL     1     -10.933  11.161  67.854  1.00  0.00    -0.253 C  
HETATM   14  H   UNL     1     -10.453  12.063  69.665  1.00  0.00     0.000 HD 
HETATM   15  O   UNL     1     -10.766  10.231  67.072  1.00  0.00    -0.253 OA 
BRANCH  13  16
HETATM   16  C   UNL     1     -11.883  12.308  67.572  1.00  0.00    -0.331 C  
BRANCH  16  17
HETATM   17  C   UNL     1     -12.004  12.611  66.078  1.00  0.00    -0.478 C  
BRANCH  17  18
HETATM   18  C   UNL     1     -12.577  14.008  65.817  1.00  0.00    -0.512 C  
BRANCH  18  19
HETATM   19  C   UNL     1     -11.920  14.665  64.604  1.00  0.00    -0.472 C  
BRANCH  19  20
HETATM   20  C   UNL     1     -10.470  14.952  64.868  1.00  0.00    -0.389 C  
HETATM   21  C   UNL     1     -10.021  15.605  65.950  1.00  0.00    -0.379 C  
HETATM   22  C   UNL     1      -8.564  15.897  66.211  1.00  0.00    -0.348 C  
HETATM   23  C   UNL     1      -8.106  15.190  67.487  1.00  0.00    -0.196 C  
HETATM   24  C   UNL     1      -8.344  17.406  66.322  1.00  0.00    -0.271 C  
ENDBRANCH  19  20
ENDBRANCH  18  19
ENDBRANCH  17  18
ENDBRANCH  16  17
ENDBRANCH  13  16
ENDBRANCH  11  12
ENDBRANCH   9  11
ENDBRANCH   2   3
TORSDOF 8
ENDMDL
MODEL      101
REMARK 921   NORMALIZED FREE ENERGY PREDICTED BY IDOCK:   -4.91 KCAL/MOL
REMARK 922        TOTAL FREE ENERGY PREDICTED BY IDOCK:   -8.42 KCAL/MOL
REMARK 923 INTER-LIGAND FREE ENERGY PREDICTED BY IDOCK:   -7.62 KCAL/MOL
REMARK 924 INTRA-LIGAND FREE ENERGY PREDICTED BY IDOCK:   -0.80 KCAL/MOL
REMARK 927      BINDING AFFINITY PREDICTED BY RF-SCORE:    0.00 PKD
ROOT
HETATM    1  C   UNL     1     -12.977  10.569  71.792  1.00  0.00    -0.476 C  
HETATM    2  O   UNL     1     -11.979  10.251  70.829  1.00  0.00    -0.303 OA 
ENDROOT
BRANCH   2   3
HETATM    3  C   UNL     1     -11.810  11.147  69.804  1.00  0.00    -0.349 A  
HETATM    4  C   UNL     1     -11.449  10.579  68.577  1.00  0.00    -0.215 A  
HETATM    5  O   UNL     1     -11.271   9.228  68.467  1.00  0.00    -0.463 OA 
HETATM    6  C   UNL     1     -11.248  11.360  67.447  1.00  0.00    -0.370 A  
HETATM    7  C   UNL     1     -11.371  12.745  67.546  1.00  0.00    -0.361 A  
HETATM    8  H   UNL     1     -11.027   8.842  67.634  1.00  0.00     0.000 HD 
HETATM    9  C   UNL     1     -11.686  13.347  68.775  1.00  0.00    -0.377 A  
HETATM   10  C   UNL     1     -11.938  12.534  69.895  1.00  0.00    -0.371 A  
BRANCH   9  11
HETATM   11  C   UNL     1     -11.716  14.848  68.896  1.00  0.00    -0.315 C  
BRANCH  11  12
HETATM   12  N   UNL     1     -11.506  15.499  67.626  1.00  0.00    -0.267 N  
HETATM   13  C   UNL     1     -10.325  16.154  67.371  1.00  0.00    -0.294 C  
HETATM   14  H   UNL     1     -12.237  15.473  66.914  1.00  0.00     0.000 HD 
HETATM   15  O   UNL     1      -9.403  16.221  68.178  1.00  0.00    -0.205 OA 
BRANCH  13  16
HETATM   16  C   UNL     1     -10.267  16.808  66.005  1.00  0.00    -0.361 C  
BRANCH  16  17
HETATM   17  C   UNL     1      -9.682  18.219  66.058  1.00  0.00    -0.114 C  
BRANCH  17  18
HETATM   18  C   UNL     1     -10.624  19.208  66.753  1.00  0.00    -0.528 C  
BRANCH  18  19
HETATM   19  C   UNL     1      -9.853  20.370  67.379  1.00  0.00    -0.587 C  
BRANCH  19  20
HETATM   20  C   UNL     1      -8.415  20.000  67.604  1.00  0.00    -0.378 C  
HETATM   21  C   UNL     1      -7.942  19.499  68.754  1.00  0.00    -0.362 C  
HETATM   22  C   UNL     1      -6.496  19.133  68.980  1.00  0.00    -0.314 C  
HETATM   23  C   UNL     1      -6.369  17.635  69.252  1.00  0.00    -0.247 C  
HETATM   24  C   UNL     1      -5.927  19.943  70.145  1.00  0.00    -0.363 C  
ENDBRANCH  19  20
ENDBRANCH  18  19
ENDBRANCH  17  18
ENDBRANCH  16  17
ENDBRANCH  13  16
ENDBRANCH  11  12
ENDBRANCH   9  11
ENDBRANCH   2   3
TORSDOF 8
ENDMDL
MODEL      102
REMARK 921   NORMALIZED FREE ENERGY PREDICTED BY IDOCK:   -4.90 KCAL/MOL
REMARK 922        TOTAL FREE ENERGY PREDICTED BY IDOCK:   -8.40 KCAL/MOL
REMARK 923 INTER-LIGAND FREE ENERGY PREDICTED BY IDOCK:   -7.14 KCAL/MOL
REMARK 924 INTRA-LIGAND FREE ENERGY PREDICTED BY IDOCK:   -1.26 KCAL/MOL
REMARK 927      BINDING AFFINITY PREDICTED BY RF-SCORE:    0.00 PKD
ROOT
HETATM    1  C   UNL     1     -12.493  14.919  64.144  1.00  0.00    -0.065 C  
HETATM    2  O   UNL     1     -12.547  13.761  64.968  1.00  0.00    -0.557 OA 
ENDROOT
BRANCH   2   3
HETATM    3  C   UNL     1     -11.735  13.760  66.075  1.00  0.00    -0.363 A  
HETATM    4  C   UNL     1     -10.397  13.438  65.825  1.00  0.00    -0.293 A  
HETATM    5  O   UNL     1      -9.984  13.135  64.557  1.00  0.00    -0.597 OA 
HETATM    6  C   UNL     1      -9.456  13.401  66.845  1.00  0.00    -0.253 A  
HETATM    7  C   UNL     1      -9.862  13.654  68.155  1.00  0.00    -0.236 A  
HETATM    8  H   UNL     1      -9.075  12.917  64.387  1.00  0.00     0.000 HD 
HETATM    9  C   UNL     1     -11.208  13.934  68.442  1.00  0.00    -0.291 A  
HETATM   10  C   UNL     1     -12.135  14.018  67.387  1.00  0.00    -0.384 A  
BRANCH   9  11
HETATM   11  C   UNL     1     -11.656  14.104  69.871  1.00  0.00    -0.264 C  
BRANCH  11  12
HETATM   12  N   UNL     1     -12.060  12.854  70.466  1.00  0.00    -0.497 N  
HETATM   13  C   UNL     1     -12.910  12.845  71.546  1.00  0.00    -0.282 C  
HETATM   14  H   UNL     1     -11.714  11.973  70.084  1.00  0.00     0.000 HD 
HETATM   15  O   UNL     1     -13.368  13.864  72.052  1.00  0.00    -0.365 OA 
BRANCH  13  16
HETATM   16  C   UNL     1     -13.220  11.458  72.072  1.00  0.00    -0.432 C  
BRANCH  16  17
HETATM   17  C   UNL     1     -13.022  10.375  71.011  1.00  0.00    -0.490 C  
BRANCH  17  18
HETATM   18  C   UNL     1     -12.303   9.142  71.572  1.00  0.00    -0.421 C  
BRANCH  18  19
HETATM   19  C   UNL     1     -10.790   9.349  71.617  1.00  0.00    -0.348 C  
BRANCH  19  20
HETATM   20  C   UNL     1     -10.161   9.006  70.296  1.00  0.00    -0.235 C  
HETATM   21  C   UNL     1      -9.969   9.889  69.307  1.00  0.00    -0.217 C  
HETATM   22  C   UNL     1      -9.342   9.541  67.979  1.00  0.00    -0.143 C  
HETATM   23  C   UNL     1      -8.041  10.320  67.792  1.00  0.00    -0.103 C  
HETATM   24  C   UNL     1     -10.319   9.843  66.843  1.00  0.00    -0.300 C  
ENDBRANCH  19  20
ENDBRANCH  18  19
ENDBRANCH  17  18
ENDBRANCH  16  17
ENDBRANCH  13  16
ENDBRANCH  11  12
ENDBRANCH   9  11
ENDBRANCH   2   3
TORSDOF 8
ENDMDL
MODEL      103
REMARK 921   NORMALIZED FREE ENERGY PREDICTED BY IDOCK:   -4.89 KCAL/MOL
REMARK 922        TOTAL FREE ENERGY PREDICTED BY IDOCK:   -8.39 KCAL/MOL
REMARK 923 INTER-LIGAND FREE ENERGY PREDICTED BY IDOCK:   -7.70 KCAL/MOL
REMARK 924 INTRA-LIGAND FREE ENERGY PREDICTED BY IDOCK:   -0.69 KCAL/MOL
REMARK 927      BINDING AFFINITY PREDICTED BY RF-SCORE:    0.00 PKD
ROOT
HETATM    1  C   UNL     1     -11.008   5.517  73.548  1.00  0.00    -0.240 C  
HETATM    2  O   UNL     1     -10.661   6.859  73.867  1.00  0.00    -0.369 OA 
ENDROOT
BRANCH   2   3
HETATM    3  C   UNL     1     -10.393   7.690  72.808  1.00  0.00    -0.295 A  
HETATM    4  C   UNL     1      -9.061   7.688  72.378  1.00  0.00    -0.143 A  
HETATM    5  O   UNL     1      -8.131   6.913  73.014  1.00  0.00    -0.106 OA 
HETATM    6  C   UNL     1      -8.640   8.474  71.315  1.00  0.00    -0.219 A  
HETATM    7  C   UNL     1      -9.558   9.313  70.684  1.00  0.00    -0.334 A  
HETATM    8  H   UNL     1      -7.227   6.911  72.723  1.00  0.00     0.000 HD 
HETATM    9  C   UNL     1     -10.891   9.371  71.124  1.00  0.00    -0.427 A  
HETATM   10  C   UNL     1     -11.308   8.527  72.169  1.00  0.00    -0.442 A  
BRANCH   9  11
HETATM   11  C   UNL     1     -11.849  10.355  70.503  1.00  0.00    -0.337 C  
BRANCH  11  12
HETATM   12  N   UNL     1     -11.178  11.537  70.022  1.00  0.00    -0.489 N  
HETATM   13  C   UNL     1     -11.239  11.873  68.691  1.00  0.00    -0.257 C  
HETATM   14  H   UNL     1     -10.657  12.126  70.672  1.00  0.00     0.000 HD 
HETATM   15  O   UNL     1     -11.850  11.215  67.857  1.00  0.00    -0.601 OA 
BRANCH  13  16
HETATM   16  C   UNL     1     -10.463  13.127  68.338  1.00  0.00    -0.261 C  
BRANCH  16  17
HETATM   17  C   UNL     1     -11.322  14.388  68.429  1.00  0.00    -0.312 C  
BRANCH  17  18
HETATM   18  C   UNL     1     -11.849  14.828  67.059  1.00  0.00    -0.290 C  
BRANCH  18  19
HETATM   19  C   UNL     1     -10.707  15.204  66.115  1.00  0.00    -0.327 C  
BRANCH  19  20
HETATM   20  C   UNL     1     -10.769  14.397  64.849  1.00  0.00    -0.444 C  
HETATM   21  C   UNL     1     -11.139  13.109  64.800  1.00  0.00    -0.351 C  
HETATM   22  C   UNL     1     -11.196  12.299  63.528  1.00  0.00    -0.535 C  
HETATM   23  C   UNL     1     -12.631  11.849  63.255  1.00  0.00    -0.473 C  
HETATM   24  C   UNL     1     -10.264  11.092  63.634  1.00  0.00    -0.444 C  
ENDBRANCH  19  20
ENDBRANCH  18  19
ENDBRANCH  17  18
ENDBRANCH  16  17
ENDBRANCH  13  16
ENDBRANCH  11  12
ENDBRANCH   9  11
ENDBRANCH   2   3
TORSDOF 8
ENDMDL
MODEL      104
REMARK 921   NORMALIZED FREE ENERGY PREDICTED BY IDOCK:   -4.89 KCAL/MOL
REMARK 922        TOTAL FREE ENERGY PREDICTED BY IDOCK:   -8.39 KCAL/MOL
REMARK 923 INTER-LIGAND FREE ENERGY PREDICTED BY IDOCK:   -7.14 KCAL/MOL
REMARK 924 INTRA-LIGAND FREE ENERGY PREDICTED BY IDOCK:   -1.24 KCAL/MOL
REMARK 927      BINDING AFFINITY PREDICTED BY RF-SCORE:    0.00 PKD
ROOT
HETATM    1  C   UNL     1     -13.824  14.802  71.973  1.00  0.00    -0.448 C  
HETATM    2  O   UNL     1     -12.817  14.485  71.019  1.00  0.00    -0.318 OA 
ENDROOT
BRANCH   2   3
HETATM    3  C   UNL     1     -12.571  13.151  70.810  1.00  0.00    -0.260 A  
HETATM    4  C   UNL     1     -11.811  12.863  69.671  1.00  0.00    -0.320 A  
HETATM    5  O   UNL     1     -11.388  13.871  68.850  1.00  0.00    -0.250 OA 
HETATM    6  C   UNL     1     -11.476  11.559  69.332  1.00  0.00    -0.376 A  
HETATM    7  C   UNL     1     -11.940  10.509  70.125  1.00  0.00    -0.398 A  
HETATM    8  H   UNL     1     -10.871  13.676  68.077  1.00  0.00     0.000 HD 
HETATM    9  C   UNL     1     -12.744  10.765  71.247  1.00  0.00    -0.546 A  
HETATM   10  C   UNL     1     -13.027  12.097  71.603  1.00  0.00    -0.427 A  
BRANCH   9  11
HETATM   11  C   UNL     1     -13.325   9.621  72.036  1.00  0.00    -0.457 C  
BRANCH  11  12
HETATM   12  N   UNL     1     -12.303   8.810  72.650  1.00  0.00    -0.369 N  
HETATM   13  C   UNL     1     -11.982   7.583  72.120  1.00  0.00    -0.285 C  
HETATM   14  H   UNL     1     -11.815   9.148  73.480  1.00  0.00     0.000 HD 
HETATM   15  O   UNL     1     -12.524   7.117  71.122  1.00  0.00    -0.358 OA 
BRANCH  13  16
HETATM   16  C   UNL     1     -10.908   6.842  72.891  1.00  0.00    -0.318 C  
BRANCH  16  17
HETATM   17  C   UNL     1      -9.647   7.684  73.088  1.00  0.00    -0.314 C  
BRANCH  17  18
HETATM   18  C   UNL     1      -9.384   8.616  71.899  1.00  0.00    -0.357 C  
BRANCH  18  19
HETATM   19  C   UNL     1      -8.103   8.234  71.160  1.00  0.00    -0.124 C  
BRANCH  19  20
HETATM   20  C   UNL     1      -8.383   7.946  69.713  1.00  0.00    -0.127 C  
HETATM   21  C   UNL     1      -9.601   8.013  69.159  1.00  0.00    -0.156 C  
HETATM   22  C   UNL     1      -9.882   7.719  67.705  1.00  0.00    -0.200 C  
HETATM   23  C   UNL     1     -10.419   8.969  67.010  1.00  0.00    -0.316 C  
HETATM   24  C   UNL     1     -10.877   6.566  67.587  1.00  0.00    -0.419 C  
ENDBRANCH  19  20
ENDBRANCH  18  19
ENDBRANCH  17  18
ENDBRANCH  16  17
ENDBRANCH  13  16
ENDBRANCH  11  12
ENDBRANCH   9  11
ENDBRANCH   2   3
TORSDOF 8
ENDMDL
MODEL      105
REMARK 921   NORMALIZED FREE ENERGY PREDICTED BY IDOCK:   -4.86 KCAL/MOL
REMARK 922        TOTAL FREE ENERGY PREDICTED BY IDOCK:   -8.35 KCAL/MOL
REMARK 923 INTER-LIGAND FREE ENERGY PREDICTED BY IDOCK:   -7.53 KCAL/MOL
REMARK 924 INTRA-LIGAND FREE ENERGY PREDICTED BY IDOCK:   -0.81 KCAL/MOL
REMARK 927      BINDING AFFINITY PREDICTED BY RF-SCORE:    0.00 PKD
ROOT
HETATM    1  C   UNL     1      -7.975  20.323  67.021  1.00  0.00    -0.324 C  
HETATM    2  O   UNL     1      -8.270  19.496  68.139  1.00  0.00    -0.302 OA 
ENDROOT
BRANCH   2   3
HETATM    3  C   UNL     1      -8.602  18.193  67.866  1.00  0.00    -0.254 A  
HETATM    4  C   UNL     1      -7.787  17.234  68.477  1.00  0.00    -0.266 A  
HETATM    5  O   UNL     1      -6.735  17.622  69.262  1.00  0.00    -0.254 OA 
HETATM    6  C   UNL     1      -8.003  15.875  68.299  1.00  0.00    -0.139 A  
HETATM    7  C   UNL     1      -9.036  15.455  67.461  1.00  0.00    -0.199 A  
HETATM    8  H   UNL     1      -6.181  16.971  69.677  1.00  0.00     0.000 HD 
HETATM    9  C   UNL     1      -9.842  16.394  66.797  1.00  0.00    -0.265 A  
HETATM   10  C   UNL     1      -9.638  17.766  67.034  1.00  0.00    -0.284 A  
BRANCH   9  11
HETATM   11  C   UNL     1     -10.887  15.933  65.815  1.00  0.00    -0.254 C  
BRANCH  11  12
HETATM   12  N   UNL     1     -10.835  14.508  65.595  1.00  0.00    -0.311 N  
HETATM   13  C   UNL     1     -11.995  13.792  65.425  1.00  0.00    -0.379 C  
HETATM   14  H   UNL     1      -9.934  14.031  65.566  1.00  0.00     0.000 HD 
HETATM   15  O   UNL     1     -13.111  14.301  65.443  1.00  0.00    -0.685 OA 
BRANCH  13  16
HETATM   16  C   UNL     1     -11.776  12.305  65.230  1.00  0.00    -0.413 C  
BRANCH  16  17
HETATM   17  C   UNL     1     -10.696  11.749  66.159  1.00  0.00    -0.320 C  
BRANCH  17  18
HETATM   18  C   UNL     1     -11.285  11.196  67.462  1.00  0.00    -0.369 C  
BRANCH  18  19
HETATM   19  C   UNL     1     -11.530  12.309  68.481  1.00  0.00    -0.349 C  
BRANCH  19  20
HETATM   20  C   UNL     1     -11.600  11.754  69.875  1.00  0.00    -0.351 C  
HETATM   21  C   UNL     1     -12.004  10.510  70.167  1.00  0.00    -0.398 C  
HETATM   22  C   UNL     1     -12.077   9.956  71.568  1.00  0.00    -0.496 C  
HETATM   23  C   UNL     1     -11.117   8.777  71.720  1.00  0.00    -0.417 C  
HETATM   24  C   UNL     1     -13.510   9.529  71.888  1.00  0.00    -0.502 C  
ENDBRANCH  19  20
ENDBRANCH  18  19
ENDBRANCH  17  18
ENDBRANCH  16  17
ENDBRANCH  13  16
ENDBRANCH  11  12
ENDBRANCH   9  11
ENDBRANCH   2   3
TORSDOF 8
ENDMDL
MODEL      106
REMARK 921   NORMALIZED FREE ENERGY PREDICTED BY IDOCK:   -4.86 KCAL/MOL
REMARK 922        TOTAL FREE ENERGY PREDICTED BY IDOCK:   -8.34 KCAL/MOL
REMARK 923 INTER-LIGAND FREE ENERGY PREDICTED BY IDOCK:   -7.42 KCAL/MOL
REMARK 924 INTRA-LIGAND FREE ENERGY PREDICTED BY IDOCK:   -0.92 KCAL/MOL
REMARK 927      BINDING AFFINITY PREDICTED BY RF-SCORE:    0.00 PKD
ROOT
HETATM    1  C   UNL     1     -12.084  14.411  64.378  1.00  0.00    -0.470 C  
HETATM    2  O   UNL     1     -11.514  13.162  64.005  1.00  0.00    -0.380 OA 
ENDROOT
BRANCH   2   3
HETATM    3  C   UNL     1     -11.280  12.269  65.020  1.00  0.00    -0.321 A  
HETATM    4  C   UNL     1     -10.627  11.094  64.633  1.00  0.00    -0.318 A  
HETATM    5  O   UNL     1     -10.288  10.891  63.324  1.00  0.00    -0.518 OA 
HETATM    6  C   UNL     1     -10.317  10.098  65.550  1.00  0.00    -0.196 A  
HETATM    7  C   UNL     1     -10.700  10.258  66.882  1.00  0.00    -0.252 A  
HETATM    8  H   UNL     1      -9.844  10.093  63.061  1.00  0.00     0.000 HD 
HETATM    9  C   UNL     1     -11.398  11.406  67.290  1.00  0.00    -0.347 A  
HETATM   10  C   UNL     1     -11.654  12.425  66.355  1.00  0.00    -0.442 A  
BRANCH   9  11
HETATM   11  C   UNL     1     -11.897  11.522  68.708  1.00  0.00    -0.330 C  
BRANCH  11  12
HETATM   12  N   UNL     1     -11.232  10.600  69.595  1.00  0.00    -0.267 N  
HETATM   13  C   UNL     1     -11.781  10.300  70.818  1.00  0.00    -0.360 C  
HETATM   14  H   UNL     1     -10.351  10.169  69.313  1.00  0.00     0.000 HD 
HETATM   15  O   UNL     1     -12.838  10.776  71.218  1.00  0.00    -0.378 OA 
BRANCH  13  16
HETATM   16  C   UNL     1     -10.952   9.336  71.644  1.00  0.00    -0.433 C  
BRANCH  16  17
HETATM   17  C   UNL     1     -11.815   8.326  72.401  1.00  0.00    -0.461 C  
BRANCH  17  18
HETATM   18  C   UNL     1     -11.528   6.883  71.969  1.00  0.00    -0.310 C  
BRANCH  18  19
HETATM   19  C   UNL     1     -11.903   6.652  70.505  1.00  0.00    -0.430 C  
BRANCH  19  20
HETATM   20  C   UNL     1     -10.687   6.338  69.682  1.00  0.00    -0.367 C  
HETATM   21  C   UNL     1     -10.731   5.962  68.396  1.00  0.00    -0.323 C  
HETATM   22  C   UNL     1      -9.508   5.641  67.572  1.00  0.00    -0.117 C  
HETATM   23  C   UNL     1      -9.387   6.623  66.406  1.00  0.00    -0.175 C  
HETATM   24  C   UNL     1      -9.584   4.203  67.060  1.00  0.00    -0.228 C  
ENDBRANCH  19  20
ENDBRANCH  18  19
ENDBRANCH  17  18
ENDBRANCH  16  17
ENDBRANCH  13  16
ENDBRANCH  11  12
ENDBRANCH   9  11
ENDBRANCH   2   3
TORSDOF 8
ENDMDL
MODEL      107
REMARK 921   NORMALIZED FREE ENERGY PREDICTED BY IDOCK:   -4.85 KCAL/MOL
REMARK 922        TOTAL FREE ENERGY PREDICTED BY IDOCK:   -8.33 KCAL/MOL
REMARK 923 INTER-LIGAND FREE ENERGY PREDICTED BY IDOCK:   -7.34 KCAL/MOL
REMARK 924 INTRA-LIGAND FREE ENERGY PREDICTED BY IDOCK:   -0.99 KCAL/MOL
REMARK 927      BINDING AFFINITY PREDICTED BY RF-SCORE:    0.00 PKD
ROOT
HETATM    1  C   UNL     1     -10.833   8.402  72.066  1.00  0.00    -0.320 C  
HETATM    2  O   UNL     1     -10.678   8.152  70.674  1.00  0.00    -0.216 OA 
ENDROOT
BRANCH   2   3
HETATM    3  C   UNL     1     -10.887   9.216  69.833  1.00  0.00    -0.228 A  
HETATM    4  C   UNL     1     -10.536   8.991  68.498  1.00  0.00    -0.196 A  
HETATM    5  O   UNL     1     -10.007   7.789  68.116  1.00  0.00    -0.165 OA 
HETATM    6  C   UNL     1     -10.696   9.973  67.529  1.00  0.00    -0.339 A  
HETATM    7  C   UNL     1     -11.183  11.225  67.904  1.00  0.00    -0.353 A  
HETATM    8  H   UNL     1      -9.769   7.636  67.209  1.00  0.00     0.000 HD 
HETATM    9  C   UNL     1     -11.500  11.494  69.245  1.00  0.00    -0.370 A  
HETATM   10  C   UNL     1     -11.380  10.469  70.201  1.00  0.00    -0.400 A  
BRANCH   9  11
HETATM   11  C   UNL     1     -11.927  12.880  69.657  1.00  0.00    -0.292 C  
BRANCH  11  12
HETATM   12  N   UNL     1     -10.866  13.844  69.502  1.00  0.00    -0.447 N  
HETATM   13  C   UNL     1     -11.143  15.189  69.542  1.00  0.00    -0.277 C  
HETATM   14  H   UNL     1      -9.906  13.526  69.364  1.00  0.00     0.000 HD 
HETATM   15  O   UNL     1     -12.271  15.641  69.710  1.00  0.00    -0.360 OA 
BRANCH  13  16
HETATM   16  C   UNL     1      -9.929  16.073  69.339  1.00  0.00    -0.262 C  
BRANCH  16  17
HETATM   17  C   UNL     1      -9.960  16.808  67.999  1.00  0.00    -0.272 C  
BRANCH  17  18
HETATM   18  C   UNL     1     -10.735  16.028  66.931  1.00  0.00    -0.262 C  
BRANCH  18  19
HETATM   19  C   UNL     1      -9.797  15.428  65.884  1.00  0.00    -0.387 C  
BRANCH  19  20
HETATM   20  C   UNL     1     -10.153  13.997  65.601  1.00  0.00    -0.342 C  
HETATM   21  C   UNL     1     -10.511  13.540  64.393  1.00  0.00    -0.366 C  
HETATM   22  C   UNL     1     -10.873  12.102  64.110  1.00  0.00    -0.410 C  
HETATM   23  C   UNL     1      -9.883  11.496  63.117  1.00  0.00    -0.413 C  
HETATM   24  C   UNL     1     -12.300  12.018  63.569  1.00  0.00    -0.661 C  
ENDBRANCH  19  20
ENDBRANCH  18  19
ENDBRANCH  17  18
ENDBRANCH  16  17
ENDBRANCH  13  16
ENDBRANCH  11  12
ENDBRANCH   9  11
ENDBRANCH   2   3
TORSDOF 8
ENDMDL
MODEL      108
REMARK 921   NORMALIZED FREE ENERGY PREDICTED BY IDOCK:   -4.85 KCAL/MOL
REMARK 922        TOTAL FREE ENERGY PREDICTED BY IDOCK:   -8.33 KCAL/MOL
REMARK 923 INTER-LIGAND FREE ENERGY PREDICTED BY IDOCK:   -7.38 KCAL/MOL
REMARK 924 INTRA-LIGAND FREE ENERGY PREDICTED BY IDOCK:   -0.95 KCAL/MOL
REMARK 927      BINDING AFFINITY PREDICTED BY RF-SCORE:    0.00 PKD
ROOT
HETATM    1  C   UNL     1     -12.259  12.612  63.696  1.00  0.00    -0.536 C  
HETATM    2  O   UNL     1     -11.090  12.789  64.486  1.00  0.00    -0.300 OA 
ENDROOT
BRANCH   2   3
HETATM    3  C   UNL     1     -10.474  11.647  64.933  1.00  0.00    -0.288 A  
HETATM    4  C   UNL     1      -9.510  11.119  64.068  1.00  0.00    -0.214 A  
HETATM    5  O   UNL     1      -9.254  11.724  62.868  1.00  0.00    -0.604 OA 
HETATM    6  C   UNL     1      -8.799   9.970  64.386  1.00  0.00    -0.239 A  
HETATM    7  C   UNL     1      -9.079   9.306  65.580  1.00  0.00    -0.275 A  
HETATM    8  H   UNL     1      -8.599  11.366  62.280  1.00  0.00     0.000 HD 
HETATM    9  C   UNL     1     -10.074   9.786  66.446  1.00  0.00    -0.313 A  
HETATM   10  C   UNL     1     -10.745  10.982  66.129  1.00  0.00    -0.257 A  
BRANCH   9  11
HETATM   11  C   UNL     1     -10.441   9.006  67.682  1.00  0.00    -0.260 C  
BRANCH  11  12
HETATM   12  N   UNL     1     -11.292   9.761  68.568  1.00  0.00    -0.508 N  
HETATM   13  C   UNL     1     -10.819  10.184  69.787  1.00  0.00    -0.279 C  
HETATM   14  H   UNL     1     -12.249   9.981  68.290  1.00  0.00     0.000 HD 
HETATM   15  O   UNL     1      -9.680   9.960  70.183  1.00  0.00    -0.247 OA 
BRANCH  13  16
HETATM   16  C   UNL     1     -11.839  10.943  70.612  1.00  0.00    -0.453 C  
BRANCH  16  17
HETATM   17  C   UNL     1     -13.146  10.167  70.778  1.00  0.00    -0.351 C  
BRANCH  17  18
HETATM   18  C   UNL     1     -13.061   9.126  71.900  1.00  0.00    -0.478 C  
BRANCH  18  19
HETATM   19  C   UNL     1     -13.608   7.772  71.450  1.00  0.00    -0.334 C  
BRANCH  19  20
HETATM   20  C   UNL     1     -12.520   6.736  71.421  1.00  0.00    -0.379 C  
HETATM   21  C   UNL     1     -11.488   6.760  70.567  1.00  0.00    -0.413 C  
HETATM   22  C   UNL     1     -10.398   5.716  70.536  1.00  0.00    -0.327 C  
HETATM   23  C   UNL     1      -9.050   6.352  70.869  1.00  0.00    -0.151 C  
HETATM   24  C   UNL     1     -10.354   5.046  69.162  1.00  0.00    -0.174 C  
ENDBRANCH  19  20
ENDBRANCH  18  19
ENDBRANCH  17  18
ENDBRANCH  16  17
ENDBRANCH  13  16
ENDBRANCH  11  12
ENDBRANCH   9  11
ENDBRANCH   2   3
TORSDOF 8
ENDMDL
MODEL      109
REMARK 921   NORMALIZED FREE ENERGY PREDICTED BY IDOCK:   -4.82 KCAL/MOL
REMARK 922        TOTAL FREE ENERGY PREDICTED BY IDOCK:   -8.29 KCAL/MOL
REMARK 923 INTER-LIGAND FREE ENERGY PREDICTED BY IDOCK:   -7.25 KCAL/MOL
REMARK 924 INTRA-LIGAND FREE ENERGY PREDICTED BY IDOCK:   -1.04 KCAL/MOL
REMARK 927      BINDING AFFINITY PREDICTED BY RF-SCORE:    0.00 PKD
ROOT
HETATM    1  C   UNL     1     -10.377   5.367  70.407  1.00  0.00    -0.283 C  
HETATM    2  O   UNL     1     -11.508   6.109  70.847  1.00  0.00    -0.315 OA 
ENDROOT
BRANCH   2   3
HETATM    3  C   UNL     1     -11.418   7.475  70.756  1.00  0.00    -0.284 A  
HETATM    4  C   UNL     1     -12.418   8.179  71.436  1.00  0.00    -0.292 A  
HETATM    5  O   UNL     1     -13.402   7.506  72.107  1.00  0.00    -0.505 OA 
HETATM    6  C   UNL     1     -12.456   9.567  71.439  1.00  0.00    -0.450 A  
HETATM    7  C   UNL     1     -11.494  10.275  70.718  1.00  0.00    -0.438 A  
HETATM    8  H   UNL     1     -14.081   7.984  72.569  1.00  0.00     0.000 HD 
HETATM    9  C   UNL     1     -10.506   9.594  69.988  1.00  0.00    -0.301 A  
HETATM   10  C   UNL     1     -10.456   8.189  70.042  1.00  0.00    -0.231 A  
BRANCH   9  11
HETATM   11  C   UNL     1      -9.536  10.364  69.130  1.00  0.00    -0.213 C  
BRANCH  11  12
HETATM   12  N   UNL     1      -9.991  10.480  67.766  1.00  0.00    -0.168 N  
HETATM   13  C   UNL     1      -9.340   9.806  66.761  1.00  0.00    -0.152 C  
HETATM   14  H   UNL     1     -10.799  11.064  67.547  1.00  0.00     0.000 HD 
HETATM   15  O   UNL     1      -8.368   9.083  66.953  1.00  0.00    -0.117 OA 
BRANCH  13  16
HETATM   16  C   UNL     1      -9.921  10.048  65.382  1.00  0.00    -0.364 C  
BRANCH  16  17
HETATM   17  C   UNL     1      -9.934  11.531  65.009  1.00  0.00    -0.305 C  
BRANCH  17  18
HETATM   18  C   UNL     1     -11.202  11.921  64.240  1.00  0.00    -0.424 C  
BRANCH  18  19
HETATM   19  C   UNL     1     -12.193  12.664  65.135  1.00  0.00    -0.539 C  
BRANCH  19  20
HETATM   20  C   UNL     1     -11.511  13.201  66.361  1.00  0.00    -0.374 C  
HETATM   21  C   UNL     1     -12.143  13.867  67.338  1.00  0.00    -0.380 C  
HETATM   22  C   UNL     1     -11.456  14.409  68.567  1.00  0.00    -0.326 C  
HETATM   23  C   UNL     1     -12.009  13.733  69.821  1.00  0.00    -0.406 C  
HETATM   24  C   UNL     1     -11.643  15.924  68.645  1.00  0.00    -0.383 C  
ENDBRANCH  19  20
ENDBRANCH  18  19
ENDBRANCH  17  18
ENDBRANCH  16  17
ENDBRANCH  13  16
ENDBRANCH  11  12
ENDBRANCH   9  11
ENDBRANCH   2   3
TORSDOF 8
ENDMDL
MODEL      110
REMARK 921   NORMALIZED FREE ENERGY PREDICTED BY IDOCK:   -4.81 KCAL/MOL
REMARK 922        TOTAL FREE ENERGY PREDICTED BY IDOCK:   -8.27 KCAL/MOL
REMARK 923 INTER-LIGAND FREE ENERGY PREDICTED BY IDOCK:   -7.39 KCAL/MOL
REMARK 924 INTRA-LIGAND FREE ENERGY PREDICTED BY IDOCK:   -0.89 KCAL/MOL
REMARK 927      BINDING AFFINITY PREDICTED BY RF-SCORE:    0.00 PKD
ROOT
HETATM    1  C   UNL     1     -12.607  13.846  65.871  1.00  0.00    -0.456 C  
HETATM    2  O   UNL     1     -12.586  12.557  65.270  1.00  0.00    -0.645 OA 
ENDROOT
BRANCH   2   3
HETATM    3  C   UNL     1     -11.349  12.025  65.005  1.00  0.00    -0.310 A  
HETATM    4  C   UNL     1     -11.200  11.488  63.722  1.00  0.00    -0.370 A  
HETATM    5  O   UNL     1     -12.247  11.499  62.842  1.00  0.00    -0.942 OA 
HETATM    6  C   UNL     1     -10.003  10.920  63.307  1.00  0.00    -0.399 A  
HETATM    7  C   UNL     1      -8.937  10.849  64.203  1.00  0.00    -0.113 A  
HETATM    8  H   UNL     1     -12.145  11.135  61.971  1.00  0.00     0.000 HD 
HETATM    9  C   UNL     1      -9.073  11.337  65.513  1.00  0.00    -0.184 A  
HETATM   10  C   UNL     1     -10.277  11.957  65.895  1.00  0.00    -0.270 A  
BRANCH   9  11
HETATM   11  C   UNL     1      -7.951  11.163  66.504  1.00  0.00    -0.158 C  
BRANCH  11  12
HETATM   12  N   UNL     1      -7.237  12.394  66.737  1.00  0.00    -0.369 N  
HETATM   13  C   UNL     1      -7.519  13.158  67.844  1.00  0.00    -0.136 C  
HETATM   14  H   UNL     1      -6.519  12.698  66.079  1.00  0.00     0.000 HD 
HETATM   15  O   UNL     1      -8.365  12.851  68.678  1.00  0.00    -0.091 OA 
BRANCH  13  16
HETATM   16  C   UNL     1      -6.703  14.432  67.935  1.00  0.00    -0.177 C  
BRANCH  16  17
HETATM   17  C   UNL     1      -7.381  15.610  67.233  1.00  0.00    -0.255 C  
BRANCH  17  18
HETATM   18  C   UNL     1      -7.929  16.638  68.230  1.00  0.00    -0.192 C  
BRANCH  18  19
HETATM   19  C   UNL     1      -9.449  16.543  68.353  1.00  0.00    -0.223 C  
BRANCH  19  20
HETATM   20  C   UNL     1      -9.844  15.847  69.624  1.00  0.00    -0.238 C  
HETATM   21  C   UNL     1     -11.071  15.908  70.161  1.00  0.00    -0.369 C  
HETATM   22  C   UNL     1     -11.464  15.212  71.441  1.00  0.00    -0.405 C  
HETATM   23  C   UNL     1     -12.553  14.176  71.164  1.00  0.00    -0.439 C  
HETATM   24  C   UNL     1     -11.945  16.237  72.468  1.00  0.00    -0.648 C  
ENDBRANCH  19  20
ENDBRANCH  18  19
ENDBRANCH  17  18
ENDBRANCH  16  17
ENDBRANCH  13  16
ENDBRANCH  11  12
ENDBRANCH   9  11
ENDBRANCH   2   3
TORSDOF 8
ENDMDL
MODEL      111
REMARK 921   NORMALIZED FREE ENERGY PREDICTED BY IDOCK:   -4.81 KCAL/MOL
REMARK 922        TOTAL FREE ENERGY PREDICTED BY IDOCK:   -8.27 KCAL/MOL
REMARK 923 INTER-LIGAND FREE ENERGY PREDICTED BY IDOCK:   -7.64 KCAL/MOL
REMARK 924 INTRA-LIGAND FREE ENERGY PREDICTED BY IDOCK:   -0.64 KCAL/MOL
REMARK 927      BINDING AFFINITY PREDICTED BY RF-SCORE:    0.00 PKD
ROOT
HETATM    1  C   UNL     1     -12.227  15.943  72.097  1.00  0.00    -0.494 C  
HETATM    2  O   UNL     1     -12.442  15.563  70.743  1.00  0.00    -0.387 OA 
ENDROOT
BRANCH   2   3
HETATM    3  C   UNL     1     -12.335  14.225  70.459  1.00  0.00    -0.360 A  
HETATM    4  C   UNL     1     -11.828  13.930  69.189  1.00  0.00    -0.358 A  
HETATM    5  O   UNL     1     -11.498  14.938  68.326  1.00  0.00    -0.297 OA 
HETATM    6  C   UNL     1     -11.657  12.620  68.761  1.00  0.00    -0.355 A  
HETATM    7  C   UNL     1     -12.036  11.575  69.603  1.00  0.00    -0.407 A  
HETATM    8  H   UNL     1     -11.153  14.738  67.464  1.00  0.00     0.000 HD 
HETATM    9  C   UNL     1     -12.592  11.841  70.864  1.00  0.00    -0.384 A  
HETATM   10  C   UNL     1     -12.706  13.174  71.299  1.00  0.00    -0.396 A  
BRANCH   9  11
HETATM   11  C   UNL     1     -13.093  10.709  71.723  1.00  0.00    -0.466 C  
BRANCH  11  12
HETATM   12  N   UNL     1     -12.081   9.703  71.940  1.00  0.00    -0.359 N  
HETATM   13  C   UNL     1     -12.418   8.371  71.931  1.00  0.00    -0.347 C  
HETATM   14  H   UNL     1     -11.113   9.982  72.100  1.00  0.00     0.000 HD 
HETATM   15  O   UNL     1     -13.560   7.965  71.741  1.00  0.00    -0.344 OA 
BRANCH  13  16
HETATM   16  C   UNL     1     -11.251   7.441  72.199  1.00  0.00    -0.302 C  
BRANCH  16  17
HETATM   17  C   UNL     1     -11.631   5.969  72.037  1.00  0.00    -0.333 C  
BRANCH  17  18
HETATM   18  C   UNL     1     -10.458   5.033  72.349  1.00  0.00    -0.275 C  
BRANCH  18  19
HETATM   19  C   UNL     1      -9.623   4.747  71.101  1.00  0.00    -0.235 C  
BRANCH  19  20
HETATM   20  C   UNL     1     -10.403   5.047  69.852  1.00  0.00    -0.298 C  
HETATM   21  C   UNL     1      -9.866   5.578  68.745  1.00  0.00    -0.206 C  
HETATM   22  C   UNL     1     -10.652   5.883  67.493  1.00  0.00    -0.347 C  
HETATM   23  C   UNL     1     -10.133   5.042  66.327  1.00  0.00    -0.275 C  
HETATM   24  C   UNL     1     -10.557   7.374  67.166  1.00  0.00    -0.413 C  
ENDBRANCH  19  20
ENDBRANCH  18  19
ENDBRANCH  17  18
ENDBRANCH  16  17
ENDBRANCH  13  16
ENDBRANCH  11  12
ENDBRANCH   9  11
ENDBRANCH   2   3
TORSDOF 8
ENDMDL
MODEL      112
REMARK 921   NORMALIZED FREE ENERGY PREDICTED BY IDOCK:   -4.81 KCAL/MOL
REMARK 922        TOTAL FREE ENERGY PREDICTED BY IDOCK:   -8.27 KCAL/MOL
REMARK 923 INTER-LIGAND FREE ENERGY PREDICTED BY IDOCK:   -7.38 KCAL/MOL
REMARK 924 INTRA-LIGAND FREE ENERGY PREDICTED BY IDOCK:   -0.89 KCAL/MOL
REMARK 927      BINDING AFFINITY PREDICTED BY RF-SCORE:    0.00 PKD
ROOT
HETATM    1  C   UNL     1     -10.449   9.886  66.241  1.00  0.00    -0.101 C  
HETATM    2  O   UNL     1      -9.584   8.893  66.776  1.00  0.00    -0.169 OA 
ENDROOT
BRANCH   2   3
HETATM    3  C   UNL     1     -10.099   8.107  67.777  1.00  0.00    -0.204 A  
HETATM    4  C   UNL     1     -10.298   6.766  67.431  1.00  0.00    -0.223 A  
HETATM    5  O   UNL     1     -10.004   6.327  66.170  1.00  0.00    -0.388 OA 
HETATM    6  C   UNL     1     -10.807   5.849  68.340  1.00  0.00    -0.322 A  
HETATM    7  C   UNL     1     -11.165   6.284  69.617  1.00  0.00    -0.506 A  
HETATM    8  H   UNL     1     -10.138   5.416  65.935  1.00  0.00     0.000 HD 
HETATM    9  C   UNL     1     -11.021   7.633  69.976  1.00  0.00    -0.237 A  
HETATM   10  C   UNL     1     -10.453   8.534  69.057  1.00  0.00    -0.216 A  
BRANCH   9  11
HETATM   11  C   UNL     1     -11.505   8.113  71.321  1.00  0.00    -0.266 C  
BRANCH  11  12
HETATM   12  N   UNL     1     -11.770   9.530  71.328  1.00  0.00    -0.340 N  
HETATM   13  C   UNL     1     -12.958  10.009  71.828  1.00  0.00    -0.458 C  
HETATM   14  H   UNL     1     -11.074  10.180  70.963  1.00  0.00     0.000 HD 
HETATM   15  O   UNL     1     -13.836   9.286  72.287  1.00  0.00    -0.453 OA 
BRANCH  13  16
HETATM   16  C   UNL     1     -13.097  11.516  71.743  1.00  0.00    -0.503 C  
BRANCH  16  17
HETATM   17  C   UNL     1     -12.484  12.086  70.464  1.00  0.00    -0.292 C  
BRANCH  17  18
HETATM   18  C   UNL     1     -11.931  13.501  70.671  1.00  0.00    -0.308 C  
BRANCH  18  19
HETATM   19  C   UNL     1     -12.293  14.420  69.505  1.00  0.00    -0.263 C  
BRANCH  19  20
HETATM   20  C   UNL     1     -11.631  13.963  68.236  1.00  0.00    -0.372 C  
HETATM   21  C   UNL     1     -12.148  14.149  67.013  1.00  0.00    -0.449 C  
HETATM   22  C   UNL     1     -11.484  13.685  65.740  1.00  0.00    -0.326 C  
HETATM   23  C   UNL     1     -11.140  14.885  64.858  1.00  0.00    -0.424 C  
HETATM   24  C   UNL     1     -12.400  12.714  64.995  1.00  0.00    -0.561 C  
ENDBRANCH  19  20
ENDBRANCH  18  19
ENDBRANCH  17  18
ENDBRANCH  16  17
ENDBRANCH  13  16
ENDBRANCH  11  12
ENDBRANCH   9  11
ENDBRANCH   2   3
TORSDOF 8
ENDMDL
MODEL      113
REMARK 921   NORMALIZED FREE ENERGY PREDICTED BY IDOCK:   -4.81 KCAL/MOL
REMARK 922        TOTAL FREE ENERGY PREDICTED BY IDOCK:   -8.27 KCAL/MOL
REMARK 923 INTER-LIGAND FREE ENERGY PREDICTED BY IDOCK:   -7.47 KCAL/MOL
REMARK 924 INTRA-LIGAND FREE ENERGY PREDICTED BY IDOCK:   -0.80 KCAL/MOL
REMARK 927      BINDING AFFINITY PREDICTED BY RF-SCORE:    0.00 PKD
ROOT
HETATM    1  C   UNL     1     -10.712   6.052  70.458  1.00  0.00    -0.284 C  
HETATM    2  O   UNL     1     -11.895   6.651  70.970  1.00  0.00    -0.348 OA 
ENDROOT
BRANCH   2   3
HETATM    3  C   UNL     1     -11.969   8.019  70.900  1.00  0.00    -0.189 A  
HETATM    4  C   UNL     1     -13.044   8.590  71.590  1.00  0.00    -0.341 A  
HETATM    5  O   UNL     1     -13.939   7.795  72.252  1.00  0.00    -0.532 OA 
HETATM    6  C   UNL     1     -13.246   9.963  71.615  1.00  0.00    -0.519 A  
HETATM    7  C   UNL     1     -12.377  10.791  70.903  1.00  0.00    -0.497 A  
HETATM    8  H   UNL     1     -14.669   8.182  72.721  1.00  0.00     0.000 HD 
HETATM    9  C   UNL     1     -11.317  10.243  70.163  1.00  0.00    -0.388 A  
HETATM   10  C   UNL     1     -11.099   8.854  70.196  1.00  0.00    -0.217 A  
BRANCH   9  11
HETATM   11  C   UNL     1     -10.447  11.136  69.316  1.00  0.00    -0.151 C  
BRANCH  11  12
HETATM   12  N   UNL     1     -10.792  11.062  67.918  1.00  0.00    -0.217 N  
HETATM   13  C   UNL     1     -11.462  12.100  67.315  1.00  0.00    -0.345 C  
HETATM   14  H   UNL     1     -10.538  10.238  67.374  1.00  0.00     0.000 HD 
HETATM   15  O   UNL     1     -11.794  13.122  67.907  1.00  0.00    -0.342 OA 
BRANCH  13  16
HETATM   16  C   UNL     1     -11.775  11.862  65.851  1.00  0.00    -0.208 C  
BRANCH  16  17
HETATM   17  C   UNL     1     -12.571  13.011  65.232  1.00  0.00    -0.516 C  
BRANCH  17  18
HETATM   18  C   UNL     1     -11.735  13.820  64.234  1.00  0.00    -0.426 C  
BRANCH  18  19
HETATM   19  C   UNL     1     -11.439  15.224  64.761  1.00  0.00    -0.364 C  
BRANCH  19  20
HETATM   20  C   UNL     1     -10.148  15.249  65.529  1.00  0.00    -0.408 C  
HETATM   21  C   UNL     1      -9.615  16.358  66.061  1.00  0.00    -0.352 C  
HETATM   22  C   UNL     1      -8.316  16.382  66.827  1.00  0.00    -0.285 C  
HETATM   23  C   UNL     1      -8.564  16.824  68.269  1.00  0.00    -0.226 C  
HETATM   24  C   UNL     1      -7.320  17.317  66.141  1.00  0.00    -0.316 C  
ENDBRANCH  19  20
ENDBRANCH  18  19
ENDBRANCH  17  18
ENDBRANCH  16  17
ENDBRANCH  13  16
ENDBRANCH  11  12
ENDBRANCH   9  11
ENDBRANCH   2   3
TORSDOF 8
ENDMDL
MODEL      114
REMARK 921   NORMALIZED FREE ENERGY PREDICTED BY IDOCK:   -4.81 KCAL/MOL
REMARK 922        TOTAL FREE ENERGY PREDICTED BY IDOCK:   -8.26 KCAL/MOL
REMARK 923 INTER-LIGAND FREE ENERGY PREDICTED BY IDOCK:   -7.38 KCAL/MOL
REMARK 924 INTRA-LIGAND FREE ENERGY PREDICTED BY IDOCK:   -0.88 KCAL/MOL
REMARK 927      BINDING AFFINITY PREDICTED BY RF-SCORE:    0.00 PKD
ROOT
HETATM    1  C   UNL     1     -12.533  13.605  66.186  1.00  0.00    -0.395 C  
HETATM    2  O   UNL     1     -12.587  12.410  65.417  1.00  0.00    -0.637 OA 
ENDROOT
BRANCH   2   3
HETATM    3  C   UNL     1     -11.384  11.859  65.055  1.00  0.00    -0.273 A  
HETATM    4  C   UNL     1     -11.304  11.435  63.724  1.00  0.00    -0.221 A  
HETATM    5  O   UNL     1     -12.383  11.564  62.893  1.00  0.00    -0.958 OA 
HETATM    6  C   UNL     1     -10.148  10.864  63.211  1.00  0.00    -0.368 A  
HETATM    7  C   UNL     1      -9.052  10.674  64.053  1.00  0.00    -0.246 A  
HETATM    8  H   UNL     1     -12.329  11.276  61.989  1.00  0.00     0.000 HD 
HETATM    9  C   UNL     1      -9.119  11.046  65.405  1.00  0.00    -0.213 A  
HETATM   10  C   UNL     1     -10.282  11.672  65.891  1.00  0.00    -0.277 A  
BRANCH   9  11
HETATM   11  C   UNL     1      -7.969  10.743  66.330  1.00  0.00    -0.151 C  
BRANCH  11  12
HETATM   12  N   UNL     1      -7.180  11.916  66.619  1.00  0.00    -0.376 N  
HETATM   13  C   UNL     1      -7.159  12.439  67.889  1.00  0.00    -0.109 C  
HETATM   14  H   UNL     1      -6.636  12.358  65.877  1.00  0.00     0.000 HD 
HETATM   15  O   UNL     1      -7.783  11.956  68.828  1.00  0.00    -0.127 OA 
BRANCH  13  16
HETATM   16  C   UNL     1      -6.305  13.684  68.027  1.00  0.00    -0.139 C  
BRANCH  16  17
HETATM   17  C   UNL     1      -7.034  14.944  67.558  1.00  0.00    -0.203 C  
BRANCH  17  18
HETATM   18  C   UNL     1      -8.557  14.770  67.575  1.00  0.00    -0.198 C  
BRANCH  18  19
HETATM   19  C   UNL     1      -9.205  15.394  66.339  1.00  0.00    -0.339 C  
BRANCH  19  20
HETATM   20  C   UNL     1     -10.027  16.595  66.713  1.00  0.00    -0.284 C  
HETATM   21  C   UNL     1      -9.509  17.800  66.988  1.00  0.00    -0.271 C  
HETATM   22  C   UNL     1     -10.336  19.004  67.368  1.00  0.00    -0.504 C  
HETATM   23  C   UNL     1     -10.174  20.105  66.321  1.00  0.00    -0.541 C  
HETATM   24  C   UNL     1      -9.922  19.509  68.750  1.00  0.00    -0.547 C  
ENDBRANCH  19  20
ENDBRANCH  18  19
ENDBRANCH  17  18
ENDBRANCH  16  17
ENDBRANCH  13  16
ENDBRANCH  11  12
ENDBRANCH   9  11
ENDBRANCH   2   3
TORSDOF 8
ENDMDL
MODEL      115
REMARK 921   NORMALIZED FREE ENERGY PREDICTED BY IDOCK:   -4.80 KCAL/MOL
REMARK 922        TOTAL FREE ENERGY PREDICTED BY IDOCK:   -8.25 KCAL/MOL
REMARK 923 INTER-LIGAND FREE ENERGY PREDICTED BY IDOCK:   -6.75 KCAL/MOL
REMARK 924 INTRA-LIGAND FREE ENERGY PREDICTED BY IDOCK:   -1.50 KCAL/MOL
REMARK 927      BINDING AFFINITY PREDICTED BY RF-SCORE:    0.00 PKD
ROOT
HETATM    1  C   UNL     1     -12.118  12.943  69.664  1.00  0.00    -0.226 C  
HETATM    2  O   UNL     1     -12.443  14.313  69.464  1.00  0.00    -0.292 OA 
ENDROOT
BRANCH   2   3
HETATM    3  C   UNL     1     -11.754  14.968  68.475  1.00  0.00    -0.320 A  
HETATM    4  C   UNL     1     -11.102  16.136  68.884  1.00  0.00    -0.347 A  
HETATM    5  O   UNL     1     -11.194  16.561  70.181  1.00  0.00    -0.439 OA 
HETATM    6  C   UNL     1     -10.359  16.903  67.997  1.00  0.00    -0.334 A  
HETATM    7  C   UNL     1     -10.293  16.520  66.657  1.00  0.00    -0.298 A  
HETATM    8  H   UNL     1     -10.751  17.354  70.459  1.00  0.00     0.000 HD 
HETATM    9  C   UNL     1     -10.977  15.379  66.208  1.00  0.00    -0.278 A  
HETATM   10  C   UNL     1     -11.679  14.587  67.135  1.00  0.00    -0.420 A  
BRANCH   9  11
HETATM   11  C   UNL     1     -10.984  15.031  64.742  1.00  0.00    -0.373 C  
BRANCH  11  12
HETATM   12  N   UNL     1     -10.249  13.820  64.467  1.00  0.00    -0.675 N  
HETATM   13  C   UNL     1     -10.903  12.706  63.997  1.00  0.00    -0.415 C  
HETATM   14  H   UNL     1      -9.241  13.791  64.621  1.00  0.00     0.000 HD 
HETATM   15  O   UNL     1     -12.110  12.673  63.784  1.00  0.00    -0.439 OA 
BRANCH  13  16
HETATM   16  C   UNL     1      -9.999  11.509  63.781  1.00  0.00    -0.384 C  
BRANCH  16  17
HETATM   17  C   UNL     1      -9.913  10.614  65.018  1.00  0.00    -0.369 C  
BRANCH  17  18
HETATM   18  C   UNL     1      -8.898  11.139  66.040  1.00  0.00    -0.196 C  
BRANCH  18  19
HETATM   19  C   UNL     1      -9.550  11.386  67.400  1.00  0.00    -0.185 C  
BRANCH  19  20
HETATM   20  C   UNL     1      -9.010  12.636  68.035  1.00  0.00    -0.200 C  
HETATM   21  C   UNL     1      -7.706  12.938  68.103  1.00  0.00    -0.138 C  
HETATM   22  C   UNL     1      -7.166  14.191  68.746  1.00  0.00    -0.120 C  
HETATM   23  C   UNL     1      -6.449  15.050  67.705  1.00  0.00    -0.175 C  
HETATM   24  C   UNL     1      -6.218  13.827  69.889  1.00  0.00    -0.129 C  
ENDBRANCH  19  20
ENDBRANCH  18  19
ENDBRANCH  17  18
ENDBRANCH  16  17
ENDBRANCH  13  16
ENDBRANCH  11  12
ENDBRANCH   9  11
ENDBRANCH   2   3
TORSDOF 8
ENDMDL
MODEL      116
REMARK 921   NORMALIZED FREE ENERGY PREDICTED BY IDOCK:   -4.79 KCAL/MOL
REMARK 922        TOTAL FREE ENERGY PREDICTED BY IDOCK:   -8.24 KCAL/MOL
REMARK 923 INTER-LIGAND FREE ENERGY PREDICTED BY IDOCK:   -6.86 KCAL/MOL
REMARK 924 INTRA-LIGAND FREE ENERGY PREDICTED BY IDOCK:   -1.38 KCAL/MOL
REMARK 927      BINDING AFFINITY PREDICTED BY RF-SCORE:    0.00 PKD
ROOT
HETATM    1  C   UNL     1     -10.915   6.262  69.119  1.00  0.00    -0.377 C  
HETATM    2  O   UNL     1     -10.983   7.560  69.695  1.00  0.00    -0.232 OA 
ENDROOT
BRANCH   2   3
HETATM    3  C   UNL     1     -10.470   8.590  68.947  1.00  0.00    -0.188 A  
HETATM    4  C   UNL     1     -10.023   9.691  69.686  1.00  0.00    -0.221 A  
HETATM    5  O   UNL     1     -10.132   9.699  71.049  1.00  0.00    -0.268 OA 
HETATM    6  C   UNL     1      -9.474  10.806  69.068  1.00  0.00    -0.179 A  
HETATM    7  C   UNL     1      -9.401  10.845  67.675  1.00  0.00    -0.163 A  
HETATM    8  H   UNL     1      -9.829  10.446  71.551  1.00  0.00     0.000 HD 
HETATM    9  C   UNL     1      -9.884   9.775  66.906  1.00  0.00    -0.256 A  
HETATM   10  C   UNL     1     -10.388   8.632  67.555  1.00  0.00    -0.336 A  
BRANCH   9  11
HETATM   11  C   UNL     1      -9.895   9.870  65.402  1.00  0.00    -0.313 C  
BRANCH  11  12
HETATM   12  N   UNL     1     -10.840  10.850  64.927  1.00  0.00    -0.168 N  
HETATM   13  C   UNL     1     -10.695  11.399  63.675  1.00  0.00    -0.401 C  
HETATM   14  H   UNL     1     -11.618  11.136  65.521  1.00  0.00     0.000 HD 
HETATM   15  O   UNL     1      -9.787  11.098  62.907  1.00  0.00    -0.317 OA 
BRANCH  13  16
HETATM   16  C   UNL     1     -11.751  12.431  63.332  1.00  0.00    -0.554 C  
BRANCH  16  17
HETATM   17  C   UNL     1     -12.310  13.128  64.572  1.00  0.00    -0.447 C  
BRANCH  17  18
HETATM   18  C   UNL     1     -12.246  14.655  64.454  1.00  0.00    -0.473 C  
BRANCH  18  19
HETATM   19  C   UNL     1     -10.907  15.200  64.948  1.00  0.00    -0.437 C  
BRANCH  19  20
HETATM   20  C   UNL     1     -10.517  14.564  66.252  1.00  0.00    -0.303 C  
HETATM   21  C   UNL     1     -10.966  14.972  67.448  1.00  0.00    -0.315 C  
HETATM   22  C   UNL     1     -10.570  14.336  68.757  1.00  0.00    -0.255 C  
HETATM   23  C   UNL     1     -11.796  13.733  69.442  1.00  0.00    -0.392 C  
HETATM   24  C   UNL     1      -9.901  15.371  69.661  1.00  0.00    -0.263 C  
ENDBRANCH  19  20
ENDBRANCH  18  19
ENDBRANCH  17  18
ENDBRANCH  16  17
ENDBRANCH  13  16
ENDBRANCH  11  12
ENDBRANCH   9  11
ENDBRANCH   2   3
TORSDOF 8
ENDMDL
MODEL      117
REMARK 921   NORMALIZED FREE ENERGY PREDICTED BY IDOCK:   -4.77 KCAL/MOL
REMARK 922        TOTAL FREE ENERGY PREDICTED BY IDOCK:   -8.21 KCAL/MOL
REMARK 923 INTER-LIGAND FREE ENERGY PREDICTED BY IDOCK:   -7.16 KCAL/MOL
REMARK 924 INTRA-LIGAND FREE ENERGY PREDICTED BY IDOCK:   -1.05 KCAL/MOL
REMARK 927      BINDING AFFINITY PREDICTED BY RF-SCORE:    0.00 PKD
ROOT
HETATM    1  C   UNL     1      -8.461   3.538  66.578  1.00  0.00    -0.108 C  
HETATM    2  O   UNL     1      -9.029   4.688  65.964  1.00  0.00    -0.118 OA 
ENDROOT
BRANCH   2   3
HETATM    3  C   UNL     1      -9.552   5.636  66.806  1.00  0.00    -0.146 A  
HETATM    4  C   UNL     1      -9.353   6.960  66.402  1.00  0.00    -0.141 A  
HETATM    5  O   UNL     1      -8.662   7.235  65.254  1.00  0.00    -0.335 OA 
HETATM    6  C   UNL     1      -9.830   8.029  67.149  1.00  0.00    -0.274 A  
HETATM    7  C   UNL     1     -10.492   7.776  68.351  1.00  0.00    -0.207 A  
HETATM    8  H   UNL     1      -8.526   8.135  64.979  1.00  0.00     0.000 HD 
HETATM    9  C   UNL     1     -10.666   6.459  68.805  1.00  0.00    -0.339 A  
HETATM   10  C   UNL     1     -10.221   5.390  68.006  1.00  0.00    -0.221 A  
BRANCH   9  11
HETATM   11  C   UNL     1     -11.290   6.201  70.153  1.00  0.00    -0.363 C  
BRANCH  11  12
HETATM   12  N   UNL     1     -12.288   7.187  70.486  1.00  0.00    -0.607 N  
HETATM   13  C   UNL     1     -12.162   7.940  71.629  1.00  0.00    -0.308 C  
HETATM   14  H   UNL     1     -13.091   7.326  69.872  1.00  0.00     0.000 HD 
HETATM   15  O   UNL     1     -11.221   7.829  72.409  1.00  0.00    -0.285 OA 
BRANCH  13  16
HETATM   16  C   UNL     1     -13.302   8.913  71.853  1.00  0.00    -0.455 C  
BRANCH  16  17
HETATM   17  C   UNL     1     -12.829  10.366  71.890  1.00  0.00    -0.519 C  
BRANCH  17  18
HETATM   18  C   UNL     1     -12.228  10.812  70.551  1.00  0.00    -0.457 C  
BRANCH  18  19
HETATM   19  C   UNL     1     -12.038  12.327  70.500  1.00  0.00    -0.371 C  
BRANCH  19  20
HETATM   20  C   UNL     1     -11.426  12.748  69.195  1.00  0.00    -0.361 C  
HETATM   21  C   UNL     1     -11.773  12.236  68.006  1.00  0.00    -0.417 C  
HETATM   22  C   UNL     1     -11.153  12.657  66.696  1.00  0.00    -0.314 C  
HETATM   23  C   UNL     1     -12.212  13.284  65.790  1.00  0.00    -0.510 C  
HETATM   24  C   UNL     1     -10.504  11.453  66.013  1.00  0.00    -0.305 C  
ENDBRANCH  19  20
ENDBRANCH  18  19
ENDBRANCH  17  18
ENDBRANCH  16  17
ENDBRANCH  13  16
ENDBRANCH  11  12
ENDBRANCH   9  11
ENDBRANCH   2   3
TORSDOF 8
ENDMDL
MODEL      118
REMARK 921   NORMALIZED FREE ENERGY PREDICTED BY IDOCK:   -4.77 KCAL/MOL
REMARK 922        TOTAL FREE ENERGY PREDICTED BY IDOCK:   -8.20 KCAL/MOL
REMARK 923 INTER-LIGAND FREE ENERGY PREDICTED BY IDOCK:   -7.08 KCAL/MOL
REMARK 924 INTRA-LIGAND FREE ENERGY PREDICTED BY IDOCK:   -1.13 KCAL/MOL
REMARK 927      BINDING AFFINITY PREDICTED BY RF-SCORE:    0.00 PKD
ROOT
HETATM    1  C   UNL     1     -12.725   9.070  71.995  1.00  0.00    -0.398 C  
HETATM    2  O   UNL     1     -13.334  10.349  72.128  1.00  0.00    -0.441 OA 
ENDROOT
BRANCH   2   3
HETATM    3  C   UNL     1     -12.864  11.340  71.304  1.00  0.00    -0.389 A  
HETATM    4  C   UNL     1     -13.092  12.643  71.759  1.00  0.00    -0.360 A  
HETATM    5  O   UNL     1     -13.758  12.858  72.934  1.00  0.00    -0.684 OA 
HETATM    6  C   UNL     1     -12.668  13.750  71.036  1.00  0.00    -0.416 A  
HETATM    7  C   UNL     1     -12.033  13.558  69.809  1.00  0.00    -0.405 A  
HETATM    8  H   UNL     1     -13.913  13.743  73.243  1.00  0.00     0.000 HD 
HETATM    9  C   UNL     1     -11.832  12.263  69.305  1.00  0.00    -0.363 A  
HETATM   10  C   UNL     1     -12.222  11.154  70.079  1.00  0.00    -0.402 A  
BRANCH   9  11
HETATM   11  C   UNL     1     -11.239  12.069  67.933  1.00  0.00    -0.264 C  
BRANCH  11  12
HETATM   12  N   UNL     1     -11.442  13.219  67.087  1.00  0.00    -0.323 N  
HETATM   13  C   UNL     1     -10.411  13.702  66.318  1.00  0.00    -0.293 C  
HETATM   14  H   UNL     1     -12.354  13.675  67.058  1.00  0.00     0.000 HD 
HETATM   15  O   UNL     1      -9.291  13.201  66.299  1.00  0.00    -0.223 OA 
BRANCH  13  16
HETATM   16  C   UNL     1     -10.774  14.928  65.503  1.00  0.00    -0.369 C  
BRANCH  16  17
HETATM   17  C   UNL     1     -10.170  16.210  66.079  1.00  0.00    -0.374 C  
BRANCH  17  18
HETATM   18  C   UNL     1     -10.654  16.485  67.507  1.00  0.00    -0.313 C  
BRANCH  18  19
HETATM   19  C   UNL     1      -9.598  17.231  68.322  1.00  0.00    -0.288 C  
BRANCH  19  20
HETATM   20  C   UNL     1      -8.296  16.482  68.327  1.00  0.00    -0.190 C  
HETATM   21  C   UNL     1      -8.026  15.456  69.145  1.00  0.00    -0.222 C  
HETATM   22  C   UNL     1      -6.715  14.708  69.152  1.00  0.00    -0.117 C  
HETATM   23  C   UNL     1      -6.941  13.247  68.766  1.00  0.00    -0.103 C  
HETATM   24  C   UNL     1      -6.063  14.807  70.531  1.00  0.00    -0.142 C  
ENDBRANCH  19  20
ENDBRANCH  18  19
ENDBRANCH  17  18
ENDBRANCH  16  17
ENDBRANCH  13  16
ENDBRANCH  11  12
ENDBRANCH   9  11
ENDBRANCH   2   3
TORSDOF 8
ENDMDL
MODEL      119
REMARK 921   NORMALIZED FREE ENERGY PREDICTED BY IDOCK:   -4.75 KCAL/MOL
REMARK 922        TOTAL FREE ENERGY PREDICTED BY IDOCK:   -8.18 KCAL/MOL
REMARK 923 INTER-LIGAND FREE ENERGY PREDICTED BY IDOCK:   -7.26 KCAL/MOL
REMARK 924 INTRA-LIGAND FREE ENERGY PREDICTED BY IDOCK:   -0.92 KCAL/MOL
REMARK 927      BINDING AFFINITY PREDICTED BY RF-SCORE:    0.00 PKD
ROOT
HETATM    1  C   UNL     1      -9.912   8.381  67.114  1.00  0.00    -0.238 C  
HETATM    2  O   UNL     1     -11.016   9.203  67.472  1.00  0.00    -0.176 OA 
ENDROOT
BRANCH   2   3
HETATM    3  C   UNL     1     -10.742  10.526  67.711  1.00  0.00    -0.272 A  
HETATM    4  C   UNL     1     -11.610  11.156  68.609  1.00  0.00    -0.315 A  
HETATM    5  O   UNL     1     -12.652  10.465  69.163  1.00  0.00    -0.645 OA 
HETATM    6  C   UNL     1     -11.456  12.492  68.953  1.00  0.00    -0.355 A  
HETATM    7  C   UNL     1     -10.433  13.234  68.361  1.00  0.00    -0.261 A  
HETATM    8  H   UNL     1     -13.242  10.892  69.773  1.00  0.00     0.000 HD 
HETATM    9  C   UNL     1      -9.576  12.640  67.421  1.00  0.00    -0.194 A  
HETATM   10  C   UNL     1      -9.717  11.272  67.127  1.00  0.00    -0.201 A  
BRANCH   9  11
HETATM   11  C   UNL     1      -8.541  13.474  66.711  1.00  0.00    -0.024 C  
BRANCH  11  12
HETATM   12  N   UNL     1      -8.972  14.839  66.532  1.00  0.00    -0.399 N  
HETATM   13  C   UNL     1      -8.139  15.878  66.873  1.00  0.00    -0.250 C  
HETATM   14  H   UNL     1      -9.898  15.034  66.151  1.00  0.00     0.000 HD 
HETATM   15  O   UNL     1      -7.013  15.716  67.330  1.00  0.00    -0.173 OA 
BRANCH  13  16
HETATM   16  C   UNL     1      -8.745  17.249  66.650  1.00  0.00    -0.285 C  
BRANCH  16  17
HETATM   17  C   UNL     1     -10.186  17.338  67.155  1.00  0.00    -0.319 C  
BRANCH  17  18
HETATM   18  C   UNL     1     -10.290  17.047  68.657  1.00  0.00    -0.351 C  
BRANCH  18  19
HETATM   19  C   UNL     1     -11.582  16.303  68.994  1.00  0.00    -0.231 C  
BRANCH  19  20
HETATM   20  C   UNL     1     -11.512  15.702  70.369  1.00  0.00    -0.369 C  
HETATM   21  C   UNL     1     -12.579  15.515  71.159  1.00  0.00    -0.509 C  
HETATM   22  C   UNL     1     -12.507  14.916  72.541  1.00  0.00    -0.432 C  
HETATM   23  C   UNL     1     -13.296  13.608  72.590  1.00  0.00    -0.587 C  
HETATM   24  C   UNL     1     -13.046  15.909  73.571  1.00  0.00    -0.676 C  
ENDBRANCH  19  20
ENDBRANCH  18  19
ENDBRANCH  17  18
ENDBRANCH  16  17
ENDBRANCH  13  16
ENDBRANCH  11  12
ENDBRANCH   9  11
ENDBRANCH   2   3
TORSDOF 8
ENDMDL
MODEL      120
REMARK 921   NORMALIZED FREE ENERGY PREDICTED BY IDOCK:   -4.75 KCAL/MOL
REMARK 922        TOTAL FREE ENERGY PREDICTED BY IDOCK:   -8.17 KCAL/MOL
REMARK 923 INTER-LIGAND FREE ENERGY PREDICTED BY IDOCK:   -6.68 KCAL/MOL
REMARK 924 INTRA-LIGAND FREE ENERGY PREDICTED BY IDOCK:   -1.50 KCAL/MOL
REMARK 927      BINDING AFFINITY PREDICTED BY RF-SCORE:    0.00 PKD
ROOT
HETATM    1  C   UNL     1     -11.534  15.905  68.646  1.00  0.00    -0.391 C  
HETATM    2  O   UNL     1     -11.733  14.887  67.673  1.00  0.00    -0.349 OA 
ENDROOT
BRANCH   2   3
HETATM    3  C   UNL     1     -11.740  13.594  68.131  1.00  0.00    -0.357 A  
HETATM    4  C   UNL     1     -11.474  12.622  67.162  1.00  0.00    -0.346 A  
HETATM    5  O   UNL     1     -11.252  12.985  65.862  1.00  0.00    -0.281 OA 
HETATM    6  C   UNL     1     -11.442  11.270  67.477  1.00  0.00    -0.324 A  
HETATM    7  C   UNL     1     -11.717  10.870  68.784  1.00  0.00    -0.355 A  
HETATM    8  H   UNL     1     -11.071  12.325  65.203  1.00  0.00     0.000 HD 
HETATM    9  C   UNL     1     -12.034  11.820  69.768  1.00  0.00    -0.392 A  
HETATM   10  C   UNL     1     -12.009  13.188  69.439  1.00  0.00    -0.347 A  
BRANCH   9  11
HETATM   11  C   UNL     1     -12.431  11.372  71.151  1.00  0.00    -0.360 C  
BRANCH  11  12
HETATM   12  N   UNL     1     -11.884  10.078  71.481  1.00  0.00    -0.364 N  
HETATM   13  C   UNL     1     -12.655   9.148  72.136  1.00  0.00    -0.381 C  
HETATM   14  H   UNL     1     -10.922   9.853  71.226  1.00  0.00     0.000 HD 
HETATM   15  O   UNL     1     -13.818   9.350  72.467  1.00  0.00    -0.444 OA 
BRANCH  13  16
HETATM   16  C   UNL     1     -11.931   7.850  72.433  1.00  0.00    -0.373 C  
BRANCH  16  17
HETATM   17  C   UNL     1     -12.341   6.724  71.483  1.00  0.00    -0.407 C  
BRANCH  17  18
HETATM   18  C   UNL     1     -11.157   6.206  70.658  1.00  0.00    -0.384 C  
BRANCH  18  19
HETATM   19  C   UNL     1      -9.904   7.050  70.886  1.00  0.00    -0.190 C  
BRANCH  19  20
HETATM   20  C   UNL     1      -9.632   7.940  69.707  1.00  0.00    -0.167 C  
HETATM   21  C   UNL     1      -8.497   8.633  69.538  1.00  0.00    -0.129 C  
HETATM   22  C   UNL     1      -8.228   9.530  68.355  1.00  0.00    -0.113 C  
HETATM   23  C   UNL     1      -7.036   9.005  67.556  1.00  0.00    -0.076 C  
HETATM   24  C   UNL     1      -7.971  10.960  68.830  1.00  0.00    -0.146 C  
ENDBRANCH  19  20
ENDBRANCH  18  19
ENDBRANCH  17  18
ENDBRANCH  16  17
ENDBRANCH  13  16
ENDBRANCH  11  12
ENDBRANCH   9  11
ENDBRANCH   2   3
TORSDOF 8
ENDMDL
MODEL      121
REMARK 921   NORMALIZED FREE ENERGY PREDICTED BY IDOCK:   -4.74 KCAL/MOL
REMARK 922        TOTAL FREE ENERGY PREDICTED BY IDOCK:   -8.17 KCAL/MOL
REMARK 923 INTER-LIGAND FREE ENERGY PREDICTED BY IDOCK:   -7.65 KCAL/MOL
REMARK 924 INTRA-LIGAND FREE ENERGY PREDICTED BY IDOCK:   -0.52 KCAL/MOL
REMARK 927      BINDING AFFINITY PREDICTED BY RF-SCORE:    0.00 PKD
ROOT
HETATM    1  C   UNL     1     -10.962   5.258  73.641  1.00  0.00    -0.255 C  
HETATM    2  O   UNL     1     -10.556   6.563  74.035  1.00  0.00    -0.310 OA 
ENDROOT
BRANCH   2   3
HETATM    3  C   UNL     1     -10.524   7.518  73.050  1.00  0.00    -0.342 A  
HETATM    4  C   UNL     1      -9.243   7.869  72.609  1.00  0.00    -0.208 A  
HETATM    5  O   UNL     1      -8.137   7.289  73.167  1.00  0.00    -0.098 OA 
HETATM    6  C   UNL     1      -9.052   8.817  71.613  1.00  0.00    -0.314 A  
HETATM    7  C   UNL     1     -10.161   9.461  71.065  1.00  0.00    -0.353 A  
HETATM    8  H   UNL     1      -7.268   7.526  72.867  1.00  0.00     0.000 HD 
HETATM    9  C   UNL     1     -11.455   9.164  71.521  1.00  0.00    -0.437 A  
HETATM   10  C   UNL     1     -11.630   8.162  72.493  1.00  0.00    -0.468 A  
BRANCH   9  11
HETATM   11  C   UNL     1     -12.637   9.938  70.997  1.00  0.00    -0.336 C  
BRANCH  11  12
HETATM   12  N   UNL     1     -12.356  10.567  69.730  1.00  0.00    -0.536 N  
HETATM   13  C   UNL     1     -12.141  11.923  69.664  1.00  0.00    -0.239 C  
HETATM   14  H   UNL     1     -12.316  10.003  68.881  1.00  0.00     0.000 HD 
HETATM   15  O   UNL     1     -12.168  12.659  70.644  1.00  0.00    -0.374 OA 
BRANCH  13  16
HETATM   16  C   UNL     1     -11.883  12.435  68.261  1.00  0.00    -0.364 C  
BRANCH  16  17
HETATM   17  C   UNL     1     -11.011  13.691  68.250  1.00  0.00    -0.275 C  
BRANCH  17  18
HETATM   18  C   UNL     1     -11.439  14.682  67.162  1.00  0.00    -0.380 C  
BRANCH  18  19
HETATM   19  C   UNL     1     -10.299  14.968  66.185  1.00  0.00    -0.310 C  
BRANCH  19  20
HETATM   20  C   UNL     1      -9.663  16.298  66.476  1.00  0.00    -0.281 C  
HETATM   21  C   UNL     1     -10.348  17.393  66.833  1.00  0.00    -0.317 C  
HETATM   22  C   UNL     1      -9.709  18.729  67.119  1.00  0.00    -0.333 C  
HETATM   23  C   UNL     1      -9.953  19.128  68.574  1.00  0.00    -0.496 C  
HETATM   24  C   UNL     1     -10.264  19.790  66.169  1.00  0.00    -0.618 C  
ENDBRANCH  19  20
ENDBRANCH  18  19
ENDBRANCH  17  18
ENDBRANCH  16  17
ENDBRANCH  13  16
ENDBRANCH  11  12
ENDBRANCH   9  11
ENDBRANCH   2   3
TORSDOF 8
ENDMDL
MODEL      122
REMARK 921   NORMALIZED FREE ENERGY PREDICTED BY IDOCK:   -4.73 KCAL/MOL
REMARK 922        TOTAL FREE ENERGY PREDICTED BY IDOCK:   -8.15 KCAL/MOL
REMARK 923 INTER-LIGAND FREE ENERGY PREDICTED BY IDOCK:   -6.08 KCAL/MOL
REMARK 924 INTRA-LIGAND FREE ENERGY PREDICTED BY IDOCK:   -2.07 KCAL/MOL
REMARK 927      BINDING AFFINITY PREDICTED BY RF-SCORE:    0.00 PKD
ROOT
HETATM    1  C   UNL     1     -14.374   7.385  71.629  1.00  0.00    -0.461 C  
HETATM    2  O   UNL     1     -12.987   7.586  71.871  1.00  0.00    -0.314 OA 
ENDROOT
BRANCH   2   3
HETATM    3  C   UNL     1     -12.120   6.793  71.161  1.00  0.00    -0.370 A  
HETATM    4  C   UNL     1     -11.360   5.910  71.935  1.00  0.00    -0.247 A  
HETATM    5  O   UNL     1     -11.493   5.894  73.296  1.00  0.00    -0.477 OA 
HETATM    6  C   UNL     1     -10.444   5.041  71.357  1.00  0.00    -0.213 A  
HETATM    7  C   UNL     1     -10.251   5.076  69.976  1.00  0.00    -0.339 A  
HETATM    8  H   UNL     1     -10.977   5.294  73.822  1.00  0.00     0.000 HD 
HETATM    9  C   UNL     1     -10.966   5.985  69.180  1.00  0.00    -0.429 A  
HETATM   10  C   UNL     1     -11.927   6.819  69.779  1.00  0.00    -0.000 A  
BRANCH   9  11
HETATM   11  C   UNL     1     -10.677   6.086  67.704  1.00  0.00    -0.296 C  
BRANCH  11  12
HETATM   12  N   UNL     1     -10.805   7.438  67.217  1.00  0.00    -0.513 N  
HETATM   13  C   UNL     1      -9.686   8.156  66.868  1.00  0.00    -0.226 C  
HETATM   14  H   UNL     1     -11.729   7.861  67.130  1.00  0.00     0.000 HD 
HETATM   15  O   UNL     1      -8.547   7.708  66.942  1.00  0.00    -0.118 OA 
BRANCH  13  16
HETATM   16  C   UNL     1      -9.984   9.567  66.400  1.00  0.00    -0.339 C  
BRANCH  16  17
HETATM   17  C   UNL     1     -10.993  10.279  67.301  1.00  0.00    -0.277 C  
BRANCH  17  18
HETATM   18  C   UNL     1     -10.313  11.247  68.276  1.00  0.00    -0.200 C  
BRANCH  18  19
HETATM   19  C   UNL     1     -10.834  11.064  69.701  1.00  0.00    -0.241 C  
BRANCH  19  20
HETATM   20  C   UNL     1     -10.343   9.773  70.291  1.00  0.00    -0.348 C  
HETATM   21  C   UNL     1      -9.050   9.486  70.492  1.00  0.00    -0.276 C  
HETATM   22  C   UNL     1      -8.558   8.186  71.080  1.00  0.00    -0.153 C  
HETATM   23  C   UNL     1      -7.838   8.446  72.403  1.00  0.00    -0.155 C  
HETATM   24  C   UNL     1      -7.631   7.481  70.091  1.00  0.00    -0.088 C  
ENDBRANCH  19  20
ENDBRANCH  18  19
ENDBRANCH  17  18
ENDBRANCH  16  17
ENDBRANCH  13  16
ENDBRANCH  11  12
ENDBRANCH   9  11
ENDBRANCH   2   3
TORSDOF 8
ENDMDL
MODEL      123
REMARK 921   NORMALIZED FREE ENERGY PREDICTED BY IDOCK:   -4.73 KCAL/MOL
REMARK 922        TOTAL FREE ENERGY PREDICTED BY IDOCK:   -8.15 KCAL/MOL
REMARK 923 INTER-LIGAND FREE ENERGY PREDICTED BY IDOCK:   -7.50 KCAL/MOL
REMARK 924 INTRA-LIGAND FREE ENERGY PREDICTED BY IDOCK:   -0.65 KCAL/MOL
REMARK 927      BINDING AFFINITY PREDICTED BY RF-SCORE:    0.00 PKD
ROOT
HETATM    1  C   UNL     1     -10.116  19.394  68.261  1.00  0.00    -0.433 C  
HETATM    2  O   UNL     1      -9.202  18.322  68.458  1.00  0.00    -0.309 OA 
ENDROOT
BRANCH   2   3
HETATM    3  C   UNL     1      -9.544  17.115  67.901  1.00  0.00    -0.266 A  
HETATM    4  C   UNL     1      -8.763  16.728  66.807  1.00  0.00    -0.230 A  
HETATM    5  O   UNL     1      -7.760  17.538  66.353  1.00  0.00    -0.248 OA 
HETATM    6  C   UNL     1      -8.986  15.529  66.143  1.00  0.00    -0.329 A  
HETATM    7  C   UNL     1     -10.038  14.710  66.554  1.00  0.00    -0.286 A  
HETATM    8  H   UNL     1      -7.229  17.275  65.610  1.00  0.00     0.000 HD 
HETATM    9  C   UNL     1     -10.868  15.095  67.619  1.00  0.00    -0.295 A  
HETATM   10  C   UNL     1     -10.590  16.288  68.311  1.00  0.00    -0.300 A  
BRANCH   9  11
HETATM   11  C   UNL     1     -12.062  14.254  67.988  1.00  0.00    -0.254 C  
BRANCH  11  12
HETATM   12  N   UNL     1     -11.736  13.248  68.969  1.00  0.00    -0.302 N  
HETATM   13  C   UNL     1     -11.772  11.916  68.632  1.00  0.00    -0.323 C  
HETATM   14  H   UNL     1     -11.477  13.526  69.916  1.00  0.00     0.000 HD 
HETATM   15  O   UNL     1     -12.069  11.512  67.512  1.00  0.00    -0.614 OA 
BRANCH  13  16
HETATM   16  C   UNL     1     -11.429  10.984  69.776  1.00  0.00    -0.387 C  
BRANCH  16  17
HETATM   17  C   UNL     1     -12.321  11.207  70.997  1.00  0.00    -0.487 C  
BRANCH  17  18
HETATM   18  C   UNL     1     -13.206   9.991  71.295  1.00  0.00    -0.469 C  
BRANCH  18  19
HETATM   19  C   UNL     1     -12.822   9.330  72.618  1.00  0.00    -0.245 C  
BRANCH  19  20
HETATM   20  C   UNL     1     -11.684   8.367  72.428  1.00  0.00    -0.452 C  
HETATM   21  C   UNL     1     -11.838   7.095  72.034  1.00  0.00    -0.333 C  
HETATM   22  C   UNL     1     -10.695   6.128  71.847  1.00  0.00    -0.277 C  
HETATM   23  C   UNL     1     -10.612   5.687  70.387  1.00  0.00    -0.364 C  
HETATM   24  C   UNL     1     -10.876   4.920  72.766  1.00  0.00    -0.293 C  
ENDBRANCH  19  20
ENDBRANCH  18  19
ENDBRANCH  17  18
ENDBRANCH  16  17
ENDBRANCH  13  16
ENDBRANCH  11  12
ENDBRANCH   9  11
ENDBRANCH   2   3
TORSDOF 8
ENDMDL
MODEL      124
REMARK 921   NORMALIZED FREE ENERGY PREDICTED BY IDOCK:   -4.72 KCAL/MOL
REMARK 922        TOTAL FREE ENERGY PREDICTED BY IDOCK:   -8.14 KCAL/MOL
REMARK 923 INTER-LIGAND FREE ENERGY PREDICTED BY IDOCK:   -6.94 KCAL/MOL
REMARK 924 INTRA-LIGAND FREE ENERGY PREDICTED BY IDOCK:   -1.20 KCAL/MOL
REMARK 927      BINDING AFFINITY PREDICTED BY RF-SCORE:    0.00 PKD
ROOT
HETATM    1  C   UNL     1     -10.722   6.954  72.837  1.00  0.00    -0.277 C  
HETATM    2  O   UNL     1     -11.885   7.697  72.497  1.00  0.00    -0.311 OA 
ENDROOT
BRANCH   2   3
HETATM    3  C   UNL     1     -11.709   8.752  71.637  1.00  0.00    -0.332 A  
HETATM    4  C   UNL     1     -12.704   9.734  71.695  1.00  0.00    -0.422 A  
HETATM    5  O   UNL     1     -13.764   9.594  72.548  1.00  0.00    -0.673 OA 
HETATM    6  C   UNL     1     -12.658  10.863  70.888  1.00  0.00    -0.494 A  
HETATM    7  C   UNL     1     -11.616  11.003  69.972  1.00  0.00    -0.427 A  
HETATM    8  H   UNL     1     -14.439  10.261  72.588  1.00  0.00     0.000 HD 
HETATM    9  C   UNL     1     -10.629  10.010  69.859  1.00  0.00    -0.324 A  
HETATM   10  C   UNL     1     -10.665   8.901  70.723  1.00  0.00    -0.287 A  
BRANCH   9  11
HETATM   11  C   UNL     1      -9.566  10.120  68.796  1.00  0.00    -0.170 C  
BRANCH  11  12
HETATM   12  N   UNL     1      -8.660  11.215  69.045  1.00  0.00    -0.352 N  
HETATM   13  C   UNL     1      -7.943  11.768  68.012  1.00  0.00    -0.141 C  
HETATM   14  H   UNL     1      -8.553  11.580  69.992  1.00  0.00     0.000 HD 
HETATM   15  O   UNL     1      -8.027  11.382  66.850  1.00  0.00    -0.147 OA 
BRANCH  13  16
HETATM   16  C   UNL     1      -7.018  12.891  68.438  1.00  0.00    -0.096 C  
BRANCH  16  17
HETATM   17  C   UNL     1      -7.741  14.234  68.539  1.00  0.00    -0.137 C  
BRANCH  17  18
HETATM   18  C   UNL     1      -7.289  15.216  67.452  1.00  0.00    -0.235 C  
BRANCH  18  19
HETATM   19  C   UNL     1      -8.450  15.617  66.543  1.00  0.00    -0.311 C  
BRANCH  19  20
HETATM   20  C   UNL     1      -9.705  14.880  66.917  1.00  0.00    -0.248 C  
HETATM   21  C   UNL     1     -10.411  14.124  66.065  1.00  0.00    -0.308 C  
HETATM   22  C   UNL     1     -11.674  13.389  66.441  1.00  0.00    -0.409 C  
HETATM   23  C   UNL     1     -11.470  11.882  66.291  1.00  0.00    -0.367 C  
HETATM   24  C   UNL     1     -12.837  13.865  65.570  1.00  0.00    -0.471 C  
ENDBRANCH  19  20
ENDBRANCH  18  19
ENDBRANCH  17  18
ENDBRANCH  16  17
ENDBRANCH  13  16
ENDBRANCH  11  12
ENDBRANCH   9  11
ENDBRANCH   2   3
TORSDOF 8
ENDMDL
MODEL      125
REMARK 921   NORMALIZED FREE ENERGY PREDICTED BY IDOCK:   -4.72 KCAL/MOL
REMARK 922        TOTAL FREE ENERGY PREDICTED BY IDOCK:   -8.14 KCAL/MOL
REMARK 923 INTER-LIGAND FREE ENERGY PREDICTED BY IDOCK:   -7.42 KCAL/MOL
REMARK 924 INTRA-LIGAND FREE ENERGY PREDICTED BY IDOCK:   -0.71 KCAL/MOL
REMARK 927      BINDING AFFINITY PREDICTED BY RF-SCORE:    0.00 PKD
ROOT
HETATM    1  C   UNL     1     -12.236  14.138  66.722  1.00  0.00    -0.394 C  
HETATM    2  O   UNL     1     -12.442  13.351  65.555  1.00  0.00    -0.453 OA 
ENDROOT
BRANCH   2   3
HETATM    3  C   UNL     1     -11.511  12.374  65.303  1.00  0.00    -0.344 A  
HETATM    4  C   UNL     1     -11.228  12.163  63.950  1.00  0.00    -0.415 A  
HETATM    5  O   UNL     1     -11.875  12.889  62.987  1.00  0.00    -0.827 OA 
HETATM    6  C   UNL     1     -10.304  11.211  63.540  1.00  0.00    -0.446 A  
HETATM    7  C   UNL     1      -9.671  10.422  64.500  1.00  0.00    -0.393 A  
HETATM    8  H   UNL     1     -11.682  12.746  62.068  1.00  0.00     0.000 HD 
HETATM    9  C   UNL     1      -9.970  10.579  65.863  1.00  0.00    -0.313 A  
HETATM   10  C   UNL     1     -10.870  11.585  66.259  1.00  0.00    -0.333 A  
BRANCH   9  11
HETATM   11  C   UNL     1      -9.358   9.653  66.882  1.00  0.00    -0.146 C  
BRANCH  11  12
HETATM   12  N   UNL     1      -9.690  10.036  68.232  1.00  0.00    -0.139 N  
HETATM   13  C   UNL     1      -9.921   9.075  69.187  1.00  0.00    -0.185 C  
HETATM   14  H   UNL     1      -9.752  11.024  68.480  1.00  0.00     0.000 HD 
HETATM   15  O   UNL     1      -9.858   7.871  68.961  1.00  0.00    -0.164 OA 
BRANCH  13  16
HETATM   16  C   UNL     1     -10.282   9.636  70.548  1.00  0.00    -0.351 C  
BRANCH  16  17
HETATM   17  C   UNL     1     -11.777   9.924  70.681  1.00  0.00    -0.404 C  
BRANCH  17  18
HETATM   18  C   UNL     1     -12.433   9.078  71.778  1.00  0.00    -0.438 C  
BRANCH  18  19
HETATM   19  C   UNL     1     -11.394   8.286  72.571  1.00  0.00    -0.455 C  
BRANCH  19  20
HETATM   20  C   UNL     1     -11.538   6.811  72.323  1.00  0.00    -0.311 C  
HETATM   21  C   UNL     1     -10.595   5.907  72.624  1.00  0.00    -0.255 C  
HETATM   22  C   UNL     1     -10.740   4.426  72.370  1.00  0.00    -0.115 C  
HETATM   23  C   UNL     1     -10.704   3.660  73.692  1.00  0.00    -0.307 C  
HETATM   24  C   UNL     1      -9.629   3.944  71.438  1.00  0.00    -0.237 C  
ENDBRANCH  19  20
ENDBRANCH  18  19
ENDBRANCH  17  18
ENDBRANCH  16  17
ENDBRANCH  13  16
ENDBRANCH  11  12
ENDBRANCH   9  11
ENDBRANCH   2   3
TORSDOF 8
ENDMDL
MODEL      126
REMARK 921   NORMALIZED FREE ENERGY PREDICTED BY IDOCK:   -4.72 KCAL/MOL
REMARK 922        TOTAL FREE ENERGY PREDICTED BY IDOCK:   -8.13 KCAL/MOL
REMARK 923 INTER-LIGAND FREE ENERGY PREDICTED BY IDOCK:   -7.29 KCAL/MOL
REMARK 924 INTRA-LIGAND FREE ENERGY PREDICTED BY IDOCK:   -0.83 KCAL/MOL
REMARK 927      BINDING AFFINITY PREDICTED BY RF-SCORE:    0.00 PKD
ROOT
HETATM    1  C   UNL     1     -11.316  15.258  71.530  1.00  0.00    -0.371 C  
HETATM    2  O   UNL     1     -12.180  15.758  70.516  1.00  0.00    -0.387 OA 
ENDROOT
BRANCH   2   3
HETATM    3  C   UNL     1     -11.770  15.578  69.219  1.00  0.00    -0.365 A  
HETATM    4  C   UNL     1     -10.929  16.578  68.721  1.00  0.00    -0.330 A  
HETATM    5  O   UNL     1     -10.587  17.646  69.504  1.00  0.00    -0.371 OA 
HETATM    6  C   UNL     1     -10.429  16.530  67.427  1.00  0.00    -0.310 A  
HETATM    7  C   UNL     1     -10.806  15.478  66.591  1.00  0.00    -0.285 A  
HETATM    8  H   UNL     1     -10.015  18.326  69.166  1.00  0.00     0.000 HD 
HETATM    9  C   UNL     1     -11.687  14.485  67.048  1.00  0.00    -0.412 A  
HETATM   10  C   UNL     1     -12.138  14.525  68.380  1.00  0.00    -0.249 A  
BRANCH   9  11
HETATM   11  C   UNL     1     -12.168  13.411  66.107  1.00  0.00    -0.415 C  
BRANCH  11  12
HETATM   12  N   UNL     1     -11.181  12.377  65.913  1.00  0.00    -0.320 N  
HETATM   13  C   UNL     1     -11.156  11.281  66.742  1.00  0.00    -0.250 C  
HETATM   14  H   UNL     1     -10.501  12.459  65.158  1.00  0.00     0.000 HD 
HETATM   15  O   UNL     1     -11.947  11.115  67.665  1.00  0.00    -0.613 OA 
BRANCH  13  16
HETATM   16  C   UNL     1     -10.047  10.297  66.425  1.00  0.00    -0.296 C  
BRANCH  16  17
HETATM   17  C   UNL     1     -10.484   8.845  66.620  1.00  0.00    -0.231 C  
BRANCH  17  18
HETATM   18  C   UNL     1      -9.315   7.941  67.029  1.00  0.00    -0.200 C  
BRANCH  18  19
HETATM   19  C   UNL     1      -9.204   7.824  68.549  1.00  0.00    -0.137 C  
BRANCH  19  20
HETATM   20  C   UNL     1     -10.531   8.077  69.206  1.00  0.00    -0.221 C  
HETATM   21  C   UNL     1     -10.683   8.766  70.345  1.00  0.00    -0.254 C  
HETATM   22  C   UNL     1     -12.017   9.016  71.006  1.00  0.00    -0.323 C  
HETATM   23  C   UNL     1     -12.313  10.514  71.045  1.00  0.00    -0.503 C  
HETATM   24  C   UNL     1     -12.019   8.428  72.417  1.00  0.00    -0.451 C  
ENDBRANCH  19  20
ENDBRANCH  18  19
ENDBRANCH  17  18
ENDBRANCH  16  17
ENDBRANCH  13  16
ENDBRANCH  11  12
ENDBRANCH   9  11
ENDBRANCH   2   3
TORSDOF 8
ENDMDL
MODEL      127
REMARK 921   NORMALIZED FREE ENERGY PREDICTED BY IDOCK:   -4.70 KCAL/MOL
REMARK 922        TOTAL FREE ENERGY PREDICTED BY IDOCK:   -8.10 KCAL/MOL
REMARK 923 INTER-LIGAND FREE ENERGY PREDICTED BY IDOCK:   -7.16 KCAL/MOL
REMARK 924 INTRA-LIGAND FREE ENERGY PREDICTED BY IDOCK:   -0.94 KCAL/MOL
REMARK 927      BINDING AFFINITY PREDICTED BY RF-SCORE:    0.00 PKD
ROOT
HETATM    1  C   UNL     1     -11.062  14.126  65.378  1.00  0.00    -0.321 C  
HETATM    2  O   UNL     1     -10.733  14.791  66.592  1.00  0.00    -0.297 OA 
ENDROOT
BRANCH   2   3
HETATM    3  C   UNL     1     -11.226  14.238  67.746  1.00  0.00    -0.291 A  
HETATM    4  C   UNL     1     -11.567  15.159  68.743  1.00  0.00    -0.349 A  
HETATM    5  O   UNL     1     -11.382  16.498  68.539  1.00  0.00    -0.356 OA 
HETATM    6  C   UNL     1     -12.083  14.749  69.965  1.00  0.00    -0.380 A  
HETATM    7  C   UNL     1     -12.231  13.385  70.218  1.00  0.00    -0.405 A  
HETATM    8  H   UNL     1     -11.614  17.124  69.215  1.00  0.00     0.000 HD 
HETATM    9  C   UNL     1     -11.853  12.437  69.254  1.00  0.00    -0.361 A  
HETATM   10  C   UNL     1     -11.382  12.875  68.003  1.00  0.00    -0.333 A  
BRANCH   9  11
HETATM   11  C   UNL     1     -11.919  10.966  69.575  1.00  0.00    -0.330 C  
BRANCH  11  12
HETATM   12  N   UNL     1     -11.584  10.146  68.437  1.00  0.00    -0.514 N  
HETATM   13  C   UNL     1     -10.333   9.585  68.334  1.00  0.00    -0.206 C  
HETATM   14  H   UNL     1     -12.277   9.980  67.707  1.00  0.00     0.000 HD 
HETATM   15  O   UNL     1      -9.454   9.737  69.176  1.00  0.00    -0.169 OA 
BRANCH  13  16
HETATM   16  C   UNL     1     -10.127   8.773  67.071  1.00  0.00    -0.335 C  
BRANCH  16  17
HETATM   17  C   UNL     1     -10.888   7.447  67.100  1.00  0.00    -0.340 C  
BRANCH  17  18
HETATM   18  C   UNL     1      -9.958   6.243  66.913  1.00  0.00    -0.215 C  
BRANCH  18  19
HETATM   19  C   UNL     1      -9.934   5.356  68.157  1.00  0.00    -0.207 C  
BRANCH  19  20
HETATM   20  C   UNL     1     -10.896   5.860  69.195  1.00  0.00    -0.406 C  
HETATM   21  C   UNL     1     -10.545   6.179  70.449  1.00  0.00    -0.317 C  
HETATM   22  C   UNL     1     -11.513   6.680  71.492  1.00  0.00    -0.343 C  
HETATM   23  C   UNL     1     -11.135   8.097  71.923  1.00  0.00    -0.346 C  
HETATM   24  C   UNL     1     -11.524   5.736  72.694  1.00  0.00    -0.337 C  
ENDBRANCH  19  20
ENDBRANCH  18  19
ENDBRANCH  17  18
ENDBRANCH  16  17
ENDBRANCH  13  16
ENDBRANCH  11  12
ENDBRANCH   9  11
ENDBRANCH   2   3
TORSDOF 8
ENDMDL
MODEL      128
REMARK 921   NORMALIZED FREE ENERGY PREDICTED BY IDOCK:   -4.69 KCAL/MOL
REMARK 922        TOTAL FREE ENERGY PREDICTED BY IDOCK:   -8.10 KCAL/MOL
REMARK 923 INTER-LIGAND FREE ENERGY PREDICTED BY IDOCK:   -7.27 KCAL/MOL
REMARK 924 INTRA-LIGAND FREE ENERGY PREDICTED BY IDOCK:   -0.83 KCAL/MOL
REMARK 927      BINDING AFFINITY PREDICTED BY RF-SCORE:    0.00 PKD
ROOT
HETATM    1  C   UNL     1     -10.140  17.840  66.626  1.00  0.00    -0.350 C  
HETATM    2  O   UNL     1     -10.018  16.869  65.594  1.00  0.00    -0.552 OA 
ENDROOT
BRANCH   2   3
HETATM    3  C   UNL     1     -10.772  15.731  65.732  1.00  0.00    -0.327 A  
HETATM    4  C   UNL     1     -11.570  15.415  64.627  1.00  0.00    -0.311 A  
HETATM    5  O   UNL     1     -11.577  16.224  63.525  1.00  0.00    -1.238 OA 
HETATM    6  C   UNL     1     -12.384  14.290  64.617  1.00  0.00    -0.433 A  
HETATM    7  C   UNL     1     -12.435  13.477  65.749  1.00  0.00    -0.514 A  
HETATM    8  H   UNL     1     -12.118  16.010  62.774  1.00  0.00     0.000 HD 
HETATM    9  C   UNL     1     -11.681  13.796  66.890  1.00  0.00    -0.424 A  
HETATM   10  C   UNL     1     -10.823  14.911  66.859  1.00  0.00    -0.319 A  
BRANCH   9  11
HETATM   11  C   UNL     1     -11.821  12.971  68.143  1.00  0.00    -0.340 C  
BRANCH  11  12
HETATM   12  N   UNL     1     -11.256  11.653  67.991  1.00  0.00    -0.242 N  
HETATM   13  C   UNL     1      -9.913  11.448  68.201  1.00  0.00    -0.189 C  
HETATM   14  H   UNL     1     -11.854  10.870  67.728  1.00  0.00     0.000 HD 
HETATM   15  O   UNL     1      -9.137  12.341  68.524  1.00  0.00    -0.166 OA 
BRANCH  13  16
HETATM   16  C   UNL     1      -9.468  10.016  67.978  1.00  0.00    -0.150 C  
BRANCH  16  17
HETATM   17  C   UNL     1     -10.642   9.078  67.696  1.00  0.00    -0.298 C  
BRANCH  17  18
HETATM   18  C   UNL     1     -10.178   7.715  67.171  1.00  0.00    -0.360 C  
BRANCH  18  19
HETATM   19  C   UNL     1      -8.729   7.764  66.689  1.00  0.00    -0.151 C  
BRANCH  19  20
HETATM   20  C   UNL     1      -8.662   8.038  65.214  1.00  0.00    -0.062 C  
HETATM   21  C   UNL     1      -8.511   9.261  64.686  1.00  0.00    -0.192 C  
HETATM   22  C   UNL     1      -8.449   9.535  63.203  1.00  0.00    -0.199 C  
HETATM   23  C   UNL     1      -7.089  10.125  62.833  1.00  0.00    -0.130 C  
HETATM   24  C   UNL     1      -9.577  10.483  62.798  1.00  0.00    -0.323 C  
ENDBRANCH  19  20
ENDBRANCH  18  19
ENDBRANCH  17  18
ENDBRANCH  16  17
ENDBRANCH  13  16
ENDBRANCH  11  12
ENDBRANCH   9  11
ENDBRANCH   2   3
TORSDOF 8
ENDMDL
MODEL      129
REMARK 921   NORMALIZED FREE ENERGY PREDICTED BY IDOCK:   -4.68 KCAL/MOL
REMARK 922        TOTAL FREE ENERGY PREDICTED BY IDOCK:   -8.08 KCAL/MOL
REMARK 923 INTER-LIGAND FREE ENERGY PREDICTED BY IDOCK:   -7.63 KCAL/MOL
REMARK 924 INTRA-LIGAND FREE ENERGY PREDICTED BY IDOCK:   -0.45 KCAL/MOL
REMARK 927      BINDING AFFINITY PREDICTED BY RF-SCORE:    0.00 PKD
ROOT
HETATM    1  C   UNL     1      -9.562   3.882  66.338  1.00  0.00    -0.188 C  
HETATM    2  O   UNL     1      -9.669   5.232  65.905  1.00  0.00    -0.156 OA 
ENDROOT
BRANCH   2   3
HETATM    3  C   UNL     1      -9.988   6.159  66.865  1.00  0.00    -0.168 A  
HETATM    4  C   UNL     1      -9.736   7.489  66.509  1.00  0.00    -0.168 A  
HETATM    5  O   UNL     1      -9.192   7.786  65.290  1.00  0.00    -0.369 OA 
HETATM    6  C   UNL     1     -10.013   8.538  67.374  1.00  0.00    -0.275 A  
HETATM    7  C   UNL     1     -10.519   8.257  68.644  1.00  0.00    -0.199 A  
HETATM    8  H   UNL     1      -9.021   8.688  65.047  1.00  0.00     0.000 HD 
HETATM    9  C   UNL     1     -10.737   6.930  69.046  1.00  0.00    -0.259 A  
HETATM   10  C   UNL     1     -10.500   5.886  68.134  1.00  0.00    -0.291 A  
BRANCH   9  11
HETATM   11  C   UNL     1     -11.186   6.632  70.453  1.00  0.00    -0.344 C  
BRANCH  11  12
HETATM   12  N   UNL     1     -12.306   7.449  70.851  1.00  0.00    -0.515 N  
HETATM   13  C   UNL     1     -12.280   8.120  72.050  1.00  0.00    -0.339 C  
HETATM   14  H   UNL     1     -13.119   7.529  70.240  1.00  0.00     0.000 HD 
HETATM   15  O   UNL     1     -11.334   8.073  72.830  1.00  0.00    -0.394 OA 
BRANCH  13  16
HETATM   16  C   UNL     1     -13.539   8.914  72.336  1.00  0.00    -0.500 C  
BRANCH  16  17
HETATM   17  C   UNL     1     -13.432  10.365  71.864  1.00  0.00    -0.384 C  
BRANCH  17  18
HETATM   18  C   UNL     1     -12.006  10.729  71.437  1.00  0.00    -0.188 C  
BRANCH  18  19
HETATM   19  C   UNL     1     -11.984  11.371  70.050  1.00  0.00    -0.442 C  
BRANCH  19  20
HETATM   20  C   UNL     1     -12.243  12.848  70.138  1.00  0.00    -0.336 C  
HETATM   21  C   UNL     1     -12.649  13.472  71.253  1.00  0.00    -0.427 C  
HETATM   22  C   UNL     1     -12.913  14.955  71.338  1.00  0.00    -0.427 C  
HETATM   23  C   UNL     1     -11.952  15.605  72.333  1.00  0.00    -0.569 C  
HETATM   24  C   UNL     1     -14.364  15.206  71.749  1.00  0.00    -0.696 C  
ENDBRANCH  19  20
ENDBRANCH  18  19
ENDBRANCH  17  18
ENDBRANCH  16  17
ENDBRANCH  13  16
ENDBRANCH  11  12
ENDBRANCH   9  11
ENDBRANCH   2   3
TORSDOF 8
ENDMDL
MODEL      130
REMARK 921   NORMALIZED FREE ENERGY PREDICTED BY IDOCK:   -4.68 KCAL/MOL
REMARK 922        TOTAL FREE ENERGY PREDICTED BY IDOCK:   -8.08 KCAL/MOL
REMARK 923 INTER-LIGAND FREE ENERGY PREDICTED BY IDOCK:   -6.46 KCAL/MOL
REMARK 924 INTRA-LIGAND FREE ENERGY PREDICTED BY IDOCK:   -1.62 KCAL/MOL
REMARK 927      BINDING AFFINITY PREDICTED BY RF-SCORE:    0.00 PKD
ROOT
HETATM    1  C   UNL     1     -10.616   6.980  67.508  1.00  0.00    -0.280 C  
HETATM    2  O   UNL     1     -10.377   7.936  66.482  1.00  0.00    -0.247 OA 
ENDROOT
BRANCH   2   3
HETATM    3  C   UNL     1     -10.118   9.220  66.889  1.00  0.00    -0.256 A  
HETATM    4  C   UNL     1      -8.889   9.737  66.465  1.00  0.00    -0.138 A  
HETATM    5  O   UNL     1      -8.037   8.970  65.719  1.00  0.00    -0.103 OA 
HETATM    6  C   UNL     1      -8.489  11.025  66.795  1.00  0.00    -0.148 A  
HETATM    7  C   UNL     1      -9.317  11.809  67.599  1.00  0.00    -0.180 A  
HETATM    8  H   UNL     1      -7.203   9.321  65.431  1.00  0.00     0.000 HD 
HETATM    9  C   UNL     1     -10.534  11.300  68.079  1.00  0.00    -0.215 A  
HETATM   10  C   UNL     1     -10.944  10.011  67.689  1.00  0.00    -0.297 A  
BRANCH   9  11
HETATM   11  C   UNL     1     -11.372  12.115  69.030  1.00  0.00    -0.276 C  
BRANCH  11  12
HETATM   12  N   UNL     1     -11.194  13.533  68.832  1.00  0.00    -0.263 N  
HETATM   13  C   UNL     1     -11.946  14.431  69.550  1.00  0.00    -0.330 C  
HETATM   14  H   UNL     1     -10.506  13.869  68.157  1.00  0.00     0.000 HD 
HETATM   15  O   UNL     1     -12.785  14.096  70.379  1.00  0.00    -0.342 OA 
BRANCH  13  16
HETATM   16  C   UNL     1     -11.661  15.880  69.211  1.00  0.00    -0.372 C  
BRANCH  16  17
HETATM   17  C   UNL     1     -10.374  16.047  68.402  1.00  0.00    -0.251 C  
BRANCH  17  18
HETATM   18  C   UNL     1     -10.655  16.352  66.927  1.00  0.00    -0.252 C  
BRANCH  18  19
HETATM   19  C   UNL     1      -9.633  15.678  66.011  1.00  0.00    -0.386 C  
BRANCH  19  20
HETATM   20  C   UNL     1     -10.318  14.893  64.929  1.00  0.00    -0.347 C  
HETATM   21  C   UNL     1     -10.637  13.595  65.033  1.00  0.00    -0.394 C  
HETATM   22  C   UNL     1     -11.320  12.807  63.942  1.00  0.00    -0.498 C  
HETATM   23  C   UNL     1     -12.684  12.315  64.424  1.00  0.00    -0.384 C  
HETATM   24  C   UNL     1     -10.442  11.630  63.518  1.00  0.00    -0.498 C  
ENDBRANCH  19  20
ENDBRANCH  18  19
ENDBRANCH  17  18
ENDBRANCH  16  17
ENDBRANCH  13  16
ENDBRANCH  11  12
ENDBRANCH   9  11
ENDBRANCH   2   3
TORSDOF 8
ENDMDL
MODEL      131
REMARK 921   NORMALIZED FREE ENERGY PREDICTED BY IDOCK:   -4.68 KCAL/MOL
REMARK 922        TOTAL FREE ENERGY PREDICTED BY IDOCK:   -8.08 KCAL/MOL
REMARK 923 INTER-LIGAND FREE ENERGY PREDICTED BY IDOCK:   -6.55 KCAL/MOL
REMARK 924 INTRA-LIGAND FREE ENERGY PREDICTED BY IDOCK:   -1.53 KCAL/MOL
REMARK 927      BINDING AFFINITY PREDICTED BY RF-SCORE:    0.00 PKD
ROOT
HETATM    1  C   UNL     1      -9.938   8.763  71.628  1.00  0.00    -0.311 C  
HETATM    2  O   UNL     1     -11.047   8.979  70.765  1.00  0.00    -0.245 OA 
ENDROOT
BRANCH   2   3
HETATM    3  C   UNL     1     -11.641  10.215  70.830  1.00  0.00    -0.372 A  
HETATM    4  C   UNL     1     -12.671  10.326  71.771  1.00  0.00    -0.433 A  
HETATM    5  O   UNL     1     -13.034   9.248  72.529  1.00  0.00    -0.393 OA 
HETATM    6  C   UNL     1     -13.362  11.516  71.955  1.00  0.00    -0.408 A  
HETATM    7  C   UNL     1     -13.046  12.616  71.156  1.00  0.00    -0.144 A  
HETATM    8  H   UNL     1     -13.732   9.323  73.168  1.00  0.00     0.000 HD 
HETATM    9  C   UNL     1     -12.050  12.519  70.172  1.00  0.00    -0.368 A  
HETATM   10  C   UNL     1     -11.326  11.320  70.039  1.00  0.00    -0.292 A  
BRANCH   9  11
HETATM   11  C   UNL     1     -11.788  13.680  69.246  1.00  0.00    -0.346 C  
BRANCH  11  12
HETATM   12  N   UNL     1     -11.872  13.297  67.858  1.00  0.00    -0.352 N  
HETATM   13  C   UNL     1     -11.651  14.226  66.870  1.00  0.00    -0.387 C  
HETATM   14  H   UNL     1     -12.094  12.333  67.609  1.00  0.00     0.000 HD 
HETATM   15  O   UNL     1     -11.374  15.399  67.097  1.00  0.00    -0.305 OA 
BRANCH  13  16
HETATM   16  C   UNL     1     -11.800  13.676  65.465  1.00  0.00    -0.382 C  
BRANCH  16  17
HETATM   17  C   UNL     1     -11.892  12.150  65.444  1.00  0.00    -0.357 C  
BRANCH  17  18
HETATM   18  C   UNL     1     -10.701  11.510  64.720  1.00  0.00    -0.366 C  
BRANCH  18  19
HETATM   19  C   UNL     1     -10.105  10.361  65.532  1.00  0.00    -0.352 C  
BRANCH  19  20
HETATM   20  C   UNL     1      -9.504  10.864  66.814  1.00  0.00    -0.200 C  
HETATM   21  C   UNL     1      -8.559  11.812  66.876  1.00  0.00    -0.177 C  
HETATM   22  C   UNL     1      -7.953  12.313  68.164  1.00  0.00    -0.155 C  
HETATM   23  C   UNL     1      -8.266  13.797  68.351  1.00  0.00    -0.151 C  
HETATM   24  C   UNL     1      -6.443  12.076  68.159  1.00  0.00    -0.054 C  
ENDBRANCH  19  20
ENDBRANCH  18  19
ENDBRANCH  17  18
ENDBRANCH  16  17
ENDBRANCH  13  16
ENDBRANCH  11  12
ENDBRANCH   9  11
ENDBRANCH   2   3
TORSDOF 8
ENDMDL
MODEL      132
REMARK 921   NORMALIZED FREE ENERGY PREDICTED BY IDOCK:   -4.68 KCAL/MOL
REMARK 922        TOTAL FREE ENERGY PREDICTED BY IDOCK:   -8.07 KCAL/MOL
REMARK 923 INTER-LIGAND FREE ENERGY PREDICTED BY IDOCK:   -7.47 KCAL/MOL
REMARK 924 INTRA-LIGAND FREE ENERGY PREDICTED BY IDOCK:   -0.61 KCAL/MOL
REMARK 927      BINDING AFFINITY PREDICTED BY RF-SCORE:    0.00 PKD
ROOT
HETATM    1  C   UNL     1     -10.164   9.910  65.773  1.00  0.00    -0.181 C  
HETATM    2  O   UNL     1     -10.097   8.512  66.026  1.00  0.00    -0.154 OA 
ENDROOT
BRANCH   2   3
HETATM    3  C   UNL     1     -10.339   8.111  67.316  1.00  0.00    -0.303 A  
HETATM    4  C   UNL     1     -10.791   6.794  67.450  1.00  0.00    -0.347 A  
HETATM    5  O   UNL     1     -10.982   6.013  66.343  1.00  0.00    -0.653 OA 
HETATM    6  C   UNL     1     -11.073   6.245  68.694  1.00  0.00    -0.409 A  
HETATM    7  C   UNL     1     -10.937   7.037  69.833  1.00  0.00    -0.296 A  
HETATM    8  H   UNL     1     -11.289   5.119  66.434  1.00  0.00     0.000 HD 
HETATM    9  C   UNL     1     -10.530   8.377  69.725  1.00  0.00    -0.220 A  
HETATM   10  C   UNL     1     -10.199   8.897  68.461  1.00  0.00    -0.223 A  
BRANCH   9  11
HETATM   11  C   UNL     1     -10.485   9.254  70.950  1.00  0.00    -0.302 C  
BRANCH  11  12
HETATM   12  N   UNL     1     -11.012  10.572  70.694  1.00  0.00    -0.398 N  
HETATM   13  C   UNL     1     -12.228  10.944  71.216  1.00  0.00    -0.290 C  
HETATM   14  H   UNL     1     -10.480  11.230  70.125  1.00  0.00     0.000 HD 
HETATM   15  O   UNL     1     -12.917  10.207  71.913  1.00  0.00    -0.416 OA 
BRANCH  13  16
HETATM   16  C   UNL     1     -12.654  12.348  70.837  1.00  0.00    -0.337 C  
BRANCH  16  17
HETATM   17  C   UNL     1     -11.881  12.888  69.634  1.00  0.00    -0.387 C  
BRANCH  17  18
HETATM   18  C   UNL     1     -12.006  14.410  69.502  1.00  0.00    -0.376 C  
BRANCH  18  19
HETATM   19  C   UNL     1     -10.955  14.977  68.548  1.00  0.00    -0.259 C  
BRANCH  19  20
HETATM   20  C   UNL     1     -10.920  16.477  68.618  1.00  0.00    -0.344 C  
HETATM   21  C   UNL     1     -10.275  17.253  67.735  1.00  0.00    -0.332 C  
HETATM   22  C   UNL     1     -10.237  18.759  67.811  1.00  0.00    -0.446 C  
HETATM   23  C   UNL     1     -10.909  19.365  66.580  1.00  0.00    -0.436 C  
HETATM   24  C   UNL     1      -8.790  19.241  67.927  1.00  0.00    -0.355 C  
ENDBRANCH  19  20
ENDBRANCH  18  19
ENDBRANCH  17  18
ENDBRANCH  16  17
ENDBRANCH  13  16
ENDBRANCH  11  12
ENDBRANCH   9  11
ENDBRANCH   2   3
TORSDOF 8
ENDMDL
MODEL      133
REMARK 921   NORMALIZED FREE ENERGY PREDICTED BY IDOCK:   -4.68 KCAL/MOL
REMARK 922        TOTAL FREE ENERGY PREDICTED BY IDOCK:   -8.07 KCAL/MOL
REMARK 923 INTER-LIGAND FREE ENERGY PREDICTED BY IDOCK:   -7.62 KCAL/MOL
REMARK 924 INTRA-LIGAND FREE ENERGY PREDICTED BY IDOCK:   -0.45 KCAL/MOL
REMARK 927      BINDING AFFINITY PREDICTED BY RF-SCORE:    0.00 PKD
ROOT
HETATM    1  C   UNL     1      -9.621   7.021  71.157  1.00  0.00    -0.165 C  
HETATM    2  O   UNL     1     -10.544   7.658  72.032  1.00  0.00    -0.208 OA 
ENDROOT
BRANCH   2   3
HETATM    3  C   UNL     1     -11.120   8.817  71.576  1.00  0.00    -0.307 A  
HETATM    4  C   UNL     1     -12.347   9.138  72.166  1.00  0.00    -0.354 A  
HETATM    5  O   UNL     1     -12.899   8.312  73.106  1.00  0.00    -0.560 OA 
HETATM    6  C   UNL     1     -13.047  10.283  71.810  1.00  0.00    -0.570 A  
HETATM    7  C   UNL     1     -12.531  11.114  70.815  1.00  0.00    -0.479 A  
HETATM    8  H   UNL     1     -13.732   8.530  73.507  1.00  0.00     0.000 HD 
HETATM    9  C   UNL     1     -11.325  10.792  70.173  1.00  0.00    -0.390 A  
HETATM   10  C   UNL     1     -10.606   9.655  70.586  1.00  0.00    -0.386 A  
BRANCH   9  11
HETATM   11  C   UNL     1     -10.829  11.639  69.029  1.00  0.00    -0.203 C  
BRANCH  11  12
HETATM   12  N   UNL     1     -11.128  13.037  69.220  1.00  0.00    -0.421 N  
HETATM   13  C   UNL     1     -11.412  13.837  68.139  1.00  0.00    -0.313 C  
HETATM   14  H   UNL     1     -11.129  13.434  70.160  1.00  0.00     0.000 HD 
HETATM   15  O   UNL     1     -11.434  13.426  66.983  1.00  0.00    -0.307 OA 
BRANCH  13  16
HETATM   16  C   UNL     1     -11.680  15.285  68.499  1.00  0.00    -0.352 C  
BRANCH  16  17
HETATM   17  C   UNL     1     -10.408  16.132  68.488  1.00  0.00    -0.254 C  
BRANCH  17  18
HETATM   18  C   UNL     1     -10.577  17.417  67.669  1.00  0.00    -0.350 C  
BRANCH  18  19
HETATM   19  C   UNL     1     -10.012  18.630  68.407  1.00  0.00    -0.428 C  
BRANCH  19  20
HETATM   20  C   UNL     1      -8.512  18.654  68.330  1.00  0.00    -0.366 C  
HETATM   21  C   UNL     1      -7.788  19.773  68.180  1.00  0.00    -0.343 C  
HETATM   22  C   UNL     1      -6.282  19.795  68.098  1.00  0.00    -0.267 C  
HETATM   23  C   UNL     1      -5.703  20.583  69.272  1.00  0.00    -0.386 C  
HETATM   24  C   UNL     1      -5.839  20.404  66.768  1.00  0.00    -0.209 C  
ENDBRANCH  19  20
ENDBRANCH  18  19
ENDBRANCH  17  18
ENDBRANCH  16  17
ENDBRANCH  13  16
ENDBRANCH  11  12
ENDBRANCH   9  11
ENDBRANCH   2   3
TORSDOF 8
ENDMDL
MODEL      134
REMARK 921   NORMALIZED FREE ENERGY PREDICTED BY IDOCK:   -4.68 KCAL/MOL
REMARK 922        TOTAL FREE ENERGY PREDICTED BY IDOCK:   -8.07 KCAL/MOL
REMARK 923 INTER-LIGAND FREE ENERGY PREDICTED BY IDOCK:   -7.39 KCAL/MOL
REMARK 924 INTRA-LIGAND FREE ENERGY PREDICTED BY IDOCK:   -0.68 KCAL/MOL
REMARK 927      BINDING AFFINITY PREDICTED BY RF-SCORE:    0.00 PKD
ROOT
HETATM    1  C   UNL     1     -10.485   2.480  73.371  1.00  0.00    -0.140 C  
HETATM    2  O   UNL     1      -9.645   3.131  72.425  1.00  0.00    -0.114 OA 
ENDROOT
BRANCH   2   3
HETATM    3  C   UNL     1     -10.113   4.309  71.900  1.00  0.00    -0.167 A  
HETATM    4  C   UNL     1     -10.116   4.373  70.503  1.00  0.00    -0.119 A  
HETATM    5  O   UNL     1      -9.657   3.319  69.762  1.00  0.00    -0.167 OA 
HETATM    6  C   UNL     1     -10.566   5.499  69.827  1.00  0.00    -0.388 A  
HETATM    7  C   UNL     1     -10.989   6.608  70.561  1.00  0.00    -0.337 A  
HETATM    8  H   UNL     1      -9.659   3.362  68.813  1.00  0.00     0.000 HD 
HETATM    9  C   UNL     1     -10.953   6.590  71.964  1.00  0.00    -0.283 A  
HETATM   10  C   UNL     1     -10.544   5.419  72.628  1.00  0.00    -0.274 A  
BRANCH   9  11
HETATM   11  C   UNL     1     -11.315   7.827  72.745  1.00  0.00    -0.389 C  
BRANCH  11  12
HETATM   12  N   UNL     1     -11.579   8.954  71.885  1.00  0.00    -0.354 N  
HETATM   13  C   UNL     1     -12.834   9.513  71.843  1.00  0.00    -0.420 C  
HETATM   14  H   UNL     1     -10.832   9.338  71.305  1.00  0.00     0.000 HD 
HETATM   15  O   UNL     1     -13.776   9.106  72.515  1.00  0.00    -0.474 OA 
BRANCH  13  16
HETATM   16  C   UNL     1     -12.959  10.671  70.874  1.00  0.00    -0.429 C  
BRANCH  16  17
HETATM   17  C   UNL     1     -11.623  11.036  70.227  1.00  0.00    -0.414 C  
BRANCH  17  18
HETATM   18  C   UNL     1     -11.731  11.147  68.702  1.00  0.00    -0.389 C  
BRANCH  18  19
HETATM   19  C   UNL     1     -11.894  12.600  68.257  1.00  0.00    -0.354 C  
BRANCH  19  20
HETATM   20  C   UNL     1     -11.329  12.807  66.880  1.00  0.00    -0.371 C  
HETATM   21  C   UNL     1     -11.661  12.063  65.815  1.00  0.00    -0.353 C  
HETATM   22  C   UNL     1     -11.089  12.269  64.435  1.00  0.00    -0.381 C  
HETATM   23  C   UNL     1     -12.198  12.653  63.457  1.00  0.00    -0.638 C  
HETATM   24  C   UNL     1     -10.375  11.000  63.969  1.00  0.00    -0.436 C  
ENDBRANCH  19  20
ENDBRANCH  18  19
ENDBRANCH  17  18
ENDBRANCH  16  17
ENDBRANCH  13  16
ENDBRANCH  11  12
ENDBRANCH   9  11
ENDBRANCH   2   3
TORSDOF 8
ENDMDL
MODEL      135
REMARK 921   NORMALIZED FREE ENERGY PREDICTED BY IDOCK:   -4.64 KCAL/MOL
REMARK 922        TOTAL FREE ENERGY PREDICTED BY IDOCK:   -8.02 KCAL/MOL
REMARK 923 INTER-LIGAND FREE ENERGY PREDICTED BY IDOCK:   -7.18 KCAL/MOL
REMARK 924 INTRA-LIGAND FREE ENERGY PREDICTED BY IDOCK:   -0.84 KCAL/MOL
REMARK 927      BINDING AFFINITY PREDICTED BY RF-SCORE:    0.00 PKD
ROOT
HETATM    1  C   UNL     1     -10.658  19.828  65.849  1.00  0.00    -0.453 C  
HETATM    2  O   UNL     1      -9.721  19.466  66.855  1.00  0.00    -0.312 OA 
ENDROOT
BRANCH   2   3
HETATM    3  C   UNL     1      -9.476  18.125  67.010  1.00  0.00    -0.274 A  
HETATM    4  C   UNL     1      -8.278  17.675  66.445  1.00  0.00    -0.263 A  
HETATM    5  O   UNL     1      -7.459  18.544  65.779  1.00  0.00    -0.471 OA 
HETATM    6  C   UNL     1      -7.892  16.344  66.526  1.00  0.00    -0.323 A  
HETATM    7  C   UNL     1      -8.735  15.428  67.153  1.00  0.00    -0.243 A  
HETATM    8  H   UNL     1      -6.645  18.239  65.395  1.00  0.00     0.000 HD 
HETATM    9  C   UNL     1      -9.965  15.842  67.689  1.00  0.00    -0.237 A  
HETATM   10  C   UNL     1     -10.313  17.205  67.643  1.00  0.00    -0.344 A  
BRANCH   9  11
HETATM   11  C   UNL     1     -10.915  14.828  68.272  1.00  0.00    -0.258 C  
BRANCH  11  12
HETATM   12  N   UNL     1     -10.830  13.554  67.601  1.00  0.00    -0.257 N  
HETATM   13  C   UNL     1     -11.687  13.258  66.569  1.00  0.00    -0.377 C  
HETATM   14  H   UNL     1     -10.130  12.872  67.893  1.00  0.00     0.000 HD 
HETATM   15  O   UNL     1     -12.548  14.032  66.163  1.00  0.00    -0.468 OA 
BRANCH  13  16
HETATM   16  C   UNL     1     -11.489  11.874  65.984  1.00  0.00    -0.344 C  
BRANCH  16  17
HETATM   17  C   UNL     1     -10.177  11.232  66.438  1.00  0.00    -0.273 C  
BRANCH  17  18
HETATM   18  C   UNL     1     -10.043   9.785  65.950  1.00  0.00    -0.314 C  
BRANCH  18  19
HETATM   19  C   UNL     1     -10.315   8.788  67.076  1.00  0.00    -0.353 C  
BRANCH  19  20
HETATM   20  C   UNL     1     -10.277   9.466  68.415  1.00  0.00    -0.224 C  
HETATM   21  C   UNL     1     -11.136   9.206  69.411  1.00  0.00    -0.027 C  
HETATM   22  C   UNL     1     -11.100   9.892  70.754  1.00  0.00    -0.417 C  
HETATM   23  C   UNL     1     -10.820   8.873  71.858  1.00  0.00    -0.433 C  
HETATM   24  C   UNL     1     -12.422  10.614  71.010  1.00  0.00    -0.515 C  
ENDBRANCH  19  20
ENDBRANCH  18  19
ENDBRANCH  17  18
ENDBRANCH  16  17
ENDBRANCH  13  16
ENDBRANCH  11  12
ENDBRANCH   9  11
ENDBRANCH   2   3
TORSDOF 8
ENDMDL
MODEL      136
REMARK 921   NORMALIZED FREE ENERGY PREDICTED BY IDOCK:   -4.63 KCAL/MOL
REMARK 922        TOTAL FREE ENERGY PREDICTED BY IDOCK:   -8.01 KCAL/MOL
REMARK 923 INTER-LIGAND FREE ENERGY PREDICTED BY IDOCK:   -6.14 KCAL/MOL
REMARK 924 INTRA-LIGAND FREE ENERGY PREDICTED BY IDOCK:   -1.86 KCAL/MOL
REMARK 927      BINDING AFFINITY PREDICTED BY RF-SCORE:    0.00 PKD
ROOT
HETATM    1  C   UNL     1      -8.368   8.837  64.489  1.00  0.00    -0.162 C  
HETATM    2  O   UNL     1      -9.402   8.843  65.465  1.00  0.00    -0.215 OA 
ENDROOT
BRANCH   2   3
HETATM    3  C   UNL     1      -9.352   9.842  66.404  1.00  0.00    -0.171 A  
HETATM    4  C   UNL     1     -10.308   9.746  67.421  1.00  0.00    -0.240 A  
HETATM    5  O   UNL     1     -11.218   8.724  67.419  1.00  0.00    -0.330 OA 
HETATM    6  C   UNL     1     -10.377  10.680  68.445  1.00  0.00    -0.197 A  
HETATM    7  C   UNL     1      -9.495  11.761  68.440  1.00  0.00    -0.188 A  
HETATM    8  H   UNL     1     -11.867   8.658  68.109  1.00  0.00     0.000 HD 
HETATM    9  C   UNL     1      -8.556  11.909  67.407  1.00  0.00    -0.164 A  
HETATM   10  C   UNL     1      -8.468  10.922  66.409  1.00  0.00    -0.163 A  
BRANCH   9  11
HETATM   11  C   UNL     1      -7.677  13.133  67.355  1.00  0.00    -0.145 C  
BRANCH  11  12
HETATM   12  N   UNL     1      -8.393  14.295  66.888  1.00  0.00    -0.400 N  
HETATM   13  C   UNL     1      -8.414  15.443  67.642  1.00  0.00    -0.162 C  
HETATM   14  H   UNL     1      -8.884  14.264  65.994  1.00  0.00     0.000 HD 
HETATM   15  O   UNL     1      -7.841  15.552  68.722  1.00  0.00    -0.138 OA 
BRANCH  13  16
HETATM   16  C   UNL     1      -9.227  16.566  67.029  1.00  0.00    -0.233 C  
BRANCH  16  17
HETATM   17  C   UNL     1     -10.690  16.177  66.818  1.00  0.00    -0.235 C  
BRANCH  17  18
HETATM   18  C   UNL     1     -11.232  15.322  67.969  1.00  0.00    -0.330 C  
BRANCH  18  19
HETATM   19  C   UNL     1     -12.028  14.125  67.450  1.00  0.00    -0.439 C  
BRANCH  19  20
HETATM   20  C   UNL     1     -11.868  13.978  65.964  1.00  0.00    -0.401 C  
HETATM   21  C   UNL     1     -11.711  12.801  65.341  1.00  0.00    -0.425 C  
HETATM   22  C   UNL     1     -11.547  12.655  63.848  1.00  0.00    -0.521 C  
HETATM   23  C   UNL     1     -12.710  11.853  63.266  1.00  0.00    -0.407 C  
HETATM   24  C   UNL     1     -10.213  11.979  63.532  1.00  0.00    -0.477 C  
ENDBRANCH  19  20
ENDBRANCH  18  19
ENDBRANCH  17  18
ENDBRANCH  16  17
ENDBRANCH  13  16
ENDBRANCH  11  12
ENDBRANCH   9  11
ENDBRANCH   2   3
TORSDOF 8
ENDMDL
MODEL      137
REMARK 921   NORMALIZED FREE ENERGY PREDICTED BY IDOCK:   -4.63 KCAL/MOL
REMARK 922        TOTAL FREE ENERGY PREDICTED BY IDOCK:   -8.01 KCAL/MOL
REMARK 923 INTER-LIGAND FREE ENERGY PREDICTED BY IDOCK:   -7.29 KCAL/MOL
REMARK 924 INTRA-LIGAND FREE ENERGY PREDICTED BY IDOCK:   -0.72 KCAL/MOL
REMARK 927      BINDING AFFINITY PREDICTED BY RF-SCORE:    0.00 PKD
ROOT
HETATM    1  C   UNL     1     -11.938  12.413  70.117  1.00  0.00    -0.298 C  
HETATM    2  O   UNL     1     -12.462  13.642  69.630  1.00  0.00    -0.251 OA 
ENDROOT
BRANCH   2   3
HETATM    3  C   UNL     1     -11.751  14.257  68.631  1.00  0.00    -0.345 A  
HETATM    4  C   UNL     1     -10.736  15.115  69.069  1.00  0.00    -0.239 A  
HETATM    5  O   UNL     1     -10.525  15.307  70.407  1.00  0.00    -0.458 OA 
HETATM    6  C   UNL     1      -9.929  15.804  68.174  1.00  0.00    -0.214 A  
HETATM    7  C   UNL     1     -10.159  15.666  66.806  1.00  0.00    -0.277 A  
HETATM    8  H   UNL     1      -9.836  15.889  70.705  1.00  0.00     0.000 HD 
HETATM    9  C   UNL     1     -11.201  14.849  66.337  1.00  0.00    -0.331 A  
HETATM   10  C   UNL     1     -11.972  14.119  67.260  1.00  0.00    -0.449 A  
BRANCH   9  11
HETATM   11  C   UNL     1     -11.507  14.787  64.863  1.00  0.00    -0.412 C  
BRANCH  11  12
HETATM   12  N   UNL     1     -10.718  13.788  64.185  1.00  0.00    -0.553 N  
HETATM   13  C   UNL     1     -11.290  12.600  63.799  1.00  0.00    -0.467 C  
HETATM   14  H   UNL     1      -9.732  13.964  63.992  1.00  0.00     0.000 HD 
HETATM   15  O   UNL     1     -12.470  12.324  63.994  1.00  0.00    -0.470 OA 
BRANCH  13  16
HETATM   16  C   UNL     1     -10.327  11.645  63.123  1.00  0.00    -0.383 C  
BRANCH  16  17
HETATM   17  C   UNL     1      -9.970  10.452  64.010  1.00  0.00    -0.305 C  
BRANCH  17  18
HETATM   18  C   UNL     1      -9.211  10.879  65.272  1.00  0.00    -0.236 C  
BRANCH  18  19
HETATM   19  C   UNL     1     -10.129  10.910  66.493  1.00  0.00    -0.269 C  
BRANCH  19  20
HETATM   20  C   UNL     1     -10.038   9.625  67.267  1.00  0.00    -0.267 C  
HETATM   21  C   UNL     1      -9.891   8.419  66.701  1.00  0.00    -0.343 C  
HETATM   22  C   UNL     1      -9.805   7.130  67.479  1.00  0.00    -0.192 C  
HETATM   23  C   UNL     1      -8.445   6.469  67.254  1.00  0.00    -0.112 C  
HETATM   24  C   UNL     1     -10.936   6.190  67.064  1.00  0.00    -0.414 C  
ENDBRANCH  19  20
ENDBRANCH  18  19
ENDBRANCH  17  18
ENDBRANCH  16  17
ENDBRANCH  13  16
ENDBRANCH  11  12
ENDBRANCH   9  11
ENDBRANCH   2   3
TORSDOF 8
ENDMDL
MODEL      138
REMARK 921   NORMALIZED FREE ENERGY PREDICTED BY IDOCK:   -4.62 KCAL/MOL
REMARK 922        TOTAL FREE ENERGY PREDICTED BY IDOCK:   -7.99 KCAL/MOL
REMARK 923 INTER-LIGAND FREE ENERGY PREDICTED BY IDOCK:   -7.28 KCAL/MOL
REMARK 924 INTRA-LIGAND FREE ENERGY PREDICTED BY IDOCK:   -0.72 KCAL/MOL
REMARK 927      BINDING AFFINITY PREDICTED BY RF-SCORE:    0.00 PKD
ROOT
HETATM    1  C   UNL     1     -13.141   9.301  71.766  1.00  0.00    -0.400 C  
HETATM    2  O   UNL     1     -12.448   8.249  72.426  1.00  0.00    -0.344 OA 
ENDROOT
BRANCH   2   3
HETATM    3  C   UNL     1     -11.851   7.310  71.623  1.00  0.00    -0.298 A  
HETATM    4  C   UNL     1     -11.182   6.289  72.306  1.00  0.00    -0.283 A  
HETATM    5  O   UNL     1     -11.138   6.285  73.673  1.00  0.00    -0.442 OA 
HETATM    6  C   UNL     1     -10.534   5.265  71.628  1.00  0.00    -0.280 A  
HETATM    7  C   UNL     1     -10.519   5.275  70.233  1.00  0.00    -0.332 A  
HETATM    8  H   UNL     1     -10.684   5.591  74.136  1.00  0.00     0.000 HD 
HETATM    9  C   UNL     1     -11.143   6.313  69.522  1.00  0.00    -0.476 A  
HETATM   10  C   UNL     1     -11.838   7.312  70.228  1.00  0.00    -0.109 A  
BRANCH   9  11
HETATM   11  C   UNL     1     -11.033   6.371  68.020  1.00  0.00    -0.311 C  
BRANCH  11  12
HETATM   12  N   UNL     1     -10.912   7.724  67.536  1.00  0.00    -0.526 N  
HETATM   13  C   UNL     1      -9.747   8.145  66.941  1.00  0.00    -0.226 C  
HETATM   14  H   UNL     1     -11.695   8.372  67.635  1.00  0.00     0.000 HD 
HETATM   15  O   UNL     1      -8.770   7.419  66.785  1.00  0.00    -0.124 OA 
BRANCH  13  16
HETATM   16  C   UNL     1      -9.766   9.597  66.509  1.00  0.00    -0.272 C  
BRANCH  16  17
HETATM   17  C   UNL     1     -10.892  10.388  67.177  1.00  0.00    -0.301 C  
BRANCH  17  18
HETATM   18  C   UNL     1     -10.617  11.896  67.176  1.00  0.00    -0.264 C  
BRANCH  18  19
HETATM   19  C   UNL     1     -11.745  12.671  66.497  1.00  0.00    -0.463 C  
BRANCH  19  20
HETATM   20  C   UNL     1     -12.057  13.935  67.246  1.00  0.00    -0.403 C  
HETATM   21  C   UNL     1     -11.148  14.640  67.934  1.00  0.00    -0.301 C  
HETATM   22  C   UNL     1     -11.463  15.907  68.690  1.00  0.00    -0.391 C  
HETATM   23  C   UNL     1     -10.689  17.082  68.095  1.00  0.00    -0.374 C  
HETATM   24  C   UNL     1     -11.124  15.732  70.171  1.00  0.00    -0.360 C  
ENDBRANCH  19  20
ENDBRANCH  18  19
ENDBRANCH  17  18
ENDBRANCH  16  17
ENDBRANCH  13  16
ENDBRANCH  11  12
ENDBRANCH   9  11
ENDBRANCH   2   3
TORSDOF 8
ENDMDL
MODEL      139
REMARK 921   NORMALIZED FREE ENERGY PREDICTED BY IDOCK:   -4.61 KCAL/MOL
REMARK 922        TOTAL FREE ENERGY PREDICTED BY IDOCK:   -7.97 KCAL/MOL
REMARK 923 INTER-LIGAND FREE ENERGY PREDICTED BY IDOCK:   -6.71 KCAL/MOL
REMARK 924 INTRA-LIGAND FREE ENERGY PREDICTED BY IDOCK:   -1.26 KCAL/MOL
REMARK 927      BINDING AFFINITY PREDICTED BY RF-SCORE:    0.00 PKD
ROOT
HETATM    1  C   UNL     1     -10.455  19.833  66.188  1.00  0.00    -0.509 C  
HETATM    2  O   UNL     1      -9.636  19.156  67.134  1.00  0.00    -0.307 OA 
ENDROOT
BRANCH   2   3
HETATM    3  C   UNL     1      -9.544  17.794  67.001  1.00  0.00    -0.284 A  
HETATM    4  C   UNL     1      -8.281  17.319  66.634  1.00  0.00    -0.261 A  
HETATM    5  O   UNL     1      -7.252  18.194  66.415  1.00  0.00    -0.212 OA 
HETATM    6  C   UNL     1      -8.033  15.964  66.466  1.00  0.00    -0.231 A  
HETATM    7  C   UNL     1      -9.079  15.056  66.632  1.00  0.00    -0.309 A  
HETATM    8  H   UNL     1      -6.393  17.872  66.166  1.00  0.00     0.000 HD 
HETATM    9  C   UNL     1     -10.369  15.507  66.955  1.00  0.00    -0.290 A  
HETATM   10  C   UNL     1     -10.585  16.880  67.172  1.00  0.00    -0.249 A  
BRANCH   9  11
HETATM   11  C   UNL     1     -11.514  14.529  67.030  1.00  0.00    -0.370 C  
BRANCH  11  12
HETATM   12  N   UNL     1     -11.364  13.444  66.092  1.00  0.00    -0.297 N  
HETATM   13  C   UNL     1     -12.117  13.415  64.943  1.00  0.00    -0.392 C  
HETATM   14  H   UNL     1     -10.697  12.696  66.282  1.00  0.00     0.000 HD 
HETATM   15  O   UNL     1     -12.933  14.283  64.649  1.00  0.00    -0.621 OA 
BRANCH  13  16
HETATM   16  C   UNL     1     -11.864  12.200  64.073  1.00  0.00    -0.523 C  
BRANCH  16  17
HETATM   17  C   UNL     1     -10.394  12.065  63.675  1.00  0.00    -0.482 C  
BRANCH  17  18
HETATM   18  C   UNL     1      -9.859  10.648  63.914  1.00  0.00    -0.398 C  
BRANCH  18  19
HETATM   19  C   UNL     1     -10.056  10.213  65.366  1.00  0.00    -0.342 C  
BRANCH  19  20
HETATM   20  C   UNL     1      -8.785  10.373  66.151  1.00  0.00    -0.163 C  
HETATM   21  C   UNL     1      -8.716  10.974  67.347  1.00  0.00    -0.132 C  
HETATM   22  C   UNL     1      -7.438  11.138  68.133  1.00  0.00    -0.093 C  
HETATM   23  C   UNL     1      -7.534  10.382  69.458  1.00  0.00    -0.148 C  
HETATM   24  C   UNL     1      -7.160  12.621  68.377  1.00  0.00    -0.101 C  
ENDBRANCH  19  20
ENDBRANCH  18  19
ENDBRANCH  17  18
ENDBRANCH  16  17
ENDBRANCH  13  16
ENDBRANCH  11  12
ENDBRANCH   9  11
ENDBRANCH   2   3
TORSDOF 8
ENDMDL
MODEL      140
REMARK 921   NORMALIZED FREE ENERGY PREDICTED BY IDOCK:   -4.60 KCAL/MOL
REMARK 922        TOTAL FREE ENERGY PREDICTED BY IDOCK:   -7.95 KCAL/MOL
REMARK 923 INTER-LIGAND FREE ENERGY PREDICTED BY IDOCK:   -7.28 KCAL/MOL
REMARK 924 INTRA-LIGAND FREE ENERGY PREDICTED BY IDOCK:   -0.67 KCAL/MOL
REMARK 927      BINDING AFFINITY PREDICTED BY RF-SCORE:    0.00 PKD
ROOT
HETATM    1  C   UNL     1     -11.780  16.028  70.763  1.00  0.00    -0.378 C  
HETATM    2  O   UNL     1     -12.925  15.235  71.052  1.00  0.00    -0.395 OA 
ENDROOT
BRANCH   2   3
HETATM    3  C   UNL     1     -12.788  13.880  70.886  1.00  0.00    -0.300 A  
HETATM    4  C   UNL     1     -13.378  13.100  71.887  1.00  0.00    -0.455 A  
HETATM    5  O   UNL     1     -14.012  13.695  72.942  1.00  0.00    -0.630 OA 
HETATM    6  C   UNL     1     -13.327  11.713  71.852  1.00  0.00    -0.403 A  
HETATM    7  C   UNL     1     -12.640  11.084  70.815  1.00  0.00    -0.463 A  
HETATM    8  H   UNL     1     -14.413  13.166  73.622  1.00  0.00     0.000 HD 
HETATM    9  C   UNL     1     -11.998  11.841  69.822  1.00  0.00    -0.392 A  
HETATM   10  C   UNL     1     -12.108  13.244  69.847  1.00  0.00    -0.377 A  
BRANCH   9  11
HETATM   11  C   UNL     1     -11.173  11.155  68.764  1.00  0.00    -0.253 C  
BRANCH  11  12
HETATM   12  N   UNL     1      -9.843  11.706  68.671  1.00  0.00    -0.296 N  
HETATM   13  C   UNL     1      -9.535  12.607  67.681  1.00  0.00    -0.189 C  
HETATM   14  H   UNL     1      -9.128  11.425  69.344  1.00  0.00     0.000 HD 
HETATM   15  O   UNL     1     -10.345  12.993  66.844  1.00  0.00    -0.242 OA 
BRANCH  13  16
HETATM   16  C   UNL     1      -8.093  13.074  67.702  1.00  0.00    -0.172 C  
BRANCH  16  17
HETATM   17  C   UNL     1      -7.954  14.518  68.182  1.00  0.00    -0.133 C  
BRANCH  17  18
HETATM   18  C   UNL     1      -6.830  15.264  67.455  1.00  0.00    -0.188 C  
BRANCH  18  19
HETATM   19  C   UNL     1      -6.842  16.756  67.785  1.00  0.00    -0.156 C  
BRANCH  19  20
HETATM   20  C   UNL     1      -8.246  17.288  67.814  1.00  0.00    -0.205 C  
HETATM   21  C   UNL     1      -8.590  18.515  67.397  1.00  0.00    -0.266 C  
HETATM   22  C   UNL     1     -10.000  19.050  67.430  1.00  0.00    -0.410 C  
HETATM   23  C   UNL     1     -10.484  19.348  66.012  1.00  0.00    -0.596 C  
HETATM   24  C   UNL     1     -10.062  20.308  68.296  1.00  0.00    -0.386 C  
ENDBRANCH  19  20
ENDBRANCH  18  19
ENDBRANCH  17  18
ENDBRANCH  16  17
ENDBRANCH  13  16
ENDBRANCH  11  12
ENDBRANCH   9  11
ENDBRANCH   2   3
TORSDOF 8
ENDMDL
MODEL      141
REMARK 921   NORMALIZED FREE ENERGY PREDICTED BY IDOCK:   -4.60 KCAL/MOL
REMARK 922        TOTAL FREE ENERGY PREDICTED BY IDOCK:   -7.95 KCAL/MOL
REMARK 923 INTER-LIGAND FREE ENERGY PREDICTED BY IDOCK:   -7.29 KCAL/MOL
REMARK 924 INTRA-LIGAND FREE ENERGY PREDICTED BY IDOCK:   -0.66 KCAL/MOL
REMARK 927      BINDING AFFINITY PREDICTED BY RF-SCORE:    0.00 PKD
ROOT
HETATM    1  C   UNL     1      -7.068  14.592  68.494  1.00  0.00    -0.114 C  
HETATM    2  O   UNL     1      -8.047  14.986  67.540  1.00  0.00    -0.152 OA 
ENDROOT
BRANCH   2   3
HETATM    3  C   UNL     1      -9.296  14.436  67.681  1.00  0.00    -0.200 A  
HETATM    4  C   UNL     1      -9.996  14.247  66.484  1.00  0.00    -0.281 A  
HETATM    5  O   UNL     1      -9.440  14.619  65.292  1.00  0.00    -0.456 OA 
HETATM    6  C   UNL     1     -11.270  13.695  66.467  1.00  0.00    -0.321 A  
HETATM    7  C   UNL     1     -11.881  13.357  67.675  1.00  0.00    -0.394 A  
HETATM    8  H   UNL     1      -9.915  14.490  64.479  1.00  0.00     0.000 HD 
HETATM    9  C   UNL     1     -11.221  13.579  68.894  1.00  0.00    -0.316 A  
HETATM   10  C   UNL     1      -9.910  14.089  68.885  1.00  0.00    -0.077 A  
BRANCH   9  11
HETATM   11  C   UNL     1     -11.928  13.306  70.196  1.00  0.00    -0.318 C  
BRANCH  11  12
HETATM   12  N   UNL     1     -12.156  11.897  70.406  1.00  0.00    -0.378 N  
HETATM   13  C   UNL     1     -12.932  11.471  71.457  1.00  0.00    -0.380 C  
HETATM   14  H   UNL     1     -11.740  11.215  69.771  1.00  0.00     0.000 HD 
HETATM   15  O   UNL     1     -13.466  12.235  72.254  1.00  0.00    -0.520 OA 
BRANCH  13  16
HETATM   16  C   UNL     1     -13.055   9.964  71.557  1.00  0.00    -0.516 C  
BRANCH  16  17
HETATM   17  C   UNL     1     -11.705   9.282  71.778  1.00  0.00    -0.456 C  
BRANCH  17  18
HETATM   18  C   UNL     1     -11.847   7.941  72.506  1.00  0.00    -0.390 C  
BRANCH  18  19
HETATM   19  C   UNL     1     -12.099   6.795  71.526  1.00  0.00    -0.410 C  
BRANCH  19  20
HETATM   20  C   UNL     1     -11.038   6.755  70.463  1.00  0.00    -0.346 C  
HETATM   21  C   UNL     1     -11.249   6.323  69.212  1.00  0.00    -0.458 C  
HETATM   22  C   UNL     1     -10.181   6.279  68.146  1.00  0.00    -0.200 C  
HETATM   23  C   UNL     1     -10.553   7.206  66.990  1.00  0.00    -0.413 C  
HETATM   24  C   UNL     1      -9.996   4.845  67.650  1.00  0.00    -0.192 C  
ENDBRANCH  19  20
ENDBRANCH  18  19
ENDBRANCH  17  18
ENDBRANCH  16  17
ENDBRANCH  13  16
ENDBRANCH  11  12
ENDBRANCH   9  11
ENDBRANCH   2   3
TORSDOF 8
ENDMDL
MODEL      142
REMARK 921   NORMALIZED FREE ENERGY PREDICTED BY IDOCK:   -4.59 KCAL/MOL
REMARK 922        TOTAL FREE ENERGY PREDICTED BY IDOCK:   -7.94 KCAL/MOL
REMARK 923 INTER-LIGAND FREE ENERGY PREDICTED BY IDOCK:   -6.69 KCAL/MOL
REMARK 924 INTRA-LIGAND FREE ENERGY PREDICTED BY IDOCK:   -1.25 KCAL/MOL
REMARK 927      BINDING AFFINITY PREDICTED BY RF-SCORE:    0.00 PKD
ROOT
HETATM    1  C   UNL     1     -12.261  12.512  64.176  1.00  0.00    -0.467 C  
HETATM    2  O   UNL     1     -11.320  13.503  63.781  1.00  0.00    -0.272 OA 
ENDROOT
BRANCH   2   3
HETATM    3  C   UNL     1     -10.800  14.287  64.779  1.00  0.00    -0.405 A  
HETATM    4  C   UNL     1     -11.143  15.642  64.706  1.00  0.00    -0.412 A  
HETATM    5  O   UNL     1     -11.924  16.102  63.681  1.00  0.00    -1.375 OA 
HETATM    6  C   UNL     1     -10.696  16.557  65.649  1.00  0.00    -0.257 A  
HETATM    7  C   UNL     1      -9.855  16.122  66.673  1.00  0.00    -0.262 A  
HETATM    8  H   UNL     1     -12.157  17.021  63.631  1.00  0.00     0.000 HD 
HETATM    9  C   UNL     1      -9.456  14.778  66.745  1.00  0.00    -0.271 A  
HETATM   10  C   UNL     1      -9.964  13.857  65.810  1.00  0.00    -0.304 A  
BRANCH   9  11
HETATM   11  C   UNL     1      -8.466  14.339  67.794  1.00  0.00    -0.176 C  
BRANCH  11  12
HETATM   12  N   UNL     1      -7.439  13.487  67.248  1.00  0.00    -0.352 N  
HETATM   13  C   UNL     1      -6.508  12.908  68.076  1.00  0.00    -0.108 C  
HETATM   14  H   UNL     1      -7.404  13.312  66.243  1.00  0.00     0.000 HD 
HETATM   15  O   UNL     1      -6.494  13.070  69.292  1.00  0.00    -0.101 OA 
BRANCH  13  16
HETATM   16  C   UNL     1      -5.481  12.063  67.350  1.00  0.00    -0.116 C  
BRANCH  16  17
HETATM   17  C   UNL     1      -6.119  10.911  66.574  1.00  0.00    -0.122 C  
BRANCH  17  18
HETATM   18  C   UNL     1      -7.330  10.322  67.306  1.00  0.00    -0.090 C  
BRANCH  18  19
HETATM   19  C   UNL     1      -8.572  10.313  66.415  1.00  0.00    -0.138 C  
BRANCH  19  20
HETATM   20  C   UNL     1      -9.826  10.312  67.242  1.00  0.00    -0.222 C  
HETATM   21  C   UNL     1      -9.913  10.840  68.470  1.00  0.00    -0.186 C  
HETATM   22  C   UNL     1     -11.173  10.834  69.302  1.00  0.00    -0.333 C  
HETATM   23  C   UNL     1     -11.635  12.266  69.567  1.00  0.00    -0.366 C  
HETATM   24  C   UNL     1     -10.929  10.093  70.616  1.00  0.00    -0.357 C  
ENDBRANCH  19  20
ENDBRANCH  18  19
ENDBRANCH  17  18
ENDBRANCH  16  17
ENDBRANCH  13  16
ENDBRANCH  11  12
ENDBRANCH   9  11
ENDBRANCH   2   3
TORSDOF 8
ENDMDL
MODEL      143
REMARK 921   NORMALIZED FREE ENERGY PREDICTED BY IDOCK:   -4.58 KCAL/MOL
REMARK 922        TOTAL FREE ENERGY PREDICTED BY IDOCK:   -7.93 KCAL/MOL
REMARK 923 INTER-LIGAND FREE ENERGY PREDICTED BY IDOCK:   -7.25 KCAL/MOL
REMARK 924 INTRA-LIGAND FREE ENERGY PREDICTED BY IDOCK:   -0.68 KCAL/MOL
REMARK 927      BINDING AFFINITY PREDICTED BY RF-SCORE:    0.00 PKD
ROOT
HETATM    1  C   UNL     1     -10.413  13.816  68.539  1.00  0.00    -0.244 C  
HETATM    2  O   UNL     1     -11.537  14.465  69.120  1.00  0.00    -0.269 OA 
ENDROOT
BRANCH   2   3
HETATM    3  C   UNL     1     -12.194  13.782  70.112  1.00  0.00    -0.356 A  
HETATM    4  C   UNL     1     -12.909  14.583  71.008  1.00  0.00    -0.350 A  
HETATM    5  O   UNL     1     -12.903  15.944  70.873  1.00  0.00    -0.520 OA 
HETATM    6  C   UNL     1     -13.628  14.034  72.060  1.00  0.00    -0.552 A  
HETATM    7  C   UNL     1     -13.607  12.652  72.250  1.00  0.00    -0.508 A  
HETATM    8  H   UNL     1     -13.388  16.489  71.482  1.00  0.00     0.000 HD 
HETATM    9  C   UNL     1     -12.860  11.826  71.395  1.00  0.00    -0.440 A  
HETATM   10  C   UNL     1     -12.182  12.399  70.303  1.00  0.00    -0.345 A  
BRANCH   9  11
HETATM   11  C   UNL     1     -12.760  10.348  71.669  1.00  0.00    -0.455 C  
BRANCH  11  12
HETATM   12  N   UNL     1     -12.112   9.639  70.594  1.00  0.00    -0.420 N  
HETATM   13  C   UNL     1     -10.854   9.114  70.771  1.00  0.00    -0.268 C  
HETATM   14  H   UNL     1     -12.588   9.525  69.699  1.00  0.00     0.000 HD 
HETATM   15  O   UNL     1     -10.226   9.209  71.821  1.00  0.00    -0.338 OA 
BRANCH  13  16
HETATM   16  C   UNL     1     -10.298   8.421  69.543  1.00  0.00    -0.219 C  
BRANCH  16  17
HETATM   17  C   UNL     1     -10.514   9.236  68.267  1.00  0.00    -0.260 C  
BRANCH  17  18
HETATM   18  C   UNL     1     -10.367   8.380  67.004  1.00  0.00    -0.385 C  
BRANCH  18  19
HETATM   19  C   UNL     1     -10.676   6.909  67.286  1.00  0.00    -0.421 C  
BRANCH  19  20
HETATM   20  C   UNL     1      -9.765   6.009  66.501  1.00  0.00    -0.183 C  
HETATM   21  C   UNL     1     -10.119   4.799  66.045  1.00  0.00    -0.282 C  
HETATM   22  C   UNL     1      -9.202   3.894  65.261  1.00  0.00    -0.150 C  
HETATM   23  C   UNL     1      -9.766   3.657  63.861  1.00  0.00    -0.161 C  
HETATM   24  C   UNL     1      -9.018   2.568  65.999  1.00  0.00    -0.121 C  
ENDBRANCH  19  20
ENDBRANCH  18  19
ENDBRANCH  17  18
ENDBRANCH  16  17
ENDBRANCH  13  16
ENDBRANCH  11  12
ENDBRANCH   9  11
ENDBRANCH   2   3
TORSDOF 8
ENDMDL
MODEL      144
REMARK 921   NORMALIZED FREE ENERGY PREDICTED BY IDOCK:   -4.58 KCAL/MOL
REMARK 922        TOTAL FREE ENERGY PREDICTED BY IDOCK:   -7.93 KCAL/MOL
REMARK 923 INTER-LIGAND FREE ENERGY PREDICTED BY IDOCK:   -6.64 KCAL/MOL
REMARK 924 INTRA-LIGAND FREE ENERGY PREDICTED BY IDOCK:   -1.29 KCAL/MOL
REMARK 927      BINDING AFFINITY PREDICTED BY RF-SCORE:    0.00 PKD
ROOT
HETATM    1  C   UNL     1     -10.427   7.139  68.677  1.00  0.00    -0.197 C  
HETATM    2  O   UNL     1     -10.320   8.098  69.722  1.00  0.00    -0.207 OA 
ENDROOT
BRANCH   2   3
HETATM    3  C   UNL     1     -10.856   9.337  69.474  1.00  0.00    -0.195 A  
HETATM    4  C   UNL     1     -11.385   9.987  70.594  1.00  0.00    -0.348 A  
HETATM    5  O   UNL     1     -11.364   9.379  71.819  1.00  0.00    -0.379 OA 
HETATM    6  C   UNL     1     -11.956  11.249  70.500  1.00  0.00    -0.467 A  
HETATM    7  C   UNL     1     -12.037  11.867  69.252  1.00  0.00    -0.270 A  
HETATM    8  H   UNL     1     -11.723   9.820  72.580  1.00  0.00     0.000 HD 
HETATM    9  C   UNL     1     -11.557  11.219  68.103  1.00  0.00    -0.359 A  
HETATM   10  C   UNL     1     -10.934   9.964  68.229  1.00  0.00    -0.248 A  
BRANCH   9  11
HETATM   11  C   UNL     1     -11.742  11.850  66.747  1.00  0.00    -0.202 C  
BRANCH  11  12
HETATM   12  N   UNL     1     -11.518  13.275  66.776  1.00  0.00    -0.333 N  
HETATM   13  C   UNL     1     -12.380  14.123  66.124  1.00  0.00    -0.436 C  
HETATM   14  H   UNL     1     -10.718  13.654  67.283  1.00  0.00     0.000 HD 
HETATM   15  O   UNL     1     -13.364  13.737  65.500  1.00  0.00    -0.613 OA 
BRANCH  13  16
HETATM   16  C   UNL     1     -11.997  15.586  66.226  1.00  0.00     0.620 C  
BRANCH  16  17
HETATM   17  C   UNL     1     -10.579  15.780  66.764  1.00  0.00    -0.309 C  
BRANCH  17  18
HETATM   18  C   UNL     1     -10.435  17.089  67.550  1.00  0.00    -0.334 C  
BRANCH  18  19
HETATM   19  C   UNL     1      -9.571  16.900  68.797  1.00  0.00    -0.268 C  
BRANCH  19  20
HETATM   20  C   UNL     1     -10.207  15.929  69.749  1.00  0.00    -0.268 C  
HETATM   21  C   UNL     1     -11.280  16.212  70.501  1.00  0.00    -0.381 C  
HETATM   22  C   UNL     1     -11.916  15.236  71.461  1.00  0.00    -0.429 C  
HETATM   23  C   UNL     1     -13.348  14.928  71.027  1.00  0.00    -0.449 C  
HETATM   24  C   UNL     1     -11.893  15.807  72.879  1.00  0.00    -0.568 C  
ENDBRANCH  19  20
ENDBRANCH  18  19
ENDBRANCH  17  18
ENDBRANCH  16  17
ENDBRANCH  13  16
ENDBRANCH  11  12
ENDBRANCH   9  11
ENDBRANCH   2   3
TORSDOF 8
ENDMDL
MODEL      145
REMARK 921   NORMALIZED FREE ENERGY PREDICTED BY IDOCK:   -4.58 KCAL/MOL
REMARK 922        TOTAL FREE ENERGY PREDICTED BY IDOCK:   -7.92 KCAL/MOL
REMARK 923 INTER-LIGAND FREE ENERGY PREDICTED BY IDOCK:   -6.94 KCAL/MOL
REMARK 924 INTRA-LIGAND FREE ENERGY PREDICTED BY IDOCK:   -0.98 KCAL/MOL
REMARK 927      BINDING AFFINITY PREDICTED BY RF-SCORE:    0.00 PKD
ROOT
HETATM    1  C   UNL     1      -8.514  10.229  69.268  1.00  0.00    -0.166 C  
HETATM    2  O   UNL     1      -9.804   9.800  68.851  1.00  0.00    -0.162 OA 
ENDROOT
BRANCH   2   3
HETATM    3  C   UNL     1     -10.760   9.692  69.829  1.00  0.00    -0.245 A  
HETATM    4  C   UNL     1     -11.044   8.384  70.236  1.00  0.00    -0.213 A  
HETATM    5  O   UNL     1     -10.403   7.325  69.653  1.00  0.00    -0.208 OA 
HETATM    6  C   UNL     1     -11.984   8.117  71.222  1.00  0.00    -0.318 A  
HETATM    7  C   UNL     1     -12.689   9.175  71.794  1.00  0.00    -0.446 A  
HETATM    8  H   UNL     1     -10.595   6.437  69.929  1.00  0.00     0.000 HD 
HETATM    9  C   UNL     1     -12.459  10.495  71.372  1.00  0.00    -0.516 A  
HETATM   10  C   UNL     1     -11.464  10.747  70.410  1.00  0.00    -0.397 A  
BRANCH   9  11
HETATM   11  C   UNL     1     -13.298  11.620  71.922  1.00  0.00    -0.298 C  
BRANCH  11  12
HETATM   12  N   UNL     1     -12.896  12.902  71.398  1.00  0.00    -0.341 N  
HETATM   13  C   UNL     1     -13.498  14.053  71.850  1.00  0.00    -0.421 C  
HETATM   14  H   UNL     1     -12.164  12.956  70.690  1.00  0.00     0.000 HD 
HETATM   15  O   UNL     1     -14.380  14.063  72.701  1.00  0.00    -0.596 OA 
BRANCH  13  16
HETATM   16  C   UNL     1     -12.985  15.315  71.186  1.00  0.00    -0.521 C  
BRANCH  16  17
HETATM   17  C   UNL     1     -11.632  15.107  70.506  1.00  0.00    -0.340 C  
BRANCH  17  18
HETATM   18  C   UNL     1     -11.668  15.483  69.020  1.00  0.00    -0.392 C  
BRANCH  18  19
HETATM   19  C   UNL     1     -11.564  14.247  68.127  1.00  0.00    -0.365 C  
BRANCH  19  20
HETATM   20  C   UNL     1     -10.260  14.232  67.381  1.00  0.00    -0.247 C  
HETATM   21  C   UNL     1      -9.189  14.959  67.730  1.00  0.00    -0.186 C  
HETATM   22  C   UNL     1      -7.882  14.947  66.977  1.00  0.00    -0.129 C  
HETATM   23  C   UNL     1      -6.764  14.415  67.872  1.00  0.00    -0.177 C  
HETATM   24  C   UNL     1      -7.551  16.354  66.479  1.00  0.00    -0.258 C  
ENDBRANCH  19  20
ENDBRANCH  18  19
ENDBRANCH  17  18
ENDBRANCH  16  17
ENDBRANCH  13  16
ENDBRANCH  11  12
ENDBRANCH   9  11
ENDBRANCH   2   3
TORSDOF 8
ENDMDL
MODEL      146
REMARK 921   NORMALIZED FREE ENERGY PREDICTED BY IDOCK:   -4.57 KCAL/MOL
REMARK 922        TOTAL FREE ENERGY PREDICTED BY IDOCK:   -7.91 KCAL/MOL
REMARK 923 INTER-LIGAND FREE ENERGY PREDICTED BY IDOCK:   -6.83 KCAL/MOL
REMARK 924 INTRA-LIGAND FREE ENERGY PREDICTED BY IDOCK:   -1.08 KCAL/MOL
REMARK 927      BINDING AFFINITY PREDICTED BY RF-SCORE:    0.00 PKD
ROOT
HETATM    1  C   UNL     1      -9.681   4.816  70.511  1.00  0.00    -0.211 C  
HETATM    2  O   UNL     1     -10.841   5.474  70.017  1.00  0.00    -0.317 OA 
ENDROOT
BRANCH   2   3
HETATM    3  C   UNL     1     -10.632   6.617  69.286  1.00  0.00    -0.238 A  
HETATM    4  C   UNL     1     -10.745   6.460  67.901  1.00  0.00    -0.299 A  
HETATM    5  O   UNL     1     -11.024   5.233  67.364  1.00  0.00    -0.184 OA 
HETATM    6  C   UNL     1     -10.567   7.528  67.032  1.00  0.00    -0.409 A  
HETATM    7  C   UNL     1     -10.230   8.778  67.551  1.00  0.00    -0.309 A  
HETATM    8  H   UNL     1     -11.101   5.127  66.424  1.00  0.00     0.000 HD 
HETATM    9  C   UNL     1     -10.063   8.954  68.934  1.00  0.00    -0.209 A  
HETATM   10  C   UNL     1     -10.302   7.871  69.800  1.00  0.00    -0.219 A  
BRANCH   9  11
HETATM   11  C   UNL     1      -9.599  10.282  69.476  1.00  0.00    -0.202 C  
BRANCH  11  12
HETATM   12  N   UNL     1     -10.630  11.288  69.403  1.00  0.00    -0.413 N  
HETATM   13  C   UNL     1     -10.441  12.418  68.645  1.00  0.00    -0.204 C  
HETATM   14  H   UNL     1     -11.502  11.160  69.917  1.00  0.00     0.000 HD 
HETATM   15  O   UNL     1      -9.420  12.634  67.999  1.00  0.00    -0.197 OA 
BRANCH  13  16
HETATM   16  C   UNL     1     -11.602  13.391  68.691  1.00  0.00    -0.362 C  
BRANCH  16  17
HETATM   17  C   UNL     1     -11.167  14.831  68.423  1.00  0.00    -0.298 C  
BRANCH  17  18
HETATM   18  C   UNL     1     -11.513  15.283  66.999  1.00  0.00    -0.167 C  
BRANCH  18  19
HETATM   19  C   UNL     1     -10.264  15.379  66.124  1.00  0.00    -0.324 C  
BRANCH  19  20
HETATM   20  C   UNL     1     -10.356  14.446  64.950  1.00  0.00    -0.419 C  
HETATM   21  C   UNL     1     -11.006  13.274  64.976  1.00  0.00    -0.328 C  
HETATM   22  C   UNL     1     -11.094  12.335  63.798  1.00  0.00    -0.507 C  
HETATM   23  C   UNL     1     -12.549  12.174  63.361  1.00  0.00    -0.584 C  
HETATM   24  C   UNL     1     -10.487  10.980  64.162  1.00  0.00    -0.434 C  
ENDBRANCH  19  20
ENDBRANCH  18  19
ENDBRANCH  17  18
ENDBRANCH  16  17
ENDBRANCH  13  16
ENDBRANCH  11  12
ENDBRANCH   9  11
ENDBRANCH   2   3
TORSDOF 8
ENDMDL
MODEL      147
REMARK 921   NORMALIZED FREE ENERGY PREDICTED BY IDOCK:   -4.56 KCAL/MOL
REMARK 922        TOTAL FREE ENERGY PREDICTED BY IDOCK:   -7.91 KCAL/MOL
REMARK 923 INTER-LIGAND FREE ENERGY PREDICTED BY IDOCK:   -7.04 KCAL/MOL
REMARK 924 INTRA-LIGAND FREE ENERGY PREDICTED BY IDOCK:   -0.86 KCAL/MOL
REMARK 927      BINDING AFFINITY PREDICTED BY RF-SCORE:    0.00 PKD
ROOT
HETATM    1  C   UNL     1     -10.990   5.717  71.399  1.00  0.00    -0.237 C  
HETATM    2  O   UNL     1     -10.817   5.614  69.991  1.00  0.00    -0.325 OA 
ENDROOT
BRANCH   2   3
HETATM    3  C   UNL     1     -10.678   6.793  69.303  1.00  0.00    -0.253 A  
HETATM    4  C   UNL     1     -10.747   6.675  67.911  1.00  0.00    -0.274 A  
HETATM    5  O   UNL     1     -10.920   5.450  67.329  1.00  0.00    -0.296 OA 
HETATM    6  C   UNL     1     -10.629   7.782  67.081  1.00  0.00    -0.401 A  
HETATM    7  C   UNL     1     -10.399   9.036  67.649  1.00  0.00    -0.317 A  
HETATM    8  H   UNL     1     -10.968   5.370  66.383  1.00  0.00     0.000 HD 
HETATM    9  C   UNL     1     -10.278   9.177  69.040  1.00  0.00    -0.219 A  
HETATM   10  C   UNL     1     -10.454   8.050  69.865  1.00  0.00    -0.233 A  
BRANCH   9  11
HETATM   11  C   UNL     1      -9.927  10.516  69.636  1.00  0.00    -0.112 C  
BRANCH  11  12
HETATM   12  N   UNL     1     -10.351  11.611  68.798  1.00  0.00    -0.275 N  
HETATM   13  C   UNL     1     -11.474  12.334  69.121  1.00  0.00    -0.296 C  
HETATM   14  H   UNL     1      -9.815  11.849  67.964  1.00  0.00     0.000 HD 
HETATM   15  O   UNL     1     -12.162  12.105  70.111  1.00  0.00    -0.292 OA 
BRANCH  13  16
HETATM   16  C   UNL     1     -11.802  13.433  68.131  1.00  0.00    -0.396 C  
BRANCH  16  17
HETATM   17  C   UNL     1     -11.897  12.916  66.696  1.00  0.00    -0.461 C  
BRANCH  17  18
HETATM   18  C   UNL     1     -12.299  14.018  65.710  1.00  0.00    -0.506 C  
BRANCH  18  19
HETATM   19  C   UNL     1     -11.155  14.359  64.755  1.00  0.00    -0.402 C  
BRANCH  19  20
HETATM   20  C   UNL     1     -10.650  15.753  64.998  1.00  0.00    -0.397 C  
HETATM   21  C   UNL     1     -10.177  16.183  66.177  1.00  0.00    -0.351 C  
HETATM   22  C   UNL     1      -9.675  17.584  66.420  1.00  0.00    -0.299 C  
HETATM   23  C   UNL     1      -8.192  17.555  66.790  1.00  0.00    -0.273 C  
HETATM   24  C   UNL     1     -10.493  18.249  67.527  1.00  0.00    -0.431 C  
ENDBRANCH  19  20
ENDBRANCH  18  19
ENDBRANCH  17  18
ENDBRANCH  16  17
ENDBRANCH  13  16
ENDBRANCH  11  12
ENDBRANCH   9  11
ENDBRANCH   2   3
TORSDOF 8
ENDMDL
MODEL      148
REMARK 921   NORMALIZED FREE ENERGY PREDICTED BY IDOCK:   -4.56 KCAL/MOL
REMARK 922        TOTAL FREE ENERGY PREDICTED BY IDOCK:   -7.90 KCAL/MOL
REMARK 923 INTER-LIGAND FREE ENERGY PREDICTED BY IDOCK:   -7.29 KCAL/MOL
REMARK 924 INTRA-LIGAND FREE ENERGY PREDICTED BY IDOCK:   -0.61 KCAL/MOL
REMARK 927      BINDING AFFINITY PREDICTED BY RF-SCORE:    0.00 PKD
ROOT
HETATM    1  C   UNL     1      -9.512  10.458  63.899  1.00  0.00    -0.304 C  
HETATM    2  O   UNL     1     -10.768  11.102  63.727  1.00  0.00    -0.380 OA 
ENDROOT
BRANCH   2   3
HETATM    3  C   UNL     1     -11.204  11.881  64.769  1.00  0.00    -0.297 A  
HETATM    4  C   UNL     1     -12.198  12.808  64.438  1.00  0.00    -0.428 A  
HETATM    5  O   UNL     1     -12.650  12.906  63.150  1.00  0.00    -0.658 OA 
HETATM    6  C   UNL     1     -12.742  13.661  65.388  1.00  0.00    -0.500 A  
HETATM    7  C   UNL     1     -12.260  13.618  66.696  1.00  0.00    -0.437 A  
HETATM    8  H   UNL     1     -13.325  13.535  62.925  1.00  0.00     0.000 HD 
HETATM    9  C   UNL     1     -11.230  12.730  67.047  1.00  0.00    -0.336 A  
HETATM   10  C   UNL     1     -10.731  11.838  66.081  1.00  0.00    -0.320 A  
BRANCH   9  11
HETATM   11  C   UNL     1     -10.646  12.762  68.436  1.00  0.00    -0.248 C  
BRANCH  11  12
HETATM   12  N   UNL     1     -11.405  11.960  69.363  1.00  0.00    -0.342 N  
HETATM   13  C   UNL     1     -11.039  10.659  69.613  1.00  0.00    -0.284 C  
HETATM   14  H   UNL     1     -12.216  12.360  69.836  1.00  0.00     0.000 HD 
HETATM   15  O   UNL     1     -10.074  10.117  69.084  1.00  0.00    -0.189 OA 
BRANCH  13  16
HETATM   16  C   UNL     1     -11.949   9.942  70.590  1.00  0.00    -0.361 C  
BRANCH  16  17
HETATM   17  C   UNL     1     -11.397   8.578  71.006  1.00  0.00    -0.313 C  
BRANCH  17  18
HETATM   18  C   UNL     1     -10.478   8.677  72.230  1.00  0.00    -0.376 C  
BRANCH  18  19
HETATM   19  C   UNL     1     -10.878   7.675  73.312  1.00  0.00    -0.379 C  
BRANCH  19  20
HETATM   20  C   UNL     1     -11.070   6.303  72.730  1.00  0.00    -0.284 C  
HETATM   21  C   UNL     1     -10.366   5.226  73.105  1.00  0.00    -0.229 C  
HETATM   22  C   UNL     1     -10.556   3.850  72.516  1.00  0.00    -0.125 C  
HETATM   23  C   UNL     1     -11.026   2.876  73.596  1.00  0.00    -0.318 C  
HETATM   24  C   UNL     1      -9.252   3.366  71.884  1.00  0.00    -0.179 C  
ENDBRANCH  19  20
ENDBRANCH  18  19
ENDBRANCH  17  18
ENDBRANCH  16  17
ENDBRANCH  13  16
ENDBRANCH  11  12
ENDBRANCH   9  11
ENDBRANCH   2   3
TORSDOF 8
ENDMDL
MODEL      149
REMARK 921   NORMALIZED FREE ENERGY PREDICTED BY IDOCK:   -4.55 KCAL/MOL
REMARK 922        TOTAL FREE ENERGY PREDICTED BY IDOCK:   -7.89 KCAL/MOL
REMARK 923 INTER-LIGAND FREE ENERGY PREDICTED BY IDOCK:   -6.27 KCAL/MOL
REMARK 924 INTRA-LIGAND FREE ENERGY PREDICTED BY IDOCK:   -1.62 KCAL/MOL
REMARK 927      BINDING AFFINITY PREDICTED BY RF-SCORE:    0.00 PKD
ROOT
HETATM    1  C   UNL     1     -13.221  11.022  71.949  1.00  0.00    -0.398 C  
HETATM    2  O   UNL     1     -13.208   9.638  72.278  1.00  0.00    -0.433 OA 
ENDROOT
BRANCH   2   3
HETATM    3  C   UNL     1     -12.181   8.894  71.754  1.00  0.00    -0.359 A  
HETATM    4  C   UNL     1     -12.451   7.528  71.617  1.00  0.00    -0.342 A  
HETATM    5  O   UNL     1     -13.658   7.020  72.011  1.00  0.00    -0.541 OA 
HETATM    6  C   UNL     1     -11.511   6.650  71.097  1.00  0.00    -0.370 A  
HETATM    7  C   UNL     1     -10.253   7.134  70.738  1.00  0.00    -0.208 A  
HETATM    8  H   UNL     1     -13.843   6.093  71.918  1.00  0.00     0.000 HD 
HETATM    9  C   UNL     1      -9.938   8.492  70.908  1.00  0.00    -0.237 A  
HETATM   10  C   UNL     1     -10.923   9.374  71.386  1.00  0.00    -0.443 A  
BRANCH   9  11
HETATM   11  C   UNL     1      -8.545   8.986  70.613  1.00  0.00    -0.210 C  
BRANCH  11  12
HETATM   12  N   UNL     1      -8.552  10.196  69.828  1.00  0.00    -0.328 N  
HETATM   13  C   UNL     1      -7.531  10.454  68.945  1.00  0.00    -0.099 C  
HETATM   14  H   UNL     1      -9.318  10.863  69.929  1.00  0.00     0.000 HD 
HETATM   15  O   UNL     1      -6.583   9.695  68.770  1.00  0.00    -0.047 OA 
BRANCH  13  16
HETATM   16  C   UNL     1      -7.670  11.775  68.215  1.00  0.00    -0.130 C  
BRANCH  16  17
HETATM   17  C   UNL     1      -8.185  11.599  66.786  1.00  0.00    -0.161 C  
BRANCH  17  18
HETATM   18  C   UNL     1      -9.627  12.094  66.628  1.00  0.00    -0.226 C  
BRANCH  18  19
HETATM   19  C   UNL     1     -10.632  11.057  67.128  1.00  0.00    -0.294 C  
BRANCH  19  20
HETATM   20  C   UNL     1     -10.279   9.683  66.633  1.00  0.00    -0.302 C  
HETATM   21  C   UNL     1     -10.308   8.582  67.396  1.00  0.00    -0.356 C  
HETATM   22  C   UNL     1      -9.948   7.204  66.898  1.00  0.00    -0.293 C  
HETATM   23  C   UNL     1     -11.160   6.278  66.988  1.00  0.00    -0.379 C  
HETATM   24  C   UNL     1      -8.780   6.643  67.709  1.00  0.00    -0.116 C  
ENDBRANCH  19  20
ENDBRANCH  18  19
ENDBRANCH  17  18
ENDBRANCH  16  17
ENDBRANCH  13  16
ENDBRANCH  11  12
ENDBRANCH   9  11
ENDBRANCH   2   3
TORSDOF 8
ENDMDL
MODEL      150
REMARK 921   NORMALIZED FREE ENERGY PREDICTED BY IDOCK:   -4.55 KCAL/MOL
REMARK 922        TOTAL FREE ENERGY PREDICTED BY IDOCK:   -7.88 KCAL/MOL
REMARK 923 INTER-LIGAND FREE ENERGY PREDICTED BY IDOCK:   -6.82 KCAL/MOL
REMARK 924 INTRA-LIGAND FREE ENERGY PREDICTED BY IDOCK:   -1.06 KCAL/MOL
REMARK 927      BINDING AFFINITY PREDICTED BY RF-SCORE:    0.00 PKD
ROOT
HETATM    1  C   UNL     1     -12.708  11.868  63.625  1.00  0.00    -0.390 C  
HETATM    2  O   UNL     1     -11.432  11.902  64.252  1.00  0.00    -0.350 OA 
ENDROOT
BRANCH   2   3
HETATM    3  C   UNL     1     -11.339  12.626  65.414  1.00  0.00    -0.313 A  
HETATM    4  C   UNL     1     -10.686  13.857  65.292  1.00  0.00    -0.345 A  
HETATM    5  O   UNL     1     -10.178  14.253  64.086  1.00  0.00    -0.486 OA 
HETATM    6  C   UNL     1     -10.520  14.702  66.381  1.00  0.00    -0.296 A  
HETATM    7  C   UNL     1     -10.982  14.297  67.633  1.00  0.00    -0.286 A  
HETATM    8  H   UNL     1      -9.735  15.089  64.003  1.00  0.00     0.000 HD 
HETATM    9  C   UNL     1     -11.600  13.047  67.794  1.00  0.00    -0.385 A  
HETATM   10  C   UNL     1     -11.805  12.229  66.668  1.00  0.00    -0.362 A  
BRANCH   9  11
HETATM   11  C   UNL     1     -12.003  12.575  69.168  1.00  0.00    -0.236 C  
BRANCH  11  12
HETATM   12  N   UNL     1     -11.117  11.556  69.674  1.00  0.00    -0.443 N  
HETATM   13  C   UNL     1     -11.599  10.566  70.497  1.00  0.00    -0.350 C  
HETATM   14  H   UNL     1     -10.129  11.568  69.419  1.00  0.00     0.000 HD 
HETATM   15  O   UNL     1     -12.775  10.487  70.838  1.00  0.00    -0.350 OA 
BRANCH  13  16
HETATM   16  C   UNL     1     -10.542   9.586  70.964  1.00  0.00    -0.392 C  
BRANCH  16  17
HETATM   17  C   UNL     1      -9.429   9.395  69.933  1.00  0.00    -0.235 C  
BRANCH  17  18
HETATM   18  C   UNL     1      -9.713   8.222  68.988  1.00  0.00    -0.167 C  
BRANCH  18  19
HETATM   19  C   UNL     1     -10.488   8.676  67.751  1.00  0.00    -0.287 C  
BRANCH  19  20
HETATM   20  C   UNL     1      -9.672   8.482  66.505  1.00  0.00    -0.330 C  
HETATM   21  C   UNL     1      -9.132   9.487  65.801  1.00  0.00    -0.243 C  
HETATM   22  C   UNL     1      -8.317   9.292  64.546  1.00  0.00    -0.170 C  
HETATM   23  C   UNL     1      -6.890   9.795  64.762  1.00  0.00    -0.122 C  
HETATM   24  C   UNL     1      -8.974  10.021  63.375  1.00  0.00    -0.277 C  
ENDBRANCH  19  20
ENDBRANCH  18  19
ENDBRANCH  17  18
ENDBRANCH  16  17
ENDBRANCH  13  16
ENDBRANCH  11  12
ENDBRANCH   9  11
ENDBRANCH   2   3
TORSDOF 8
ENDMDL
MODEL      151
REMARK 921   NORMALIZED FREE ENERGY PREDICTED BY IDOCK:   -4.54 KCAL/MOL
REMARK 922        TOTAL FREE ENERGY PREDICTED BY IDOCK:   -7.88 KCAL/MOL
REMARK 923 INTER-LIGAND FREE ENERGY PREDICTED BY IDOCK:   -6.35 KCAL/MOL
REMARK 924 INTRA-LIGAND FREE ENERGY PREDICTED BY IDOCK:   -1.53 KCAL/MOL
REMARK 927      BINDING AFFINITY PREDICTED BY RF-SCORE:    0.00 PKD
ROOT
HETATM    1  C   UNL     1     -12.341  12.331  63.726  1.00  0.00    -0.538 C  
HETATM    2  O   UNL     1     -12.735  12.482  65.084  1.00  0.00    -0.659 OA 
ENDROOT
BRANCH   2   3
HETATM    3  C   UNL     1     -11.966  13.317  65.855  1.00  0.00    -0.419 A  
HETATM    4  C   UNL     1     -11.642  12.819  67.122  1.00  0.00    -0.364 A  
HETATM    5  O   UNL     1     -12.101  11.594  67.521  1.00  0.00    -0.611 OA 
HETATM    6  C   UNL     1     -10.866  13.548  68.013  1.00  0.00    -0.266 A  
HETATM    7  C   UNL     1     -10.430  14.822  67.650  1.00  0.00    -0.254 A  
HETATM    8  H   UNL     1     -11.881  11.255  68.381  1.00  0.00     0.000 HD 
HETATM    9  C   UNL     1     -10.780  15.367  66.404  1.00  0.00    -0.311 A  
HETATM   10  C   UNL     1     -11.522  14.590  65.496  1.00  0.00    -0.343 A  
BRANCH   9  11
HETATM   11  C   UNL     1     -10.391  16.782  66.063  1.00  0.00    -0.335 C  
BRANCH  11  12
HETATM   12  N   UNL     1      -9.065  17.109  66.527  1.00  0.00    -0.257 N  
HETATM   13  C   UNL     1      -8.897  17.944  67.606  1.00  0.00    -0.250 C  
HETATM   14  H   UNL     1      -8.250  16.718  66.055  1.00  0.00     0.000 HD 
HETATM   15  O   UNL     1      -9.831  18.444  68.224  1.00  0.00    -0.320 OA 
BRANCH  13  16
HETATM   16  C   UNL     1      -7.446  18.210  67.956  1.00  0.00    -0.242 C  
BRANCH  16  17
HETATM   17  C   UNL     1      -6.993  17.431  69.191  1.00  0.00    -0.209 C  
BRANCH  17  18
HETATM   18  C   UNL     1      -7.105  15.915  68.990  1.00  0.00    -0.161 C  
BRANCH  18  19
HETATM   19  C   UNL     1      -6.158  15.424  67.897  1.00  0.00    -0.166 C  
BRANCH  19  20
HETATM   20  C   UNL     1      -6.206  13.927  67.777  1.00  0.00    -0.155 C  
HETATM   21  C   UNL     1      -7.334  13.207  67.840  1.00  0.00    -0.131 C  
HETATM   22  C   UNL     1      -7.380  11.703  67.725  1.00  0.00    -0.106 C  
HETATM   23  C   UNL     1      -8.184  11.294  66.491  1.00  0.00    -0.165 C  
HETATM   24  C   UNL     1      -7.990  11.099  68.990  1.00  0.00    -0.087 C  
ENDBRANCH  19  20
ENDBRANCH  18  19
ENDBRANCH  17  18
ENDBRANCH  16  17
ENDBRANCH  13  16
ENDBRANCH  11  12
ENDBRANCH   9  11
ENDBRANCH   2   3
TORSDOF 8
ENDMDL
MODEL      152
REMARK 921   NORMALIZED FREE ENERGY PREDICTED BY IDOCK:   -4.53 KCAL/MOL
REMARK 922        TOTAL FREE ENERGY PREDICTED BY IDOCK:   -7.86 KCAL/MOL
REMARK 923 INTER-LIGAND FREE ENERGY PREDICTED BY IDOCK:   -6.92 KCAL/MOL
REMARK 924 INTRA-LIGAND FREE ENERGY PREDICTED BY IDOCK:   -0.94 KCAL/MOL
REMARK 927      BINDING AFFINITY PREDICTED BY RF-SCORE:    0.00 PKD
ROOT
HETATM    1  C   UNL     1     -12.285  10.390  71.162  1.00  0.00    -0.394 C  
HETATM    2  O   UNL     1     -11.130   9.563  71.236  1.00  0.00    -0.334 OA 
ENDROOT
BRANCH   2   3
HETATM    3  C   UNL     1     -11.001   8.603  70.264  1.00  0.00    -0.236 A  
HETATM    4  C   UNL     1     -11.167   7.287  70.709  1.00  0.00    -0.274 A  
HETATM    5  O   UNL     1     -11.415   7.030  72.029  1.00  0.00    -0.255 OA 
HETATM    6  C   UNL     1     -11.071   6.208  69.840  1.00  0.00    -0.481 A  
HETATM    7  C   UNL     1     -10.766   6.440  68.499  1.00  0.00    -0.347 A  
HETATM    8  H   UNL     1     -11.528   6.136  72.331  1.00  0.00     0.000 HD 
HETATM    9  C   UNL     1     -10.548   7.747  68.034  1.00  0.00    -0.201 A  
HETATM   10  C   UNL     1     -10.703   8.829  68.920  1.00  0.00    -0.114 A  
BRANCH   9  11
HETATM   11  C   UNL     1     -10.118   7.979  66.608  1.00  0.00    -0.259 C  
BRANCH  11  12
HETATM   12  N   UNL     1     -10.248   9.362  66.220  1.00  0.00    -0.254 N  
HETATM   13  C   UNL     1      -9.419   9.892  65.260  1.00  0.00    -0.268 C  
HETATM   14  H   UNL     1     -10.958   9.949  66.659  1.00  0.00     0.000 HD 
HETATM   15  O   UNL     1      -8.549   9.244  64.688  1.00  0.00    -0.168 OA 
BRANCH  13  16
HETATM   16  C   UNL     1      -9.663  11.362  64.981  1.00  0.00    -0.286 C  
BRANCH  16  17
HETATM   17  C   UNL     1     -10.724  11.581  63.902  1.00  0.00    -0.458 C  
BRANCH  17  18
HETATM   18  C   UNL     1     -12.027  12.147  64.481  1.00  0.00    -0.415 C  
BRANCH  18  19
HETATM   19  C   UNL     1     -12.075  13.670  64.366  1.00  0.00    -0.470 C  
BRANCH  19  20
HETATM   20  C   UNL     1     -12.232  14.306  65.718  1.00  0.00    -0.415 C  
HETATM   21  C   UNL     1     -11.511  13.963  66.795  1.00  0.00    -0.369 C  
HETATM   22  C   UNL     1     -11.674  14.599  68.153  1.00  0.00    -0.360 C  
HETATM   23  C   UNL     1     -10.383  15.310  68.560  1.00  0.00    -0.231 C  
HETATM   24  C   UNL     1     -12.053  13.538  69.187  1.00  0.00    -0.331 C  
ENDBRANCH  19  20
ENDBRANCH  18  19
ENDBRANCH  17  18
ENDBRANCH  16  17
ENDBRANCH  13  16
ENDBRANCH  11  12
ENDBRANCH   9  11
ENDBRANCH   2   3
TORSDOF 8
ENDMDL
MODEL      153
REMARK 921   NORMALIZED FREE ENERGY PREDICTED BY IDOCK:   -4.53 KCAL/MOL
REMARK 922        TOTAL FREE ENERGY PREDICTED BY IDOCK:   -7.86 KCAL/MOL
REMARK 923 INTER-LIGAND FREE ENERGY PREDICTED BY IDOCK:   -7.10 KCAL/MOL
REMARK 924 INTRA-LIGAND FREE ENERGY PREDICTED BY IDOCK:   -0.76 KCAL/MOL
REMARK 927      BINDING AFFINITY PREDICTED BY RF-SCORE:    0.00 PKD
ROOT
HETATM    1  C   UNL     1     -14.346   8.039  72.428  1.00  0.00    -0.148 C  
HETATM    2  O   UNL     1     -13.248   8.850  72.827  1.00  0.00    -0.389 OA 
ENDROOT
BRANCH   2   3
HETATM    3  C   UNL     1     -12.400   9.266  71.832  1.00  0.00    -0.382 A  
HETATM    4  C   UNL     1     -12.524  10.613  71.476  1.00  0.00    -0.366 A  
HETATM    5  O   UNL     1     -13.452  11.408  72.091  1.00  0.00    -0.548 OA 
HETATM    6  C   UNL     1     -11.730  11.180  70.488  1.00  0.00    -0.392 A  
HETATM    7  C   UNL     1     -10.813  10.378  69.809  1.00  0.00    -0.342 A  
HETATM    8  H   UNL     1     -13.537  12.323  71.850  1.00  0.00     0.000 HD 
HETATM    9  C   UNL     1     -10.700   9.012  70.112  1.00  0.00    -0.258 A  
HETATM   10  C   UNL     1     -11.476   8.470  71.153  1.00  0.00    -0.322 A  
BRANCH   9  11
HETATM   11  C   UNL     1      -9.781   8.132  69.304  1.00  0.00    -0.170 C  
BRANCH  11  12
HETATM   12  N   UNL     1      -9.380   8.757  68.067  1.00  0.00    -0.142 N  
HETATM   13  C   UNL     1      -9.559   8.103  66.872  1.00  0.00    -0.208 C  
HETATM   14  H   UNL     1      -8.963   9.688  68.080  1.00  0.00     0.000 HD 
HETATM   15  O   UNL     1     -10.058   6.986  66.783  1.00  0.00    -0.207 OA 
BRANCH  13  16
HETATM   16  C   UNL     1      -9.065   8.879  65.667  1.00  0.00    -0.269 C  
BRANCH  16  17
HETATM   17  C   UNL     1      -9.989  10.042  65.305  1.00  0.00    -0.368 C  
BRANCH  17  18
HETATM   18  C   UNL     1      -9.727  10.566  63.888  1.00  0.00    -0.384 C  
BRANCH  18  19
HETATM   19  C   UNL     1     -10.768  11.607  63.476  1.00  0.00    -0.495 C  
BRANCH  19  20
HETATM   20  C   UNL     1     -10.945  12.644  64.548  1.00  0.00    -0.365 C  
HETATM   21  C   UNL     1     -10.275  13.804  64.586  1.00  0.00    -0.313 C  
HETATM   22  C   UNL     1     -10.450  14.843  65.666  1.00  0.00    -0.366 C  
HETATM   23  C   UNL     1     -10.988  16.141  65.066  1.00  0.00    -0.357 C  
HETATM   24  C   UNL     1      -9.120  15.088  66.378  1.00  0.00    -0.312 C  
ENDBRANCH  19  20
ENDBRANCH  18  19
ENDBRANCH  17  18
ENDBRANCH  16  17
ENDBRANCH  13  16
ENDBRANCH  11  12
ENDBRANCH   9  11
ENDBRANCH   2   3
TORSDOF 8
ENDMDL
MODEL      154
REMARK 921   NORMALIZED FREE ENERGY PREDICTED BY IDOCK:   -4.53 KCAL/MOL
REMARK 922        TOTAL FREE ENERGY PREDICTED BY IDOCK:   -7.86 KCAL/MOL
REMARK 923 INTER-LIGAND FREE ENERGY PREDICTED BY IDOCK:   -7.11 KCAL/MOL
REMARK 924 INTRA-LIGAND FREE ENERGY PREDICTED BY IDOCK:   -0.75 KCAL/MOL
REMARK 927      BINDING AFFINITY PREDICTED BY RF-SCORE:    0.00 PKD
ROOT
HETATM    1  C   UNL     1     -11.523  15.891  68.536  1.00  0.00    -0.377 C  
HETATM    2  O   UNL     1     -11.321  14.897  67.538  1.00  0.00    -0.321 OA 
ENDROOT
BRANCH   2   3
HETATM    3  C   UNL     1     -11.375  13.591  67.955  1.00  0.00    -0.289 A  
HETATM    4  C   UNL     1     -10.982  12.649  66.998  1.00  0.00    -0.265 A  
HETATM    5  O   UNL     1     -10.602  13.053  65.747  1.00  0.00    -0.269 OA 
HETATM    6  C   UNL     1     -10.979  11.289  67.275  1.00  0.00    -0.342 A  
HETATM    7  C   UNL     1     -11.414  10.849  68.525  1.00  0.00    -0.380 A  
HETATM    8  H   UNL     1     -10.335  12.414  65.097  1.00  0.00     0.000 HD 
HETATM    9  C   UNL     1     -11.858  11.768  69.489  1.00  0.00    -0.402 A  
HETATM   10  C   UNL     1     -11.802  13.145  69.206  1.00  0.00    -0.377 A  
BRANCH   9  11
HETATM   11  C   UNL     1     -12.422  11.276  70.798  1.00  0.00    -0.376 C  
BRANCH  11  12
HETATM   12  N   UNL     1     -11.805  10.045  71.226  1.00  0.00    -0.379 N  
HETATM   13  C   UNL     1     -12.524   9.129  71.957  1.00  0.00    -0.382 C  
HETATM   14  H   UNL     1     -10.832   9.853  70.986  1.00  0.00     0.000 HD 
HETATM   15  O   UNL     1     -13.697   9.293  72.275  1.00  0.00    -0.447 OA 
BRANCH  13  16
HETATM   16  C   UNL     1     -11.730   7.900  72.352  1.00  0.00    -0.423 C  
BRANCH  16  17
HETATM   17  C   UNL     1     -12.218   6.638  71.642  1.00  0.00    -0.401 C  
BRANCH  17  18
HETATM   18  C   UNL     1     -11.567   6.463  70.265  1.00  0.00    -0.451 C  
BRANCH  18  19
HETATM   19  C   UNL     1     -10.042   6.478  70.361  1.00  0.00    -0.213 C  
BRANCH  19  20
HETATM   20  C   UNL     1      -9.420   5.886  69.128  1.00  0.00    -0.151 C  
HETATM   21  C   UNL     1      -9.975   4.902  68.408  1.00  0.00    -0.183 C  
HETATM   22  C   UNL     1      -9.347   4.306  67.173  1.00  0.00    -0.187 C  
HETATM   23  C   UNL     1     -10.237   4.556  65.956  1.00  0.00    -0.288 C  
HETATM   24  C   UNL     1      -9.116   2.808  67.373  1.00  0.00    -0.208 C  
ENDBRANCH  19  20
ENDBRANCH  18  19
ENDBRANCH  17  18
ENDBRANCH  16  17
ENDBRANCH  13  16
ENDBRANCH  11  12
ENDBRANCH   9  11
ENDBRANCH   2   3
TORSDOF 8
ENDMDL
MODEL      155
REMARK 921   NORMALIZED FREE ENERGY PREDICTED BY IDOCK:   -4.52 KCAL/MOL
REMARK 922        TOTAL FREE ENERGY PREDICTED BY IDOCK:   -7.84 KCAL/MOL
REMARK 923 INTER-LIGAND FREE ENERGY PREDICTED BY IDOCK:   -7.02 KCAL/MOL
REMARK 924 INTRA-LIGAND FREE ENERGY PREDICTED BY IDOCK:   -0.82 KCAL/MOL
REMARK 927      BINDING AFFINITY PREDICTED BY RF-SCORE:    0.00 PKD
ROOT
HETATM    1  C   UNL     1      -9.033   1.842  67.313  1.00  0.00    -0.134 C  
HETATM    2  O   UNL     1      -9.116   3.090  66.635  1.00  0.00    -0.149 OA 
ENDROOT
BRANCH   2   3
HETATM    3  C   UNL     1      -9.694   4.125  67.327  1.00  0.00    -0.170 A  
HETATM    4  C   UNL     1     -10.312   5.096  66.531  1.00  0.00    -0.291 A  
HETATM    5  O   UNL     1     -10.293   4.985  65.168  1.00  0.00    -0.400 OA 
HETATM    6  C   UNL     1     -10.944   6.199  67.089  1.00  0.00    -0.420 A  
HETATM    7  C   UNL     1     -10.931   6.362  68.474  1.00  0.00    -0.396 A  
HETATM    8  H   UNL     1     -10.712   5.644  64.627  1.00  0.00     0.000 HD 
HETATM    9  C   UNL     1     -10.278   5.428  69.295  1.00  0.00    -0.315 A  
HETATM   10  C   UNL     1      -9.690   4.290  68.713  1.00  0.00    -0.184 A  
BRANCH   9  11
HETATM   11  C   UNL     1     -10.181   5.667  70.780  1.00  0.00    -0.227 C  
BRANCH  11  12
HETATM   12  N   UNL     1     -10.567   7.009  71.141  1.00  0.00    -0.216 N  
HETATM   13  C   UNL     1     -11.733   7.230  71.833  1.00  0.00    -0.287 C  
HETATM   14  H   UNL     1      -9.972   7.796  70.882  1.00  0.00     0.000 HD 
HETATM   15  O   UNL     1     -12.492   6.332  72.180  1.00  0.00    -0.291 OA 
BRANCH  13  16
HETATM   16  C   UNL     1     -12.011   8.693  72.115  1.00  0.00    -0.449 C  
BRANCH  16  17
HETATM   17  C   UNL     1     -11.091   9.624  71.326  1.00  0.00    -0.426 C  
BRANCH  17  18
HETATM   18  C   UNL     1     -11.841  10.377  70.221  1.00  0.00    -0.399 C  
BRANCH  18  19
HETATM   19  C   UNL     1     -10.958  10.591  68.992  1.00  0.00    -0.289 C  
BRANCH  19  20
HETATM   20  C   UNL     1     -11.753  11.163  67.853  1.00  0.00    -0.260 C  
HETATM   21  C   UNL     1     -11.291  12.101  67.014  1.00  0.00    -0.398 C  
HETATM   22  C   UNL     1     -12.093  12.679  65.874  1.00  0.00    -0.459 C  
HETATM   23  C   UNL     1     -11.420  12.353  64.540  1.00  0.00    -0.394 C  
HETATM   24  C   UNL     1     -12.240  14.190  66.049  1.00  0.00    -0.464 C  
ENDBRANCH  19  20
ENDBRANCH  18  19
ENDBRANCH  17  18
ENDBRANCH  16  17
ENDBRANCH  13  16
ENDBRANCH  11  12
ENDBRANCH   9  11
ENDBRANCH   2   3
TORSDOF 8
ENDMDL
MODEL      156
REMARK 921   NORMALIZED FREE ENERGY PREDICTED BY IDOCK:   -4.52 KCAL/MOL
REMARK 922        TOTAL FREE ENERGY PREDICTED BY IDOCK:   -7.84 KCAL/MOL
REMARK 923 INTER-LIGAND FREE ENERGY PREDICTED BY IDOCK:   -6.80 KCAL/MOL
REMARK 924 INTRA-LIGAND FREE ENERGY PREDICTED BY IDOCK:   -1.04 KCAL/MOL
REMARK 927      BINDING AFFINITY PREDICTED BY RF-SCORE:    0.00 PKD
ROOT
HETATM    1  C   UNL     1     -12.902  14.218  65.080  1.00  0.00    -0.238 C  
HETATM    2  O   UNL     1     -11.551  14.571  65.353  1.00  0.00    -0.343 OA 
ENDROOT
BRANCH   2   3
HETATM    3  C   UNL     1     -10.824  13.679  66.100  1.00  0.00    -0.279 A  
HETATM    4  C   UNL     1      -9.517  14.082  66.393  1.00  0.00    -0.259 A  
HETATM    5  O   UNL     1      -9.041  15.276  65.927  1.00  0.00    -0.436 OA 
HETATM    6  C   UNL     1      -8.663  13.287  67.145  1.00  0.00    -0.215 A  
HETATM    7  C   UNL     1      -9.106  12.041  67.588  1.00  0.00    -0.179 A  
HETATM    8  H   UNL     1      -8.154  15.550  66.126  1.00  0.00     0.000 HD 
HETATM    9  C   UNL     1     -10.397  11.590  67.269  1.00  0.00    -0.236 A  
HETATM   10  C   UNL     1     -11.264  12.434  66.551  1.00  0.00    -0.368 A  
BRANCH   9  11
HETATM   11  C   UNL     1     -10.831  10.201  67.663  1.00  0.00    -0.290 C  
BRANCH  11  12
HETATM   12  N   UNL     1     -11.614  10.200  68.874  1.00  0.00    -0.504 N  
HETATM   13  C   UNL     1     -11.015   9.945  70.084  1.00  0.00    -0.301 C  
HETATM   14  H   UNL     1     -12.616  10.390  68.832  1.00  0.00     0.000 HD 
HETATM   15  O   UNL     1      -9.817   9.715  70.208  1.00  0.00    -0.241 OA 
BRANCH  13  16
HETATM   16  C   UNL     1     -11.974   9.954  71.258  1.00  0.00    -0.489 C  
BRANCH  16  17
HETATM   17  C   UNL     1     -12.641   8.596  71.477  1.00  0.00    -0.360 C  
BRANCH  17  18
HETATM   18  C   UNL     1     -11.776   7.660  72.330  1.00  0.00    -0.366 C  
BRANCH  18  19
HETATM   19  C   UNL     1     -11.592   6.300  71.657  1.00  0.00    -0.353 C  
BRANCH  19  20
HETATM   20  C   UNL     1     -11.491   6.448  70.166  1.00  0.00    -0.484 C  
HETATM   21  C   UNL     1     -10.431   6.057  69.445  1.00  0.00    -0.331 C  
HETATM   22  C   UNL     1     -10.329   6.210  67.947  1.00  0.00    -0.250 C  
HETATM   23  C   UNL     1     -10.227   4.838  67.283  1.00  0.00    -0.157 C  
HETATM   24  C   UNL     1      -9.119   7.073  67.590  1.00  0.00    -0.122 C  
ENDBRANCH  19  20
ENDBRANCH  18  19
ENDBRANCH  17  18
ENDBRANCH  16  17
ENDBRANCH  13  16
ENDBRANCH  11  12
ENDBRANCH   9  11
ENDBRANCH   2   3
TORSDOF 8
ENDMDL
MODEL      157
REMARK 921   NORMALIZED FREE ENERGY PREDICTED BY IDOCK:   -4.49 KCAL/MOL
REMARK 922        TOTAL FREE ENERGY PREDICTED BY IDOCK:   -7.80 KCAL/MOL
REMARK 923 INTER-LIGAND FREE ENERGY PREDICTED BY IDOCK:   -6.98 KCAL/MOL
REMARK 924 INTRA-LIGAND FREE ENERGY PREDICTED BY IDOCK:   -0.81 KCAL/MOL
REMARK 927      BINDING AFFINITY PREDICTED BY RF-SCORE:    0.00 PKD
ROOT
HETATM    1  C   UNL     1     -10.605   5.681  67.412  1.00  0.00    -0.237 C  
HETATM    2  O   UNL     1     -10.158   5.010  68.584  1.00  0.00    -0.165 OA 
ENDROOT
BRANCH   2   3
HETATM    3  C   UNL     1     -10.598   5.512  69.783  1.00  0.00    -0.318 A  
HETATM    4  C   UNL     1     -10.282   4.734  70.901  1.00  0.00    -0.177 A  
HETATM    5  O   UNL     1      -9.601   3.557  70.753  1.00  0.00    -0.163 OA 
HETATM    6  C   UNL     1     -10.656   5.116  72.182  1.00  0.00    -0.273 A  
HETATM    7  C   UNL     1     -11.397   6.285  72.354  1.00  0.00    -0.333 A  
HETATM    8  H   UNL     1      -9.386   3.028  71.512  1.00  0.00     0.000 HD 
HETATM    9  C   UNL     1     -11.770   7.062  71.245  1.00  0.00    -0.356 A  
HETATM   10  C   UNL     1     -11.334   6.684  69.962  1.00  0.00    -0.440 A  
BRANCH   9  11
HETATM   11  C   UNL     1     -12.657   8.266  71.431  1.00  0.00    -0.275 C  
BRANCH  11  12
HETATM   12  N   UNL     1     -12.226   9.386  70.630  1.00  0.00    -0.478 N  
HETATM   13  C   UNL     1     -12.504  10.671  71.032  1.00  0.00    -0.413 C  
HETATM   14  H   UNL     1     -11.713   9.224  69.763  1.00  0.00     0.000 HD 
HETATM   15  O   UNL     1     -13.112  10.938  72.063  1.00  0.00    -0.491 OA 
BRANCH  13  16
HETATM   16  C   UNL     1     -12.009  11.735  70.073  1.00  0.00    -0.421 C  
BRANCH  16  17
HETATM   17  C   UNL     1     -11.420  11.138  68.794  1.00  0.00    -0.366 C  
BRANCH  17  18
HETATM   18  C   UNL     1     -11.518  12.104  67.608  1.00  0.00    -0.399 C  
BRANCH  18  19
HETATM   19  C   UNL     1     -10.159  12.713  67.268  1.00  0.00    -0.215 C  
BRANCH  19  20
HETATM   20  C   UNL     1      -9.878  13.913  68.127  1.00  0.00    -0.240 C  
HETATM   21  C   UNL     1     -10.776  14.874  68.387  1.00  0.00    -0.245 C  
HETATM   22  C   UNL     1     -10.491  16.081  69.245  1.00  0.00    -0.257 C  
HETATM   23  C   UNL     1     -11.392  16.075  70.479  1.00  0.00    -0.420 C  
HETATM   24  C   UNL     1     -10.696  17.361  68.435  1.00  0.00    -0.301 C  
ENDBRANCH  19  20
ENDBRANCH  18  19
ENDBRANCH  17  18
ENDBRANCH  16  17
ENDBRANCH  13  16
ENDBRANCH  11  12
ENDBRANCH   9  11
ENDBRANCH   2   3
TORSDOF 8
ENDMDL
MODEL      158
REMARK 921   NORMALIZED FREE ENERGY PREDICTED BY IDOCK:   -4.48 KCAL/MOL
REMARK 922        TOTAL FREE ENERGY PREDICTED BY IDOCK:   -7.78 KCAL/MOL
REMARK 923 INTER-LIGAND FREE ENERGY PREDICTED BY IDOCK:   -7.07 KCAL/MOL
REMARK 924 INTRA-LIGAND FREE ENERGY PREDICTED BY IDOCK:   -0.71 KCAL/MOL
REMARK 927      BINDING AFFINITY PREDICTED BY RF-SCORE:    0.00 PKD
ROOT
HETATM    1  C   UNL     1     -10.169   9.035  67.699  1.00  0.00    -0.242 C  
HETATM    2  O   UNL     1     -10.963   9.426  68.812  1.00  0.00    -0.159 OA 
ENDROOT
BRANCH   2   3
HETATM    3  C   UNL     1     -11.341  10.744  68.862  1.00  0.00    -0.284 A  
HETATM    4  C   UNL     1     -11.676  11.215  70.137  1.00  0.00    -0.353 A  
HETATM    5  O   UNL     1     -11.633  10.376  71.216  1.00  0.00    -0.311 OA 
HETATM    6  C   UNL     1     -12.072  12.529  70.345  1.00  0.00    -0.380 A  
HETATM    7  C   UNL     1     -12.174  13.390  69.253  1.00  0.00    -0.222 A  
HETATM    8  H   UNL     1     -11.860  10.695  72.081  1.00  0.00     0.000 HD 
HETATM    9  C   UNL     1     -11.890  12.933  67.956  1.00  0.00    -0.390 A  
HETATM   10  C   UNL     1     -11.439  11.613  67.774  1.00  0.00    -0.373 A  
BRANCH   9  11
HETATM   11  C   UNL     1     -12.103  13.841  66.772  1.00  0.00    -0.418 C  
BRANCH  11  12
HETATM   12  N   UNL     1     -11.345  15.063  66.882  1.00  0.00    -0.331 N  
HETATM   13  C   UNL     1     -10.145  15.194  66.223  1.00  0.00    -0.283 C  
HETATM   14  H   UNL     1     -11.700  15.832  67.449  1.00  0.00     0.000 HD 
HETATM   15  O   UNL     1      -9.662  14.313  65.520  1.00  0.00    -0.266 OA 
BRANCH  13  16
HETATM   16  C   UNL     1      -9.459  16.525  66.457  1.00  0.00    -0.296 C  
BRANCH  16  17
HETATM   17  C   UNL     1     -10.454  17.675  66.611  1.00  0.00    -0.286 C  
BRANCH  17  18
HETATM   18  C   UNL     1     -10.301  18.395  67.955  1.00  0.00    -0.410 C  
BRANCH  18  19
HETATM   19  C   UNL     1      -9.576  19.731  67.795  1.00  0.00    -0.469 C  
BRANCH  19  20
HETATM   20  C   UNL     1      -8.088  19.551  67.898  1.00  0.00    -0.340 C  
HETATM   21  C   UNL     1      -7.416  19.528  69.057  1.00  0.00    -0.380 C  
HETATM   22  C   UNL     1      -5.921  19.352  69.158  1.00  0.00    -0.283 C  
HETATM   23  C   UNL     1      -5.592  18.063  69.911  1.00  0.00    -0.240 C  
HETATM   24  C   UNL     1      -5.297  20.559  69.858  1.00  0.00    -0.358 C  
ENDBRANCH  19  20
ENDBRANCH  18  19
ENDBRANCH  17  18
ENDBRANCH  16  17
ENDBRANCH  13  16
ENDBRANCH  11  12
ENDBRANCH   9  11
ENDBRANCH   2   3
TORSDOF 8
ENDMDL
MODEL      159
REMARK 921   NORMALIZED FREE ENERGY PREDICTED BY IDOCK:   -4.48 KCAL/MOL
REMARK 922        TOTAL FREE ENERGY PREDICTED BY IDOCK:   -7.78 KCAL/MOL
REMARK 923 INTER-LIGAND FREE ENERGY PREDICTED BY IDOCK:   -7.19 KCAL/MOL
REMARK 924 INTRA-LIGAND FREE ENERGY PREDICTED BY IDOCK:   -0.59 KCAL/MOL
REMARK 927      BINDING AFFINITY PREDICTED BY RF-SCORE:    0.00 PKD
ROOT
HETATM    1  C   UNL     1     -13.905   9.076  72.354  1.00  0.00    -0.475 C  
HETATM    2  O   UNL     1     -12.497   9.278  72.322  1.00  0.00    -0.360 OA 
ENDROOT
BRANCH   2   3
HETATM    3  C   UNL     1     -11.990   9.876  71.196  1.00  0.00    -0.384 A  
HETATM    4  C   UNL     1     -11.139   9.071  70.431  1.00  0.00    -0.244 A  
HETATM    5  O   UNL     1     -10.851   7.795  70.832  1.00  0.00    -0.230 OA 
HETATM    6  C   UNL     1     -10.554   9.537  69.262  1.00  0.00    -0.236 A  
HETATM    7  C   UNL     1     -10.790  10.851  68.860  1.00  0.00    -0.262 A  
HETATM    8  H   UNL     1     -10.274   7.248  70.312  1.00  0.00     0.000 HD 
HETATM    9  C   UNL     1     -11.602  11.698  69.632  1.00  0.00    -0.401 A  
HETATM   10  C   UNL     1     -12.227  11.189  70.785  1.00  0.00    -0.484 A  
BRANCH   9  11
HETATM   11  C   UNL     1     -11.768  13.145  69.246  1.00  0.00    -0.321 C  
BRANCH  11  12
HETATM   12  N   UNL     1     -10.786  13.564  68.276  1.00  0.00    -0.250 N  
HETATM   13  C   UNL     1     -11.183  14.014  67.040  1.00  0.00    -0.313 C  
HETATM   14  H   UNL     1      -9.793  13.526  68.508  1.00  0.00     0.000 HD 
HETATM   15  O   UNL     1     -12.358  14.090  66.696  1.00  0.00    -0.451 OA 
BRANCH  13  16
HETATM   16  C   UNL     1     -10.035  14.393  66.126  1.00  0.00    -0.328 C  
BRANCH  16  17
HETATM   17  C   UNL     1      -9.499  15.796  66.414  1.00  0.00    -0.326 C  
BRANCH  17  18
HETATM   18  C   UNL     1     -10.616  16.771  66.803  1.00  0.00    -0.203 C  
BRANCH  18  19
HETATM   19  C   UNL     1     -10.311  17.472  68.126  1.00  0.00    -0.375 C  
BRANCH  19  20
HETATM   20  C   UNL     1      -8.836  17.713  68.279  1.00  0.00    -0.276 C  
HETATM   21  C   UNL     1      -8.280  18.930  68.358  1.00  0.00    -0.377 C  
HETATM   22  C   UNL     1      -6.798  19.170  68.507  1.00  0.00    -0.310 C  
HETATM   23  C   UNL     1      -6.509  19.875  69.832  1.00  0.00    -0.372 C  
HETATM   24  C   UNL     1      -6.281  19.998  67.331  1.00  0.00    -0.211 C  
ENDBRANCH  19  20
ENDBRANCH  18  19
ENDBRANCH  17  18
ENDBRANCH  16  17
ENDBRANCH  13  16
ENDBRANCH  11  12
ENDBRANCH   9  11
ENDBRANCH   2   3
TORSDOF 8
ENDMDL
MODEL      160
REMARK 921   NORMALIZED FREE ENERGY PREDICTED BY IDOCK:   -4.48 KCAL/MOL
REMARK 922        TOTAL FREE ENERGY PREDICTED BY IDOCK:   -7.78 KCAL/MOL
REMARK 923 INTER-LIGAND FREE ENERGY PREDICTED BY IDOCK:   -6.95 KCAL/MOL
REMARK 924 INTRA-LIGAND FREE ENERGY PREDICTED BY IDOCK:   -0.83 KCAL/MOL
REMARK 927      BINDING AFFINITY PREDICTED BY RF-SCORE:    0.00 PKD
ROOT
HETATM    1  C   UNL     1     -11.642  15.663  71.282  1.00  0.00    -0.428 C  
HETATM    2  O   UNL     1     -12.366  15.666  70.058  1.00  0.00    -0.369 OA 
ENDROOT
BRANCH   2   3
HETATM    3  C   UNL     1     -11.792  14.999  69.005  1.00  0.00    -0.300 A  
HETATM    4  C   UNL     1     -11.072  15.805  68.117  1.00  0.00    -0.341 A  
HETATM    5  O   UNL     1     -10.995  17.156  68.318  1.00  0.00    -0.352 OA 
HETATM    6  C   UNL     1     -10.431  15.272  67.007  1.00  0.00    -0.292 A  
HETATM    7  C   UNL     1     -10.540  13.905  66.752  1.00  0.00    -0.277 A  
HETATM    8  H   UNL     1     -10.506  17.704  67.715  1.00  0.00     0.000 HD 
HETATM    9  C   UNL     1     -11.295  13.079  67.600  1.00  0.00    -0.342 A  
HETATM   10  C   UNL     1     -11.891  13.631  68.748  1.00  0.00    -0.395 A  
BRANCH   9  11
HETATM   11  C   UNL     1     -11.491  11.624  67.259  1.00  0.00    -0.277 C  
BRANCH  11  12
HETATM   12  N   UNL     1     -10.716  10.757  68.112  1.00  0.00    -0.197 N  
HETATM   13  C   UNL     1      -9.652  10.053  67.600  1.00  0.00    -0.148 C  
HETATM   14  H   UNL     1     -10.958  10.666  69.099  1.00  0.00     0.000 HD 
HETATM   15  O   UNL     1      -9.303  10.119  66.426  1.00  0.00    -0.160 OA 
BRANCH  13  16
HETATM   16  C   UNL     1      -8.955   9.169  68.614  1.00  0.00    -0.136 C  
BRANCH  16  17
HETATM   17  C   UNL     1      -8.950   9.782  70.015  1.00  0.00    -0.255 C  
BRANCH  17  18
HETATM   18  C   UNL     1      -8.403   8.811  71.068  1.00  0.00    -0.208 C  
BRANCH  18  19
HETATM   19  C   UNL     1      -9.467   7.807  71.510  1.00  0.00    -0.174 C  
BRANCH  19  20
HETATM   20  C   UNL     1     -10.643   8.507  72.127  1.00  0.00    -0.419 C  
HETATM   21  C   UNL     1     -11.742   8.866  71.447  1.00  0.00    -0.385 C  
HETATM   22  C   UNL     1     -12.921   9.574  72.067  1.00  0.00    -0.514 C  
HETATM   23  C   UNL     1     -14.170   8.700  71.971  1.00  0.00    -0.524 C  
HETATM   24  C   UNL     1     -13.148  10.918  71.375  1.00  0.00    -0.457 C  
ENDBRANCH  19  20
ENDBRANCH  18  19
ENDBRANCH  17  18
ENDBRANCH  16  17
ENDBRANCH  13  16
ENDBRANCH  11  12
ENDBRANCH   9  11
ENDBRANCH   2   3
TORSDOF 8
ENDMDL
MODEL      161
REMARK 921   NORMALIZED FREE ENERGY PREDICTED BY IDOCK:   -4.47 KCAL/MOL
REMARK 922        TOTAL FREE ENERGY PREDICTED BY IDOCK:   -7.76 KCAL/MOL
REMARK 923 INTER-LIGAND FREE ENERGY PREDICTED BY IDOCK:   -6.91 KCAL/MOL
REMARK 924 INTRA-LIGAND FREE ENERGY PREDICTED BY IDOCK:   -0.85 KCAL/MOL
REMARK 927      BINDING AFFINITY PREDICTED BY RF-SCORE:    0.00 PKD
ROOT
HETATM    1  C   UNL     1      -9.709   4.534  70.419  1.00  0.00    -0.217 C  
HETATM    2  O   UNL     1     -10.690   5.207  71.199  1.00  0.00    -0.181 OA 
ENDROOT
BRANCH   2   3
HETATM    3  C   UNL     1     -10.905   6.530  70.904  1.00  0.00    -0.253 A  
HETATM    4  C   UNL     1     -11.947   7.132  71.617  1.00  0.00    -0.318 A  
HETATM    5  O   UNL     1     -12.680   6.406  72.515  1.00  0.00    -0.522 OA 
HETATM    6  C   UNL     1     -12.278   8.467  71.430  1.00  0.00    -0.343 A  
HETATM    7  C   UNL     1     -11.580   9.215  70.482  1.00  0.00    -0.238 A  
HETATM    8  H   UNL     1     -13.387   6.815  73.000  1.00  0.00     0.000 HD 
HETATM    9  C   UNL     1     -10.561   8.624  69.718  1.00  0.00    -0.224 A  
HETATM   10  C   UNL     1     -10.206   7.285  69.961  1.00  0.00    -0.206 A  
BRANCH   9  11
HETATM   11  C   UNL     1      -9.884   9.411  68.626  1.00  0.00    -0.163 C  
BRANCH  11  12
HETATM   12  N   UNL     1      -9.791  10.815  68.944  1.00  0.00    -0.194 N  
HETATM   13  C   UNL     1     -10.330  11.753  68.097  1.00  0.00    -0.200 C  
HETATM   14  H   UNL     1      -9.325  11.112  69.802  1.00  0.00     0.000 HD 
HETATM   15  O   UNL     1     -10.908  11.467  67.053  1.00  0.00    -0.253 OA 
BRANCH  13  16
HETATM   16  C   UNL     1     -10.130  13.183  68.557  1.00  0.00    -0.203 C  
BRANCH  16  17
HETATM   17  C   UNL     1     -10.474  14.199  67.468  1.00  0.00    -0.249 C  
BRANCH  17  18
HETATM   18  C   UNL     1     -11.719  15.022  67.820  1.00  0.00    -0.294 C  
BRANCH  18  19
HETATM   19  C   UNL     1     -11.456  15.961  68.996  1.00  0.00    -0.380 C  
BRANCH  19  20
HETATM   20  C   UNL     1     -12.403  15.681  70.129  1.00  0.00    -0.366 C  
HETATM   21  C   UNL     1     -12.130  14.850  71.145  1.00  0.00    -0.384 C  
HETATM   22  C   UNL     1     -13.084  14.567  72.279  1.00  0.00    -0.458 C  
HETATM   23  C   UNL     1     -12.480  15.032  73.603  1.00  0.00    -0.660 C  
HETATM   24  C   UNL     1     -13.409  13.074  72.329  1.00  0.00    -0.606 C  
ENDBRANCH  19  20
ENDBRANCH  18  19
ENDBRANCH  17  18
ENDBRANCH  16  17
ENDBRANCH  13  16
ENDBRANCH  11  12
ENDBRANCH   9  11
ENDBRANCH   2   3
TORSDOF 8
ENDMDL
MODEL      162
REMARK 921   NORMALIZED FREE ENERGY PREDICTED BY IDOCK:   -4.46 KCAL/MOL
REMARK 922        TOTAL FREE ENERGY PREDICTED BY IDOCK:   -7.76 KCAL/MOL
REMARK 923 INTER-LIGAND FREE ENERGY PREDICTED BY IDOCK:   -7.10 KCAL/MOL
REMARK 924 INTRA-LIGAND FREE ENERGY PREDICTED BY IDOCK:   -0.66 KCAL/MOL
REMARK 927      BINDING AFFINITY PREDICTED BY RF-SCORE:    0.00 PKD
ROOT
HETATM    1  C   UNL     1      -8.339  18.189  66.448  1.00  0.00    -0.245 C  
HETATM    2  O   UNL     1      -9.760  18.222  66.518  1.00  0.00    -0.315 OA 
ENDROOT
BRANCH   2   3
HETATM    3  C   UNL     1     -10.376  17.091  66.990  1.00  0.00    -0.304 A  
HETATM    4  C   UNL     1     -10.744  17.138  68.338  1.00  0.00    -0.347 A  
HETATM    5  O   UNL     1     -10.467  18.245  69.092  1.00  0.00    -0.445 OA 
HETATM    6  C   UNL     1     -11.382  16.070  68.956  1.00  0.00    -0.363 A  
HETATM    7  C   UNL     1     -11.627  14.909  68.223  1.00  0.00    -0.356 A  
HETATM    8  H   UNL     1     -10.717  18.278  70.008  1.00  0.00     0.000 HD 
HETATM    9  C   UNL     1     -11.227  14.816  66.880  1.00  0.00    -0.347 A  
HETATM   10  C   UNL     1     -10.631  15.929  66.260  1.00  0.00    -0.301 A  
BRANCH   9  11
HETATM   11  C   UNL     1     -11.404  13.522  66.128  1.00  0.00    -0.308 C  
BRANCH  11  12
HETATM   12  N   UNL     1     -11.746  12.427  67.003  1.00  0.00    -0.368 N  
HETATM   13  C   UNL     1     -10.877  11.376  67.167  1.00  0.00    -0.268 C  
HETATM   14  H   UNL     1     -12.636  12.434  67.501  1.00  0.00     0.000 HD 
HETATM   15  O   UNL     1      -9.789  11.306  66.604  1.00  0.00    -0.198 OA 
BRANCH  13  16
HETATM   16  C   UNL     1     -11.390  10.294  68.097  1.00  0.00    -0.233 C  
BRANCH  16  17
HETATM   17  C   UNL     1     -12.011  10.868  69.371  1.00  0.00    -0.393 C  
BRANCH  17  18
HETATM   18  C   UNL     1     -11.291  10.382  70.634  1.00  0.00    -0.411 C  
BRANCH  18  19
HETATM   19  C   UNL     1     -12.025   9.208  71.280  1.00  0.00    -0.394 C  
BRANCH  19  20
HETATM   20  C   UNL     1     -11.059   8.141  71.712  1.00  0.00    -0.329 C  
HETATM   21  C   UNL     1     -11.270   6.828  71.544  1.00  0.00    -0.300 C  
HETATM   22  C   UNL     1     -10.301   5.758  71.983  1.00  0.00    -0.254 C  
HETATM   23  C   UNL     1      -9.797   4.976  70.771  1.00  0.00    -0.279 C  
HETATM   24  C   UNL     1     -10.973   4.822  72.987  1.00  0.00    -0.346 C  
ENDBRANCH  19  20
ENDBRANCH  18  19
ENDBRANCH  17  18
ENDBRANCH  16  17
ENDBRANCH  13  16
ENDBRANCH  11  12
ENDBRANCH   9  11
ENDBRANCH   2   3
TORSDOF 8
ENDMDL
MODEL      163
REMARK 921   NORMALIZED FREE ENERGY PREDICTED BY IDOCK:   -4.43 KCAL/MOL
REMARK 922        TOTAL FREE ENERGY PREDICTED BY IDOCK:   -7.71 KCAL/MOL
REMARK 923 INTER-LIGAND FREE ENERGY PREDICTED BY IDOCK:   -7.25 KCAL/MOL
REMARK 924 INTRA-LIGAND FREE ENERGY PREDICTED BY IDOCK:   -0.46 KCAL/MOL
REMARK 927      BINDING AFFINITY PREDICTED BY RF-SCORE:    0.00 PKD
ROOT
HETATM    1  C   UNL     1      -8.744   7.718  70.023  1.00  0.00    -0.141 C  
HETATM    2  O   UNL     1      -9.346   7.481  71.290  1.00  0.00    -0.149 OA 
ENDROOT
BRANCH   2   3
HETATM    3  C   UNL     1     -10.636   7.919  71.447  1.00  0.00    -0.211 A  
HETATM    4  C   UNL     1     -11.598   6.907  71.528  1.00  0.00    -0.290 A  
HETATM    5  O   UNL     1     -11.229   5.594  71.432  1.00  0.00    -0.213 OA 
HETATM    6  C   UNL     1     -12.946   7.196  71.693  1.00  0.00    -0.415 A  
HETATM    7  C   UNL     1     -13.355   8.529  71.741  1.00  0.00    -0.396 A  
HETATM    8  H   UNL     1     -11.882   4.906  71.487  1.00  0.00     0.000 HD 
HETATM    9  C   UNL     1     -12.417   9.567  71.615  1.00  0.00    -0.476 A  
HETATM   10  C   UNL     1     -11.051   9.251  71.502  1.00  0.00    -0.443 A  
BRANCH   9  11
HETATM   11  C   UNL     1     -12.879  11.000  71.564  1.00  0.00    -0.450 C  
BRANCH  11  12
HETATM   12  N   UNL     1     -12.259  11.734  70.489  1.00  0.00    -0.365 N  
HETATM   13  C   UNL     1     -12.245  13.108  70.506  1.00  0.00    -0.328 C  
HETATM   14  H   UNL     1     -11.828  11.231  69.712  1.00  0.00     0.000 HD 
HETATM   15  O   UNL     1     -12.738  13.775  71.409  1.00  0.00    -0.345 OA 
BRANCH  13  16
HETATM   16  C   UNL     1     -11.579  13.731  69.296  1.00  0.00    -0.362 C  
BRANCH  16  17
HETATM   17  C   UNL     1     -10.618  14.858  69.675  1.00  0.00    -0.213 C  
BRANCH  17  18
HETATM   18  C   UNL     1     -11.260  16.241  69.519  1.00  0.00    -0.308 C  
BRANCH  18  19
HETATM   19  C   UNL     1     -10.859  16.899  68.200  1.00  0.00    -0.351 C  
BRANCH  19  20
HETATM   20  C   UNL     1     -10.127  18.188  68.443  1.00  0.00    -0.401 C  
HETATM   21  C   UNL     1      -8.860  18.412  68.067  1.00  0.00    -0.302 C  
HETATM   22  C   UNL     1      -8.124  19.705  68.316  1.00  0.00    -0.357 C  
HETATM   23  C   UNL     1      -7.747  20.361  66.988  1.00  0.00    -0.362 C  
HETATM   24  C   UNL     1      -6.878  19.445  69.162  1.00  0.00    -0.374 C  
ENDBRANCH  19  20
ENDBRANCH  18  19
ENDBRANCH  17  18
ENDBRANCH  16  17
ENDBRANCH  13  16
ENDBRANCH  11  12
ENDBRANCH   9  11
ENDBRANCH   2   3
TORSDOF 8
ENDMDL
MODEL      164
REMARK 921   NORMALIZED FREE ENERGY PREDICTED BY IDOCK:   -4.42 KCAL/MOL
REMARK 922        TOTAL FREE ENERGY PREDICTED BY IDOCK:   -7.70 KCAL/MOL
REMARK 923 INTER-LIGAND FREE ENERGY PREDICTED BY IDOCK:   -7.10 KCAL/MOL
REMARK 924 INTRA-LIGAND FREE ENERGY PREDICTED BY IDOCK:   -0.60 KCAL/MOL
REMARK 927      BINDING AFFINITY PREDICTED BY RF-SCORE:    0.00 PKD
ROOT
HETATM    1  C   UNL     1     -10.565  16.502  67.374  1.00  0.00    -0.300 C  
HETATM    2  O   UNL     1      -9.835  15.361  66.939  1.00  0.00    -0.236 OA 
ENDROOT
BRANCH   2   3
HETATM    3  C   UNL     1     -10.414  14.139  67.170  1.00  0.00    -0.270 A  
HETATM    4  C   UNL     1     -10.553  13.328  66.038  1.00  0.00    -0.286 A  
HETATM    5  O   UNL     1     -10.145  13.777  64.812  1.00  0.00    -0.580 OA 
HETATM    6  C   UNL     1     -11.116  12.062  66.116  1.00  0.00    -0.367 A  
HETATM    7  C   UNL     1     -11.588  11.601  67.345  1.00  0.00    -0.330 A  
HETATM    8  H   UNL     1     -10.239  13.227  64.044  1.00  0.00     0.000 HD 
HETATM    9  C   UNL     1     -11.505  12.412  68.489  1.00  0.00    -0.350 A  
HETATM   10  C   UNL     1     -10.882  13.670  68.398  1.00  0.00    -0.274 A  
BRANCH   9  11
HETATM   11  C   UNL     1     -12.110  11.948  69.789  1.00  0.00    -0.252 C  
BRANCH  11  12
HETATM   12  N   UNL     1     -11.398  10.826  70.349  1.00  0.00    -0.410 N  
HETATM   13  C   UNL     1     -11.923  10.136  71.416  1.00  0.00    -0.358 C  
HETATM   14  H   UNL     1     -10.502  10.542  69.952  1.00  0.00     0.000 HD 
HETATM   15  O   UNL     1     -12.996  10.418  71.938  1.00  0.00    -0.438 OA 
BRANCH  13  16
HETATM   16  C   UNL     1     -11.046   9.001  71.906  1.00  0.00    -0.433 C  
BRANCH  16  17
HETATM   17  C   UNL     1     -11.849   7.740  72.223  1.00  0.00    -0.378 C  
BRANCH  17  18
HETATM   18  C   UNL     1     -12.465   7.116  70.965  1.00  0.00    -0.359 C  
BRANCH  18  19
HETATM   19  C   UNL     1     -11.420   6.355  70.149  1.00  0.00    -0.484 C  
BRANCH  19  20
HETATM   20  C   UNL     1     -10.657   5.394  71.016  1.00  0.00    -0.275 C  
HETATM   21  C   UNL     1      -9.831   4.452  70.540  1.00  0.00    -0.285 C  
HETATM   22  C   UNL     1      -9.069   3.484  71.412  1.00  0.00    -0.179 C  
HETATM   23  C   UNL     1      -7.565   3.695  71.243  1.00  0.00    -0.048 C  
HETATM   24  C   UNL     1      -9.455   2.047  71.060  1.00  0.00    -0.209 C  
ENDBRANCH  19  20
ENDBRANCH  18  19
ENDBRANCH  17  18
ENDBRANCH  16  17
ENDBRANCH  13  16
ENDBRANCH  11  12
ENDBRANCH   9  11
ENDBRANCH   2   3
TORSDOF 8
ENDMDL
MODEL      165
REMARK 921   NORMALIZED FREE ENERGY PREDICTED BY IDOCK:   -4.42 KCAL/MOL
REMARK 922        TOTAL FREE ENERGY PREDICTED BY IDOCK:   -7.70 KCAL/MOL
REMARK 923 INTER-LIGAND FREE ENERGY PREDICTED BY IDOCK:   -6.93 KCAL/MOL
REMARK 924 INTRA-LIGAND FREE ENERGY PREDICTED BY IDOCK:   -0.77 KCAL/MOL
REMARK 927      BINDING AFFINITY PREDICTED BY RF-SCORE:    0.00 PKD
ROOT
HETATM    1  C   UNL     1     -13.533   7.229  71.551  1.00  0.00    -0.363 C  
HETATM    2  O   UNL     1     -12.380   6.462  71.875  1.00  0.00    -0.345 OA 
ENDROOT
BRANCH   2   3
HETATM    3  C   UNL     1     -11.166   7.017  71.555  1.00  0.00    -0.249 A  
HETATM    4  C   UNL     1     -10.534   7.699  72.600  1.00  0.00    -0.287 A  
HETATM    5  O   UNL     1     -11.135   7.795  73.825  1.00  0.00    -0.404 OA 
HETATM    6  C   UNL     1      -9.298   8.307  72.429  1.00  0.00    -0.338 A  
HETATM    7  C   UNL     1      -8.689   8.269  71.175  1.00  0.00    -0.176 A  
HETATM    8  H   UNL     1     -10.706   8.258  74.535  1.00  0.00     0.000 HD 
HETATM    9  C   UNL     1      -9.321   7.632  70.095  1.00  0.00    -0.157 A  
HETATM   10  C   UNL     1     -10.549   6.976  70.304  1.00  0.00    -0.247 A  
BRANCH   9  11
HETATM   11  C   UNL     1      -8.705   7.684  68.721  1.00  0.00    -0.128 C  
BRANCH  11  12
HETATM   12  N   UNL     1      -9.151   8.831  67.969  1.00  0.00    -0.140 N  
HETATM   13  C   UNL     1     -10.149   8.699  67.033  1.00  0.00    -0.272 C  
HETATM   14  H   UNL     1      -8.726   9.744  68.133  1.00  0.00     0.000 HD 
HETATM   15  O   UNL     1     -10.707   7.634  66.788  1.00  0.00    -0.318 OA 
BRANCH  13  16
HETATM   16  C   UNL     1     -10.487   9.987  66.310  1.00  0.00    -0.172 C  
BRANCH  16  17
HETATM   17  C   UNL     1     -10.380  11.211  67.220  1.00  0.00    -0.243 C  
BRANCH  17  18
HETATM   18  C   UNL     1     -11.741  11.630  67.787  1.00  0.00    -0.315 C  
BRANCH  18  19
HETATM   19  C   UNL     1     -11.716  13.071  68.295  1.00  0.00    -0.390 C  
BRANCH  19  20
HETATM   20  C   UNL     1     -12.001  13.126  69.769  1.00  0.00    -0.382 C  
HETATM   21  C   UNL     1     -12.522  14.193  70.391  1.00  0.00    -0.424 C  
HETATM   22  C   UNL     1     -12.804  14.248  71.872  1.00  0.00    -0.429 C  
HETATM   23  C   UNL     1     -14.301  14.427  72.117  1.00  0.00    -0.604 C  
HETATM   24  C   UNL     1     -12.012  15.388  72.514  1.00  0.00    -0.549 C  
ENDBRANCH  19  20
ENDBRANCH  18  19
ENDBRANCH  17  18
ENDBRANCH  16  17
ENDBRANCH  13  16
ENDBRANCH  11  12
ENDBRANCH   9  11
ENDBRANCH   2   3
TORSDOF 8
ENDMDL
MODEL      166
REMARK 921   NORMALIZED FREE ENERGY PREDICTED BY IDOCK:   -4.41 KCAL/MOL
REMARK 922        TOTAL FREE ENERGY PREDICTED BY IDOCK:   -7.69 KCAL/MOL
REMARK 923 INTER-LIGAND FREE ENERGY PREDICTED BY IDOCK:   -6.39 KCAL/MOL
REMARK 924 INTRA-LIGAND FREE ENERGY PREDICTED BY IDOCK:   -1.30 KCAL/MOL
REMARK 927      BINDING AFFINITY PREDICTED BY RF-SCORE:    0.00 PKD
ROOT
HETATM    1  C   UNL     1     -12.165  14.554  66.854  1.00  0.00    -0.189 C  
HETATM    2  O   UNL     1     -12.713  13.787  65.789  1.00  0.00    -0.490 OA 
ENDROOT
BRANCH   2   3
HETATM    3  C   UNL     1     -11.921  12.787  65.284  1.00  0.00    -0.429 A  
HETATM    4  C   UNL     1     -11.765  12.803  63.893  1.00  0.00    -0.459 A  
HETATM    5  O   UNL     1     -12.394  13.754  63.138  1.00  0.00    -1.099 OA 
HETATM    6  C   UNL     1     -10.988  11.858  63.239  1.00  0.00    -0.399 A  
HETATM    7  C   UNL     1     -10.379  10.846  63.981  1.00  0.00    -0.417 A  
HETATM    8  H   UNL     1     -12.288  13.766  62.194  1.00  0.00     0.000 HD 
HETATM    9  C   UNL     1     -10.556  10.777  65.372  1.00  0.00    -0.224 A  
HETATM   10  C   UNL     1     -11.304  11.776  66.021  1.00  0.00    -0.335 A  
BRANCH   9  11
HETATM   11  C   UNL     1      -9.980   9.623  66.151  1.00  0.00    -0.276 C  
BRANCH  11  12
HETATM   12  N   UNL     1      -8.959  10.049  67.077  1.00  0.00    -0.138 N  
HETATM   13  C   UNL     1      -9.222  10.090  68.425  1.00  0.00    -0.131 C  
HETATM   14  H   UNL     1      -8.038  10.319  66.730  1.00  0.00     0.000 HD 
HETATM   15  O   UNL     1     -10.303   9.773  68.911  1.00  0.00    -0.193 OA 
BRANCH  13  16
HETATM   16  C   UNL     1      -8.059  10.581  69.263  1.00  0.00    -0.152 C  
BRANCH  16  17
HETATM   17  C   UNL     1      -7.149  11.539  68.493  1.00  0.00    -0.087 C  
BRANCH  17  18
HETATM   18  C   UNL     1      -7.702  12.969  68.474  1.00  0.00    -0.111 C  
BRANCH  18  19
HETATM   19  C   UNL     1      -8.018  13.428  67.051  1.00  0.00     0.023 C  
BRANCH  19  20
HETATM   20  C   UNL     1      -8.483  14.856  67.038  1.00  0.00    -0.260 C  
HETATM   21  C   UNL     1      -8.648  15.599  68.141  1.00  0.00    -0.159 C  
HETATM   22  C   UNL     1      -9.120  17.033  68.126  1.00  0.00    -0.237 C  
HETATM   23  C   UNL     1      -8.035  17.950  68.690  1.00  0.00    -0.285 C  
HETATM   24  C   UNL     1     -10.412  17.167  68.932  1.00  0.00    -0.346 C  
ENDBRANCH  19  20
ENDBRANCH  18  19
ENDBRANCH  17  18
ENDBRANCH  16  17
ENDBRANCH  13  16
ENDBRANCH  11  12
ENDBRANCH   9  11
ENDBRANCH   2   3
TORSDOF 8
ENDMDL
MODEL      167
REMARK 921   NORMALIZED FREE ENERGY PREDICTED BY IDOCK:   -4.41 KCAL/MOL
REMARK 922        TOTAL FREE ENERGY PREDICTED BY IDOCK:   -7.68 KCAL/MOL
REMARK 923 INTER-LIGAND FREE ENERGY PREDICTED BY IDOCK:   -6.93 KCAL/MOL
REMARK 924 INTRA-LIGAND FREE ENERGY PREDICTED BY IDOCK:   -0.76 KCAL/MOL
REMARK 927      BINDING AFFINITY PREDICTED BY RF-SCORE:    0.00 PKD
ROOT
HETATM    1  C   UNL     1     -10.860  15.534  70.741  1.00  0.00    -0.261 C  
HETATM    2  O   UNL     1     -10.991  16.709  69.950  1.00  0.00    -0.347 OA 
ENDROOT
BRANCH   2   3
HETATM    3  C   UNL     1     -10.701  16.584  68.615  1.00  0.00    -0.334 A  
HETATM    4  C   UNL     1     -10.581  17.792  67.920  1.00  0.00    -0.382 A  
HETATM    5  O   UNL     1     -10.770  18.982  68.567  1.00  0.00    -0.351 OA 
HETATM    6  C   UNL     1     -10.285  17.825  66.564  1.00  0.00    -0.358 A  
HETATM    7  C   UNL     1     -10.140  16.624  65.870  1.00  0.00    -0.341 A  
HETATM    8  H   UNL     1     -10.689  19.803  68.096  1.00  0.00     0.000 HD 
HETATM    9  C   UNL     1     -10.301  15.396  66.531  1.00  0.00    -0.293 A  
HETATM   10  C   UNL     1     -10.548  15.385  67.916  1.00  0.00    -0.267 A  
BRANCH   9  11
HETATM   11  C   UNL     1     -10.244  14.106  65.753  1.00  0.00    -0.332 C  
BRANCH  11  12
HETATM   12  N   UNL     1     -10.374  12.951  66.606  1.00  0.00    -0.248 N  
HETATM   13  C   UNL     1     -11.023  11.827  66.153  1.00  0.00    -0.307 C  
HETATM   14  H   UNL     1      -9.984  12.968  67.548  1.00  0.00     0.000 HD 
HETATM   15  O   UNL     1     -11.511  11.736  65.032  1.00  0.00    -0.278 OA 
BRANCH  13  16
HETATM   16  C   UNL     1     -11.099  10.709  67.174  1.00  0.00    -0.267 C  
BRANCH  16  17
HETATM   17  C   UNL     1     -10.078   9.603  66.903  1.00  0.00    -0.290 C  
BRANCH  17  18
HETATM   18  C   UNL     1      -9.328   9.187  68.174  1.00  0.00    -0.147 C  
BRANCH  18  19
HETATM   19  C   UNL     1      -9.486  10.227  69.283  1.00  0.00    -0.230 C  
BRANCH  19  20
HETATM   20  C   UNL     1     -10.223   9.650  70.458  1.00  0.00    -0.351 C  
HETATM   21  C   UNL     1     -11.507   9.267  70.422  1.00  0.00    -0.255 C  
HETATM   22  C   UNL     1     -12.247   8.692  71.605  1.00  0.00    -0.388 C  
HETATM   23  C   UNL     1     -12.686   7.259  71.306  1.00  0.00    -0.400 C  
HETATM   24  C   UNL     1     -13.455   9.567  71.942  1.00  0.00    -0.502 C  
ENDBRANCH  19  20
ENDBRANCH  18  19
ENDBRANCH  17  18
ENDBRANCH  16  17
ENDBRANCH  13  16
ENDBRANCH  11  12
ENDBRANCH   9  11
ENDBRANCH   2   3
TORSDOF 8
ENDMDL
MODEL      168
REMARK 921   NORMALIZED FREE ENERGY PREDICTED BY IDOCK:   -4.41 KCAL/MOL
REMARK 922        TOTAL FREE ENERGY PREDICTED BY IDOCK:   -7.68 KCAL/MOL
REMARK 923 INTER-LIGAND FREE ENERGY PREDICTED BY IDOCK:   -7.08 KCAL/MOL
REMARK 924 INTRA-LIGAND FREE ENERGY PREDICTED BY IDOCK:   -0.60 KCAL/MOL
REMARK 927      BINDING AFFINITY PREDICTED BY RF-SCORE:    0.00 PKD
ROOT
HETATM    1  C   UNL     1     -10.765   6.112  69.028  1.00  0.00    -0.312 C  
HETATM    2  O   UNL     1     -11.084   7.463  69.338  1.00  0.00    -0.158 OA 
ENDROOT
BRANCH   2   3
HETATM    3  C   UNL     1     -10.390   8.428  68.653  1.00  0.00    -0.197 A  
HETATM    4  C   UNL     1      -9.708   9.348  69.457  1.00  0.00    -0.183 A  
HETATM    5  O   UNL     1      -9.780   9.260  70.820  1.00  0.00    -0.246 OA 
HETATM    6  C   UNL     1      -8.958  10.379  68.907  1.00  0.00    -0.170 A  
HETATM    7  C   UNL     1      -8.913  10.522  67.520  1.00  0.00    -0.137 A  
HETATM    8  H   UNL     1      -9.317   9.885  71.366  1.00  0.00     0.000 HD 
HETATM    9  C   UNL     1      -9.625   9.642  66.689  1.00  0.00    -0.241 A  
HETATM   10  C   UNL     1     -10.335   8.573  67.266  1.00  0.00    -0.372 A  
BRANCH   9  11
HETATM   11  C   UNL     1      -9.653   9.866  65.199  1.00  0.00    -0.300 C  
BRANCH  11  12
HETATM   12  N   UNL     1     -10.696  10.782  64.808  1.00  0.00    -0.202 N  
HETATM   13  C   UNL     1     -10.622  11.440  63.604  1.00  0.00    -0.412 C  
HETATM   14  H   UNL     1     -11.492  10.941  65.427  1.00  0.00     0.000 HD 
HETATM   15  O   UNL     1      -9.699  11.292  62.810  1.00  0.00    -0.322 OA 
BRANCH  13  16
HETATM   16  C   UNL     1     -11.779  12.385  63.348  1.00  0.00    -0.554 C  
BRANCH  16  17
HETATM   17  C   UNL     1     -12.378  12.936  64.643  1.00  0.00    -0.501 C  
BRANCH  17  18
HETATM   18  C   UNL     1     -12.229  14.459  64.745  1.00  0.00    -0.458 C  
BRANCH  18  19
HETATM   19  C   UNL     1     -11.003  14.847  65.571  1.00  0.00    -0.355 C  
BRANCH  19  20
HETATM   20  C   UNL     1     -10.709  16.314  65.441  1.00  0.00    -0.342 C  
HETATM   21  C   UNL     1     -10.214  17.069  66.431  1.00  0.00    -0.330 C  
HETATM   22  C   UNL     1      -9.924  18.544  66.300  1.00  0.00    -0.384 C  
HETATM   23  C   UNL     1      -8.430  18.806  66.487  1.00  0.00    -0.310 C  
HETATM   24  C   UNL     1     -10.742  19.332  67.323  1.00  0.00    -0.594 C  
ENDBRANCH  19  20
ENDBRANCH  18  19
ENDBRANCH  17  18
ENDBRANCH  16  17
ENDBRANCH  13  16
ENDBRANCH  11  12
ENDBRANCH   9  11
ENDBRANCH   2   3
TORSDOF 8
ENDMDL
MODEL      169
REMARK 921   NORMALIZED FREE ENERGY PREDICTED BY IDOCK:   -4.39 KCAL/MOL
REMARK 922        TOTAL FREE ENERGY PREDICTED BY IDOCK:   -7.66 KCAL/MOL
REMARK 923 INTER-LIGAND FREE ENERGY PREDICTED BY IDOCK:   -6.23 KCAL/MOL
REMARK 924 INTRA-LIGAND FREE ENERGY PREDICTED BY IDOCK:   -1.43 KCAL/MOL
REMARK 927      BINDING AFFINITY PREDICTED BY RF-SCORE:    0.00 PKD
ROOT
HETATM    1  C   UNL     1     -11.884  15.551  69.773  1.00  0.00    -0.359 C  
HETATM    2  O   UNL     1     -11.635  16.165  68.514  1.00  0.00    -0.377 OA 
ENDROOT
BRANCH   2   3
HETATM    3  C   UNL     1     -10.372  16.013  67.999  1.00  0.00    -0.266 A  
HETATM    4  C   UNL     1      -9.918  17.085  67.222  1.00  0.00    -0.275 A  
HETATM    5  O   UNL     1     -10.722  18.170  67.006  1.00  0.00    -0.353 OA 
HETATM    6  C   UNL     1      -8.659  17.077  66.639  1.00  0.00    -0.285 A  
HETATM    7  C   UNL     1      -7.841  15.959  66.800  1.00  0.00    -0.273 A  
HETATM    8  H   UNL     1     -10.414  18.898  66.479  1.00  0.00     0.000 HD 
HETATM    9  C   UNL     1      -8.288  14.849  67.535  1.00  0.00    -0.195 A  
HETATM   10  C   UNL     1      -9.547  14.900  68.162  1.00  0.00    -0.210 A  
BRANCH   9  11
HETATM   11  C   UNL     1      -7.440  13.606  67.617  1.00  0.00    -0.183 C  
BRANCH  11  12
HETATM   12  N   UNL     1      -8.220  12.437  67.942  1.00  0.00    -0.152 N  
HETATM   13  C   UNL     1      -7.619  11.344  68.519  1.00  0.00    -0.129 C  
HETATM   14  H   UNL     1      -9.220  12.422  67.744  1.00  0.00     0.000 HD 
HETATM   15  O   UNL     1      -6.423  11.296  68.789  1.00  0.00    -0.051 OA 
BRANCH  13  16
HETATM   16  C   UNL     1      -8.565  10.188  68.777  1.00  0.00    -0.133 C  
BRANCH  16  17
HETATM   17  C   UNL     1     -10.032  10.591  68.624  1.00  0.00    -0.188 C  
BRANCH  17  18
HETATM   18  C   UNL     1     -10.697   9.905  67.425  1.00  0.00    -0.323 C  
BRANCH  18  19
HETATM   19  C   UNL     1      -9.692   9.637  66.306  1.00  0.00    -0.303 C  
BRANCH  19  20
HETATM   20  C   UNL     1      -9.778  10.695  65.242  1.00  0.00    -0.315 C  
HETATM   21  C   UNL     1     -10.675  11.691  65.248  1.00  0.00    -0.346 C  
HETATM   22  C   UNL     1     -10.763  12.750  64.177  1.00  0.00    -0.441 C  
HETATM   23  C   UNL     1     -10.482  14.128  64.775  1.00  0.00    -0.432 C  
HETATM   24  C   UNL     1     -12.144  12.718  63.522  1.00  0.00    -0.642 C  
ENDBRANCH  19  20
ENDBRANCH  18  19
ENDBRANCH  17  18
ENDBRANCH  16  17
ENDBRANCH  13  16
ENDBRANCH  11  12
ENDBRANCH   9  11
ENDBRANCH   2   3
TORSDOF 8
ENDMDL
MODEL      170
REMARK 921   NORMALIZED FREE ENERGY PREDICTED BY IDOCK:   -4.39 KCAL/MOL
REMARK 922        TOTAL FREE ENERGY PREDICTED BY IDOCK:   -7.65 KCAL/MOL
REMARK 923 INTER-LIGAND FREE ENERGY PREDICTED BY IDOCK:   -6.97 KCAL/MOL
REMARK 924 INTRA-LIGAND FREE ENERGY PREDICTED BY IDOCK:   -0.69 KCAL/MOL
REMARK 927      BINDING AFFINITY PREDICTED BY RF-SCORE:    0.00 PKD
ROOT
HETATM    1  C   UNL     1     -10.963  12.447  65.881  1.00  0.00    -0.288 C  
HETATM    2  O   UNL     1      -9.799  12.510  66.697  1.00  0.00    -0.229 OA 
ENDROOT
BRANCH   2   3
HETATM    3  C   UNL     1      -9.748  13.529  67.613  1.00  0.00    -0.229 A  
HETATM    4  C   UNL     1      -8.507  13.704  68.234  1.00  0.00    -0.170 A  
HETATM    5  O   UNL     1      -7.460  12.878  67.929  1.00  0.00    -0.103 OA 
HETATM    6  C   UNL     1      -8.301  14.699  69.180  1.00  0.00    -0.055 A  
HETATM    7  C   UNL     1      -9.367  15.519  69.547  1.00  0.00    -0.276 A  
HETATM    8  H   UNL     1      -6.617  12.996  68.350  1.00  0.00     0.000 HD 
HETATM    9  C   UNL     1     -10.636  15.337  68.975  1.00  0.00    -0.245 A  
HETATM   10  C   UNL     1     -10.809  14.358  67.980  1.00  0.00    -0.250 A  
BRANCH   9  11
HETATM   11  C   UNL     1     -11.805  16.160  69.453  1.00  0.00    -0.151 C  
BRANCH  11  12
HETATM   12  N   UNL     1     -12.763  15.369  70.185  1.00  0.00    -0.624 N  
HETATM   13  C   UNL     1     -12.641  15.220  71.546  1.00  0.00    -0.373 C  
HETATM   14  H   UNL     1     -13.534  14.919  69.692  1.00  0.00     0.000 HD 
HETATM   15  O   UNL     1     -11.743  15.736  72.203  1.00  0.00    -0.407 OA 
BRANCH  13  16
HETATM   16  C   UNL     1     -13.709  14.341  72.166  1.00  0.00    -0.569 C  
BRANCH  16  17
HETATM   17  C   UNL     1     -13.416  12.851  71.982  1.00  0.00    -0.568 C  
BRANCH  17  18
HETATM   18  C   UNL     1     -12.192  12.610  71.091  1.00  0.00    -0.094 C  
BRANCH  18  19
HETATM   19  C   UNL     1     -12.396  11.402  70.176  1.00  0.00    -0.344 C  
BRANCH  19  20
HETATM   20  C   UNL     1     -12.488  10.133  70.974  1.00  0.00    -0.474 C  
HETATM   21  C   UNL     1     -11.539   9.186  70.986  1.00  0.00    -0.370 C  
HETATM   22  C   UNL     1     -11.636   7.909  71.785  1.00  0.00    -0.321 C  
HETATM   23  C   UNL     1     -10.520   7.854  72.827  1.00  0.00    -0.412 C  
HETATM   24  C   UNL     1     -11.562   6.701  70.851  1.00  0.00    -0.416 C  
ENDBRANCH  19  20
ENDBRANCH  18  19
ENDBRANCH  17  18
ENDBRANCH  16  17
ENDBRANCH  13  16
ENDBRANCH  11  12
ENDBRANCH   9  11
ENDBRANCH   2   3
TORSDOF 8
ENDMDL
MODEL      171
REMARK 921   NORMALIZED FREE ENERGY PREDICTED BY IDOCK:   -4.37 KCAL/MOL
REMARK 922        TOTAL FREE ENERGY PREDICTED BY IDOCK:   -7.62 KCAL/MOL
REMARK 923 INTER-LIGAND FREE ENERGY PREDICTED BY IDOCK:   -6.89 KCAL/MOL
REMARK 924 INTRA-LIGAND FREE ENERGY PREDICTED BY IDOCK:   -0.72 KCAL/MOL
REMARK 927      BINDING AFFINITY PREDICTED BY RF-SCORE:    0.00 PKD
ROOT
HETATM    1  C   UNL     1      -8.319   7.270  67.924  1.00  0.00    -0.119 C  
HETATM    2  O   UNL     1      -9.442   6.412  68.088  1.00  0.00    -0.117 OA 
ENDROOT
BRANCH   2   3
HETATM    3  C   UNL     1      -9.860   6.189  69.375  1.00  0.00    -0.157 A  
HETATM    4  C   UNL     1      -9.639   4.892  69.852  1.00  0.00    -0.182 A  
HETATM    5  O   UNL     1      -9.065   3.949  69.047  1.00  0.00    -0.112 OA 
HETATM    6  C   UNL     1     -10.005   4.519  71.139  1.00  0.00    -0.257 A  
HETATM    7  C   UNL     1     -10.641   5.449  71.962  1.00  0.00    -0.284 A  
HETATM    8  H   UNL     1      -8.914   3.068  69.370  1.00  0.00     0.000 HD 
HETATM    9  C   UNL     1     -10.918   6.743  71.494  1.00  0.00    -0.274 A  
HETATM   10  C   UNL     1     -10.491   7.116  70.206  1.00  0.00    -0.232 A  
BRANCH   9  11
HETATM   11  C   UNL     1     -11.696   7.706  72.353  1.00  0.00    -0.317 C  
BRANCH  11  12
HETATM   12  N   UNL     1     -11.601   9.062  71.870  1.00  0.00    -0.365 N  
HETATM   13  C   UNL     1     -12.735   9.745  71.500  1.00  0.00    -0.406 C  
HETATM   14  H   UNL     1     -10.690   9.516  71.805  1.00  0.00     0.000 HD 
HETATM   15  O   UNL     1     -13.862   9.263  71.558  1.00  0.00    -0.360 OA 
BRANCH  13  16
HETATM   16  C   UNL     1     -12.469  11.148  70.992  1.00  0.00    -0.506 C  
BRANCH  16  17
HETATM   17  C   UNL     1     -11.993  11.161  69.539  1.00  0.00    -0.425 C  
BRANCH  17  18
HETATM   18  C   UNL     1     -11.175  12.415  69.211  1.00  0.00    -0.264 C  
BRANCH  18  19
HETATM   19  C   UNL     1     -11.707  13.119  67.963  1.00  0.00    -0.394 C  
BRANCH  19  20
HETATM   20  C   UNL     1     -11.667  12.204  66.772  1.00  0.00    -0.377 C  
HETATM   21  C   UNL     1     -11.489  12.624  65.512  1.00  0.00    -0.375 C  
HETATM   22  C   UNL     1     -11.454  11.704  64.316  1.00  0.00    -0.332 C  
HETATM   23  C   UNL     1     -10.085  11.771  63.640  1.00  0.00    -0.445 C  
HETATM   24  C   UNL     1     -12.561  12.083  63.331  1.00  0.00    -0.592 C  
ENDBRANCH  19  20
ENDBRANCH  18  19
ENDBRANCH  17  18
ENDBRANCH  16  17
ENDBRANCH  13  16
ENDBRANCH  11  12
ENDBRANCH   9  11
ENDBRANCH   2   3
TORSDOF 8
ENDMDL
MODEL      172
REMARK 921   NORMALIZED FREE ENERGY PREDICTED BY IDOCK:   -4.36 KCAL/MOL
REMARK 922        TOTAL FREE ENERGY PREDICTED BY IDOCK:   -7.61 KCAL/MOL
REMARK 923 INTER-LIGAND FREE ENERGY PREDICTED BY IDOCK:   -6.77 KCAL/MOL
REMARK 924 INTRA-LIGAND FREE ENERGY PREDICTED BY IDOCK:   -0.84 KCAL/MOL
REMARK 927      BINDING AFFINITY PREDICTED BY RF-SCORE:    0.00 PKD
ROOT
HETATM    1  C   UNL     1     -10.873   5.510  71.061  1.00  0.00    -0.173 C  
HETATM    2  O   UNL     1     -10.143   5.577  69.842  1.00  0.00    -0.193 OA 
ENDROOT
BRANCH   2   3
HETATM    3  C   UNL     1     -10.159   6.781  69.184  1.00  0.00    -0.171 A  
HETATM    4  C   UNL     1     -10.501   6.709  67.829  1.00  0.00    -0.225 A  
HETATM    5  O   UNL     1     -10.770   5.501  67.248  1.00  0.00    -0.241 OA 
HETATM    6  C   UNL     1     -10.565   7.846  67.035  1.00  0.00    -0.381 A  
HETATM    7  C   UNL     1     -10.245   9.084  67.591  1.00  0.00    -0.300 A  
HETATM    8  H   UNL     1     -11.002   5.452  66.328  1.00  0.00     0.000 HD 
HETATM    9  C   UNL     1      -9.852   9.180  68.936  1.00  0.00    -0.179 A  
HETATM   10  C   UNL     1      -9.846   8.024  69.737  1.00  0.00    -0.183 A  
BRANCH   9  11
HETATM   11  C   UNL     1      -9.409  10.506  69.500  1.00  0.00    -0.064 C  
BRANCH  11  12
HETATM   12  N   UNL     1      -9.998  11.619  68.798  1.00  0.00    -0.345 N  
HETATM   13  C   UNL     1     -11.208  12.130  69.203  1.00  0.00    -0.244 C  
HETATM   14  H   UNL     1      -9.515  12.029  67.998  1.00  0.00     0.000 HD 
HETATM   15  O   UNL     1     -11.840  11.690  70.158  1.00  0.00    -0.330 OA 
BRANCH  13  16
HETATM   16  C   UNL     1     -11.705  13.280  68.350  1.00  0.00    -0.389 C  
BRANCH  16  17
HETATM   17  C   UNL     1     -10.608  14.303  68.055  1.00  0.00    -0.238 C  
BRANCH  17  18
HETATM   18  C   UNL     1     -11.086  15.743  68.278  1.00  0.00    -0.342 C  
BRANCH  18  19
HETATM   19  C   UNL     1     -10.475  16.345  69.543  1.00  0.00    -0.301 C  
BRANCH  19  20
HETATM   20  C   UNL     1     -11.494  16.433  70.643  1.00  0.00    -0.179 C  
HETATM   21  C   UNL     1     -11.811  15.412  71.452  1.00  0.00    -0.443 C  
HETATM   22  C   UNL     1     -12.838  15.500  72.554  1.00  0.00    -0.514 C  
HETATM   23  C   UNL     1     -12.175  15.269  73.911  1.00  0.00    -0.735 C  
HETATM   24  C   UNL     1     -13.950  14.478  72.316  1.00  0.00    -0.600 C  
ENDBRANCH  19  20
ENDBRANCH  18  19
ENDBRANCH  17  18
ENDBRANCH  16  17
ENDBRANCH  13  16
ENDBRANCH  11  12
ENDBRANCH   9  11
ENDBRANCH   2   3
TORSDOF 8
ENDMDL
MODEL      173
REMARK 921   NORMALIZED FREE ENERGY PREDICTED BY IDOCK:   -4.36 KCAL/MOL
REMARK 922        TOTAL FREE ENERGY PREDICTED BY IDOCK:   -7.60 KCAL/MOL
REMARK 923 INTER-LIGAND FREE ENERGY PREDICTED BY IDOCK:   -7.11 KCAL/MOL
REMARK 924 INTRA-LIGAND FREE ENERGY PREDICTED BY IDOCK:   -0.49 KCAL/MOL
REMARK 927      BINDING AFFINITY PREDICTED BY RF-SCORE:    0.00 PKD
ROOT
HETATM    1  C   UNL     1     -12.964  15.365  72.079  1.00  0.00    -0.401 C  
HETATM    2  O   UNL     1     -11.921  15.656  71.157  1.00  0.00    -0.336 OA 
ENDROOT
BRANCH   2   3
HETATM    3  C   UNL     1     -11.800  14.810  70.083  1.00  0.00    -0.307 A  
HETATM    4  C   UNL     1     -11.668  15.444  68.843  1.00  0.00    -0.359 A  
HETATM    5  O   UNL     1     -11.687  16.809  68.760  1.00  0.00    -0.055 OA 
HETATM    6  C   UNL     1     -11.531  14.720  67.667  1.00  0.00    -0.363 A  
HETATM    7  C   UNL     1     -11.562  13.327  67.719  1.00  0.00    -0.380 A  
HETATM    8  H   UNL     1     -11.597  17.241  67.919  1.00  0.00     0.000 HD 
HETATM    9  C   UNL     1     -11.740  12.663  68.943  1.00  0.00    -0.370 A  
HETATM   10  C   UNL     1     -11.824  13.415  70.129  1.00  0.00    -0.342 A  
BRANCH   9  11
HETATM   11  C   UNL     1     -11.876  11.162  68.976  1.00  0.00    -0.348 C  
BRANCH  11  12
HETATM   12  N   UNL     1     -12.708  10.716  70.066  1.00  0.00    -0.471 N  
HETATM   13  C   UNL     1     -12.153  10.053  71.134  1.00  0.00    -0.380 C  
HETATM   14  H   UNL     1     -13.713  10.893  70.044  1.00  0.00     0.000 HD 
HETATM   15  O   UNL     1     -10.954   9.812  71.228  1.00  0.00    -0.351 OA 
BRANCH  13  16
HETATM   16  C   UNL     1     -13.160   9.628  72.184  1.00  0.00    -0.520 C  
BRANCH  16  17
HETATM   17  C   UNL     1     -14.275   8.758  71.603  1.00  0.00    -0.414 C  
BRANCH  17  18
HETATM   18  C   UNL     1     -14.078   7.273  71.932  1.00  0.00    -0.415 C  
BRANCH  18  19
HETATM   19  C   UNL     1     -12.711   6.773  71.466  1.00  0.00    -0.341 C  
BRANCH  19  20
HETATM   20  C   UNL     1     -11.769   6.628  72.627  1.00  0.00    -0.123 C  
HETATM   21  C   UNL     1     -10.434   6.663  72.516  1.00  0.00    -0.231 C  
HETATM   22  C   UNL     1      -9.488   6.512  73.682  1.00  0.00    -0.169 C  
HETATM   23  C   UNL     1      -8.665   7.787  73.861  1.00  0.00    -0.322 C  
HETATM   24  C   UNL     1      -8.574   5.306  73.463  1.00  0.00    -0.112 C  
ENDBRANCH  19  20
ENDBRANCH  18  19
ENDBRANCH  17  18
ENDBRANCH  16  17
ENDBRANCH  13  16
ENDBRANCH  11  12
ENDBRANCH   9  11
ENDBRANCH   2   3
TORSDOF 8
ENDMDL
MODEL      174
REMARK 921   NORMALIZED FREE ENERGY PREDICTED BY IDOCK:   -4.35 KCAL/MOL
REMARK 922        TOTAL FREE ENERGY PREDICTED BY IDOCK:   -7.60 KCAL/MOL
REMARK 923 INTER-LIGAND FREE ENERGY PREDICTED BY IDOCK:   -6.52 KCAL/MOL
REMARK 924 INTRA-LIGAND FREE ENERGY PREDICTED BY IDOCK:   -1.07 KCAL/MOL
REMARK 927      BINDING AFFINITY PREDICTED BY RF-SCORE:    0.00 PKD
ROOT
HETATM    1  C   UNL     1     -10.371  14.629  69.052  1.00  0.00    -0.235 C  
HETATM    2  O   UNL     1     -11.793  14.609  69.085  1.00  0.00    -0.293 OA 
ENDROOT
BRANCH   2   3
HETATM    3  C   UNL     1     -12.372  13.911  70.115  1.00  0.00    -0.334 A  
HETATM    4  C   UNL     1     -13.000  14.701  71.084  1.00  0.00    -0.350 A  
HETATM    5  O   UNL     1     -12.991  16.064  70.976  1.00  0.00    -0.594 OA 
HETATM    6  C   UNL     1     -13.634  14.136  72.182  1.00  0.00    -0.568 A  
HETATM    7  C   UNL     1     -13.612  12.751  72.343  1.00  0.00    -0.507 A  
HETATM    8  H   UNL     1     -13.418  16.601  71.633  1.00  0.00     0.000 HD 
HETATM    9  C   UNL     1     -12.948  11.936  71.411  1.00  0.00    -0.385 A  
HETATM   10  C   UNL     1     -12.358  12.525  70.278  1.00  0.00    -0.265 A  
BRANCH   9  11
HETATM   11  C   UNL     1     -12.842  10.452  71.647  1.00  0.00    -0.474 C  
BRANCH  11  12
HETATM   12  N   UNL     1     -11.535   9.941  71.312  1.00  0.00    -0.375 N  
HETATM   13  C   UNL     1     -11.063   8.799  71.915  1.00  0.00    -0.364 C  
HETATM   14  H   UNL     1     -10.959  10.429  70.626  1.00  0.00     0.000 HD 
HETATM   15  O   UNL     1     -11.703   8.161  72.744  1.00  0.00    -0.403 OA 
BRANCH  13  16
HETATM   16  C   UNL     1      -9.667   8.406  71.477  1.00  0.00    -0.276 C  
BRANCH  16  17
HETATM   17  C   UNL     1      -9.645   7.801  70.073  1.00  0.00    -0.161 C  
BRANCH  17  18
HETATM   18  C   UNL     1      -8.827   8.648  69.091  1.00  0.00    -0.137 C  
BRANCH  18  19
HETATM   19  C   UNL     1      -9.670   9.768  68.482  1.00  0.00    -0.164 C  
BRANCH  19  20
HETATM   20  C   UNL     1      -8.927  11.073  68.507  1.00  0.00    -0.163 C  
HETATM   21  C   UNL     1      -7.600  11.176  68.667  1.00  0.00    -0.127 C  
HETATM   22  C   UNL     1      -6.856  12.489  68.697  1.00  0.00    -0.088 C  
HETATM   23  C   UNL     1      -5.873  12.563  67.529  1.00  0.00    -0.145 C  
HETATM   24  C   UNL     1      -6.123  12.645  70.029  1.00  0.00    -0.115 C  
ENDBRANCH  19  20
ENDBRANCH  18  19
ENDBRANCH  17  18
ENDBRANCH  16  17
ENDBRANCH  13  16
ENDBRANCH  11  12
ENDBRANCH   9  11
ENDBRANCH   2   3
TORSDOF 8
ENDMDL
MODEL      175
REMARK 921   NORMALIZED FREE ENERGY PREDICTED BY IDOCK:   -4.35 KCAL/MOL
REMARK 922        TOTAL FREE ENERGY PREDICTED BY IDOCK:   -7.59 KCAL/MOL
REMARK 923 INTER-LIGAND FREE ENERGY PREDICTED BY IDOCK:   -5.83 KCAL/MOL
REMARK 924 INTRA-LIGAND FREE ENERGY PREDICTED BY IDOCK:   -1.76 KCAL/MOL
REMARK 927      BINDING AFFINITY PREDICTED BY RF-SCORE:    0.00 PKD
ROOT
HETATM    1  C   UNL     1      -8.993   8.691  71.809  1.00  0.00    -0.237 C  
HETATM    2  O   UNL     1      -7.968   9.294  71.027  1.00  0.00    -0.250 OA 
ENDROOT
BRANCH   2   3
HETATM    3  C   UNL     1      -8.378  10.044  69.954  1.00  0.00    -0.151 A  
HETATM    4  C   UNL     1      -7.607  11.184  69.701  1.00  0.00     0.172 A  
HETATM    5  O   UNL     1      -6.547  11.493  70.508  1.00  0.00    -0.513 OA 
HETATM    6  C   UNL     1      -7.896  12.038  68.646  1.00  0.00    -0.091 A  
HETATM    7  C   UNL     1      -9.004  11.773  67.841  1.00  0.00    -0.180 A  
HETATM    8  H   UNL     1      -6.023  12.267  70.337  1.00  0.00     0.000 HD 
HETATM    9  C   UNL     1      -9.824  10.662  68.099  1.00  0.00    -0.170 A  
HETATM   10  C   UNL     1      -9.481   9.781  69.141  1.00  0.00    -0.191 A  
BRANCH   9  11
HETATM   11  C   UNL     1     -11.075  10.443  67.289  1.00  0.00    -0.179 C  
BRANCH  11  12
HETATM   12  N   UNL     1     -11.430  11.605  66.512  1.00  0.00    -0.269 N  
HETATM   13  C   UNL     1     -11.004  11.723  65.211  1.00  0.00    -0.295 C  
HETATM   14  H   UNL     1     -12.000  12.341  66.930  1.00  0.00     0.000 HD 
HETATM   15  O   UNL     1     -10.322  10.875  64.645  1.00  0.00    -0.319 OA 
BRANCH  13  16
HETATM   16  C   UNL     1     -11.438  13.010  64.538  1.00  0.00    -0.389 C  
BRANCH  16  17
HETATM   17  C   UNL     1     -11.825  14.093  65.545  1.00  0.00    -0.364 C  
BRANCH  17  18
HETATM   18  C   UNL     1     -10.717  15.136  65.726  1.00  0.00    -0.359 C  
BRANCH  18  19
HETATM   19  C   UNL     1     -10.271  15.232  67.185  1.00  0.00    -0.252 C  
BRANCH  19  20
HETATM   20  C   UNL     1     -11.363  14.779  68.111  1.00  0.00    -0.324 C  
HETATM   21  C   UNL     1     -11.145  14.154  69.277  1.00  0.00    -0.286 C  
HETATM   22  C   UNL     1     -12.243  13.696  70.204  1.00  0.00    -0.413 C  
HETATM   23  C   UNL     1     -12.142  14.428  71.542  1.00  0.00    -0.373 C  
HETATM   24  C   UNL     1     -12.158  12.183  70.409  1.00  0.00    -0.395 C  
ENDBRANCH  19  20
ENDBRANCH  18  19
ENDBRANCH  17  18
ENDBRANCH  16  17
ENDBRANCH  13  16
ENDBRANCH  11  12
ENDBRANCH   9  11
ENDBRANCH   2   3
TORSDOF 8
ENDMDL
MODEL      176
REMARK 921   NORMALIZED FREE ENERGY PREDICTED BY IDOCK:   -4.34 KCAL/MOL
REMARK 922        TOTAL FREE ENERGY PREDICTED BY IDOCK:   -7.58 KCAL/MOL
REMARK 923 INTER-LIGAND FREE ENERGY PREDICTED BY IDOCK:   -6.96 KCAL/MOL
REMARK 924 INTRA-LIGAND FREE ENERGY PREDICTED BY IDOCK:   -0.62 KCAL/MOL
REMARK 927      BINDING AFFINITY PREDICTED BY RF-SCORE:    0.00 PKD
ROOT
HETATM    1  C   UNL     1      -9.623  18.757  68.451  1.00  0.00    -0.365 C  
HETATM    2  O   UNL     1     -10.176  17.635  69.128  1.00  0.00    -0.342 OA 
ENDROOT
BRANCH   2   3
HETATM    3  C   UNL     1     -10.690  16.636  68.340  1.00  0.00    -0.353 A  
HETATM    4  C   UNL     1     -11.472  15.694  69.016  1.00  0.00    -0.363 A  
HETATM    5  O   UNL     1     -11.660  15.794  70.367  1.00  0.00    -0.303 OA 
HETATM    6  C   UNL     1     -12.064  14.629  68.351  1.00  0.00    -0.223 A  
HETATM    7  C   UNL     1     -11.843  14.474  66.983  1.00  0.00    -0.408 A  
HETATM    8  H   UNL     1     -12.191  15.155  70.827  1.00  0.00     0.000 HD 
HETATM    9  C   UNL     1     -11.024  15.378  66.287  1.00  0.00    -0.278 A  
HETATM   10  C   UNL     1     -10.478  16.480  66.970  1.00  0.00    -0.289 A  
BRANCH   9  11
HETATM   11  C   UNL     1     -10.709  15.145  64.832  1.00  0.00    -0.398 C  
BRANCH  11  12
HETATM   12  N   UNL     1     -10.591  13.741  64.520  1.00  0.00    -0.527 N  
HETATM   13  C   UNL     1     -11.580  13.107  63.806  1.00  0.00    -0.425 C  
HETATM   14  H   UNL     1      -9.772  13.218  64.829  1.00  0.00     0.000 HD 
HETATM   15  O   UNL     1     -12.588  13.674  63.399  1.00  0.00    -0.799 OA 
BRANCH  13  16
HETATM   16  C   UNL     1     -11.323  11.630  63.581  1.00  0.00    -0.485 C  
BRANCH  16  17
HETATM   17  C   UNL     1      -9.935  11.362  62.999  1.00  0.00    -0.354 C  
BRANCH  17  18
HETATM   18  C   UNL     1      -9.384   9.996  63.424  1.00  0.00    -0.300 C  
BRANCH  18  19
HETATM   19  C   UNL     1      -9.524   9.781  64.931  1.00  0.00    -0.331 C  
BRANCH  19  20
HETATM   20  C   UNL     1      -8.251   9.242  65.517  1.00  0.00    -0.125 C  
HETATM   21  C   UNL     1      -7.987   9.210  66.831  1.00  0.00    -0.105 C  
HETATM   22  C   UNL     1      -6.705   8.672  67.418  1.00  0.00    -0.063 C  
HETATM   23  C   UNL     1      -6.998   7.461  68.303  1.00  0.00    -0.079 C  
HETATM   24  C   UNL     1      -5.996   9.765  68.218  1.00  0.00    -0.046 C  
ENDBRANCH  19  20
ENDBRANCH  18  19
ENDBRANCH  17  18
ENDBRANCH  16  17
ENDBRANCH  13  16
ENDBRANCH  11  12
ENDBRANCH   9  11
ENDBRANCH   2   3
TORSDOF 8
ENDMDL
MODEL      177
REMARK 921   NORMALIZED FREE ENERGY PREDICTED BY IDOCK:   -4.32 KCAL/MOL
REMARK 922        TOTAL FREE ENERGY PREDICTED BY IDOCK:   -7.55 KCAL/MOL
REMARK 923 INTER-LIGAND FREE ENERGY PREDICTED BY IDOCK:   -6.16 KCAL/MOL
REMARK 924 INTRA-LIGAND FREE ENERGY PREDICTED BY IDOCK:   -1.39 KCAL/MOL
REMARK 927      BINDING AFFINITY PREDICTED BY RF-SCORE:    0.00 PKD
ROOT
HETATM    1  C   UNL     1     -12.002  12.978  69.007  1.00  0.00    -0.267 C  
HETATM    2  O   UNL     1     -12.265  11.617  69.326  1.00  0.00    -0.271 OA 
ENDROOT
BRANCH   2   3
HETATM    3  C   UNL     1     -11.364  10.693  68.860  1.00  0.00    -0.274 A  
HETATM    4  C   UNL     1     -10.712   9.953  69.852  1.00  0.00    -0.280 A  
HETATM    5  O   UNL     1     -10.975  10.186  71.173  1.00  0.00    -0.290 OA 
HETATM    6  C   UNL     1      -9.777   8.977  69.534  1.00  0.00    -0.171 A  
HETATM    7  C   UNL     1      -9.452   8.757  68.195  1.00  0.00    -0.152 A  
HETATM    8  H   UNL     1     -10.533   9.683  71.847  1.00  0.00     0.000 HD 
HETATM    9  C   UNL     1     -10.055   9.518  67.181  1.00  0.00    -0.290 A  
HETATM   10  C   UNL     1     -11.039  10.464  67.523  1.00  0.00    -0.336 A  
BRANCH   9  11
HETATM   11  C   UNL     1      -9.623   9.344  65.748  1.00  0.00    -0.271 C  
BRANCH  11  12
HETATM   12  N   UNL     1     -10.404  10.151  64.843  1.00  0.00    -0.202 N  
HETATM   13  C   UNL     1      -9.805  11.149  64.113  1.00  0.00    -0.291 C  
HETATM   14  H   UNL     1     -11.405   9.980  64.745  1.00  0.00     0.000 HD 
HETATM   15  O   UNL     1      -8.607  11.405  64.177  1.00  0.00     0.277 OA 
BRANCH  13  16
HETATM   16  C   UNL     1     -10.762  11.923  63.228  1.00  0.00    -0.415 C  
BRANCH  16  17
HETATM   17  C   UNL     1     -12.208  11.834  63.718  1.00  0.00    -0.448 C  
BRANCH  17  18
HETATM   18  C   UNL     1     -12.478  12.777  64.895  1.00  0.00    -0.563 C  
BRANCH  18  19
HETATM   19  C   UNL     1     -12.046  14.208  64.576  1.00  0.00    -0.489 C  
BRANCH  19  20
HETATM   20  C   UNL     1     -11.284  14.808  65.723  1.00  0.00    -0.337 C  
HETATM   21  C   UNL     1      -9.975  14.616  65.935  1.00  0.00    -0.352 C  
HETATM   22  C   UNL     1      -9.213  15.215  67.091  1.00  0.00    -0.226 C  
HETATM   23  C   UNL     1      -8.131  16.163  66.573  1.00  0.00    -0.331 C  
HETATM   24  C   UNL     1      -8.595  14.106  67.942  1.00  0.00    -0.178 C  
ENDBRANCH  19  20
ENDBRANCH  18  19
ENDBRANCH  17  18
ENDBRANCH  16  17
ENDBRANCH  13  16
ENDBRANCH  11  12
ENDBRANCH   9  11
ENDBRANCH   2   3
TORSDOF 8
ENDMDL
MODEL      178
REMARK 921   NORMALIZED FREE ENERGY PREDICTED BY IDOCK:   -4.32 KCAL/MOL
REMARK 922        TOTAL FREE ENERGY PREDICTED BY IDOCK:   -7.54 KCAL/MOL
REMARK 923 INTER-LIGAND FREE ENERGY PREDICTED BY IDOCK:   -7.02 KCAL/MOL
REMARK 924 INTRA-LIGAND FREE ENERGY PREDICTED BY IDOCK:   -0.52 KCAL/MOL
REMARK 927      BINDING AFFINITY PREDICTED BY RF-SCORE:    0.00 PKD
ROOT
HETATM    1  C   UNL     1     -12.329  14.903  64.342  1.00  0.00    -0.323 C  
HETATM    2  O   UNL     1     -11.938  13.612  63.892  1.00  0.00    -0.445 OA 
ENDROOT
BRANCH   2   3
HETATM    3  C   UNL     1     -11.546  12.719  64.858  1.00  0.00    -0.330 A  
HETATM    4  C   UNL     1     -10.767  11.653  64.395  1.00  0.00    -0.330 A  
HETATM    5  O   UNL     1     -10.466  11.544  63.066  1.00  0.00    -0.619 OA 
HETATM    6  C   UNL     1     -10.292  10.673  65.256  1.00  0.00    -0.321 A  
HETATM    7  C   UNL     1     -10.629  10.734  66.608  1.00  0.00    -0.291 A  
HETATM    8  H   UNL     1      -9.937  10.820  62.751  1.00  0.00     0.000 HD 
HETATM    9  C   UNL     1     -11.448  11.766  67.093  1.00  0.00    -0.366 A  
HETATM   10  C   UNL     1     -11.875  12.778  66.213  1.00  0.00    -0.485 A  
BRANCH   9  11
HETATM   11  C   UNL     1     -11.891  11.766  68.533  1.00  0.00    -0.303 C  
BRANCH  11  12
HETATM   12  N   UNL     1     -11.273  10.706  69.291  1.00  0.00    -0.253 N  
HETATM   13  C   UNL     1     -11.724  10.406  70.555  1.00  0.00    -0.344 C  
HETATM   14  H   UNL     1     -10.500  10.176  68.888  1.00  0.00     0.000 HD 
HETATM   15  O   UNL     1     -12.651  10.997  71.098  1.00  0.00    -0.370 OA 
BRANCH  13  16
HETATM   16  C   UNL     1     -10.957   9.286  71.230  1.00  0.00    -0.421 C  
BRANCH  16  17
HETATM   17  C   UNL     1     -11.822   8.501  72.216  1.00  0.00    -0.453 C  
BRANCH  17  18
HETATM   18  C   UNL     1     -11.889   7.010  71.865  1.00  0.00    -0.341 C  
BRANCH  18  19
HETATM   19  C   UNL     1     -11.101   6.699  70.593  1.00  0.00    -0.349 C  
BRANCH  19  20
HETATM   20  C   UNL     1      -9.779   6.064  70.922  1.00  0.00    -0.207 C  
HETATM   21  C   UNL     1      -9.647   4.831  71.430  1.00  0.00    -0.224 C  
HETATM   22  C   UNL     1      -8.320   4.197  71.764  1.00  0.00    -0.099 C  
HETATM   23  C   UNL     1      -8.099   2.954  70.903  1.00  0.00    -0.063 C  
HETATM   24  C   UNL     1      -8.269   3.840  73.250  1.00  0.00    -0.087 C  
ENDBRANCH  19  20
ENDBRANCH  18  19
ENDBRANCH  17  18
ENDBRANCH  16  17
ENDBRANCH  13  16
ENDBRANCH  11  12
ENDBRANCH   9  11
ENDBRANCH   2   3
TORSDOF 8
ENDMDL
MODEL      179
REMARK 921   NORMALIZED FREE ENERGY PREDICTED BY IDOCK:   -4.28 KCAL/MOL
REMARK 922        TOTAL FREE ENERGY PREDICTED BY IDOCK:   -7.48 KCAL/MOL
REMARK 923 INTER-LIGAND FREE ENERGY PREDICTED BY IDOCK:   -6.99 KCAL/MOL
REMARK 924 INTRA-LIGAND FREE ENERGY PREDICTED BY IDOCK:   -0.50 KCAL/MOL
REMARK 927      BINDING AFFINITY PREDICTED BY RF-SCORE:    0.00 PKD
ROOT
HETATM    1  C   UNL     1      -7.786   5.474  71.628  1.00  0.00    -0.112 C  
HETATM    2  O   UNL     1      -9.020   5.698  72.298  1.00  0.00    -0.139 OA 
ENDROOT
BRANCH   2   3
HETATM    3  C   UNL     1      -9.782   6.746  71.845  1.00  0.00    -0.155 A  
HETATM    4  C   UNL     1     -10.809   7.146  72.707  1.00  0.00    -0.300 A  
HETATM    5  O   UNL     1     -11.010   6.492  73.892  1.00  0.00    -0.445 OA 
HETATM    6  C   UNL     1     -11.659   8.196  72.387  1.00  0.00    -0.463 A  
HETATM    7  C   UNL     1     -11.508   8.844  71.161  1.00  0.00    -0.364 A  
HETATM    8  H   UNL     1     -11.707   6.764  74.477  1.00  0.00     0.000 HD 
HETATM    9  C   UNL     1     -10.516   8.434  70.256  1.00  0.00    -0.225 A  
HETATM   10  C   UNL     1      -9.632   7.403  70.623  1.00  0.00    -0.171 A  
BRANCH   9  11
HETATM   11  C   UNL     1     -10.427   9.071  68.893  1.00  0.00    -0.210 C  
BRANCH  11  12
HETATM   12  N   UNL     1     -10.097  10.473  68.970  1.00  0.00    -0.207 N  
HETATM   13  C   UNL     1     -11.011  11.421  68.577  1.00  0.00    -0.221 C  
HETATM   14  H   UNL     1      -9.182  10.761  69.316  1.00  0.00     0.000 HD 
HETATM   15  O   UNL     1     -12.129  11.146  68.156  1.00  0.00    -0.633 OA 
BRANCH  13  16
HETATM   16  C   UNL     1     -10.506  12.846  68.693  1.00  0.00    -0.231 C  
BRANCH  16  17
HETATM   17  C   UNL     1     -11.617  13.829  69.061  1.00  0.00    -0.356 C  
BRANCH  17  18
HETATM   18  C   UNL     1     -11.662  15.031  68.110  1.00  0.00    -0.335 C  
BRANCH  18  19
HETATM   19  C   UNL     1     -11.363  16.337  68.845  1.00  0.00    -0.317 C  
BRANCH  19  20
HETATM   20  C   UNL     1     -10.404  17.188  68.061  1.00  0.00    -0.353 C  
HETATM   21  C   UNL     1      -9.981  18.397  68.456  1.00  0.00    -0.415 C  
HETATM   22  C   UNL     1      -9.022  19.251  67.665  1.00  0.00    -0.346 C  
HETATM   23  C   UNL     1      -7.735  19.471  68.460  1.00  0.00    -0.389 C  
HETATM   24  C   UNL     1      -9.676  20.589  67.318  1.00  0.00    -0.600 C  
ENDBRANCH  19  20
ENDBRANCH  18  19
ENDBRANCH  17  18
ENDBRANCH  16  17
ENDBRANCH  13  16
ENDBRANCH  11  12
ENDBRANCH   9  11
ENDBRANCH   2   3
TORSDOF 8
ENDMDL
MODEL      180
REMARK 921   NORMALIZED FREE ENERGY PREDICTED BY IDOCK:   -4.27 KCAL/MOL
REMARK 922        TOTAL FREE ENERGY PREDICTED BY IDOCK:   -7.48 KCAL/MOL
REMARK 923 INTER-LIGAND FREE ENERGY PREDICTED BY IDOCK:   -6.14 KCAL/MOL
REMARK 924 INTRA-LIGAND FREE ENERGY PREDICTED BY IDOCK:   -1.34 KCAL/MOL
REMARK 927      BINDING AFFINITY PREDICTED BY RF-SCORE:    0.00 PKD
ROOT
HETATM    1  C   UNL     1     -14.325   7.263  71.751  1.00  0.00    -0.402 C  
HETATM    2  O   UNL     1     -13.716   8.465  72.206  1.00  0.00    -0.328 OA 
ENDROOT
BRANCH   2   3
HETATM    3  C   UNL     1     -12.369   8.593  71.979  1.00  0.00    -0.371 A  
HETATM    4  C   UNL     1     -12.022   9.535  71.004  1.00  0.00    -0.328 A  
HETATM    5  O   UNL     1     -12.993  10.233  70.341  1.00  0.00    -0.543 OA 
HETATM    6  C   UNL     1     -10.697   9.779  70.669  1.00  0.00    -0.394 A  
HETATM    7  C   UNL     1      -9.690   9.042  71.293  1.00  0.00    -0.371 A  
HETATM    8  H   UNL     1     -12.758  10.872  69.679  1.00  0.00     0.000 HD 
HETATM    9  C   UNL     1     -10.012   8.058  72.241  1.00  0.00    -0.304 A  
HETATM   10  C   UNL     1     -11.357   7.864  72.604  1.00  0.00    -0.468 A  
BRANCH   9  11
HETATM   11  C   UNL     1      -8.926   7.197  72.834  1.00  0.00    -0.131 C  
BRANCH  11  12
HETATM   12  N   UNL     1      -8.304   6.351  71.845  1.00  0.00    -0.116 N  
HETATM   13  C   UNL     1      -8.849   5.127  71.541  1.00  0.00    -0.133 C  
HETATM   14  H   UNL     1      -7.456   6.663  71.370  1.00  0.00     0.000 HD 
HETATM   15  O   UNL     1      -9.867   4.692  72.069  1.00  0.00    -0.164 OA 
BRANCH  13  16
HETATM   16  C   UNL     1      -8.066   4.347  70.503  1.00  0.00    -0.067 C  
BRANCH  16  17
HETATM   17  C   UNL     1      -8.821   4.220  69.179  1.00  0.00    -0.134 C  
BRANCH  17  18
HETATM   18  C   UNL     1      -8.996   5.574  68.482  1.00  0.00    -0.114 C  
BRANCH  18  19
HETATM   19  C   UNL     1     -10.462   5.842  68.141  1.00  0.00    -0.291 C  
BRANCH  19  20
HETATM   20  C   UNL     1     -10.584   6.938  67.121  1.00  0.00    -0.408 C  
HETATM   21  C   UNL     1      -9.935   8.108  67.197  1.00  0.00    -0.304 C  
HETATM   22  C   UNL     1     -10.063   9.209  66.174  1.00  0.00    -0.278 C  
HETATM   23  C   UNL     1      -8.713   9.464  65.504  1.00  0.00    -0.190 C  
HETATM   24  C   UNL     1     -10.585  10.483  66.838  1.00  0.00    -0.303 C  
ENDBRANCH  19  20
ENDBRANCH  18  19
ENDBRANCH  17  18
ENDBRANCH  16  17
ENDBRANCH  13  16
ENDBRANCH  11  12
ENDBRANCH   9  11
ENDBRANCH   2   3
TORSDOF 8
ENDMDL
MODEL      181
REMARK 921   NORMALIZED FREE ENERGY PREDICTED BY IDOCK:   -4.27 KCAL/MOL
REMARK 922        TOTAL FREE ENERGY PREDICTED BY IDOCK:   -7.47 KCAL/MOL
REMARK 923 INTER-LIGAND FREE ENERGY PREDICTED BY IDOCK:   -6.27 KCAL/MOL
REMARK 924 INTRA-LIGAND FREE ENERGY PREDICTED BY IDOCK:   -1.20 KCAL/MOL
REMARK 927      BINDING AFFINITY PREDICTED BY RF-SCORE:    0.00 PKD
ROOT
HETATM    1  C   UNL     1     -11.783   8.018  72.150  1.00  0.00    -0.344 C  
HETATM    2  O   UNL     1     -11.207   8.179  70.860  1.00  0.00    -0.258 OA 
ENDROOT
BRANCH   2   3
HETATM    3  C   UNL     1     -11.426   9.381  70.236  1.00  0.00    -0.180 A  
HETATM    4  C   UNL     1     -11.132   9.400  68.869  1.00  0.00     0.033 A  
HETATM    5  O   UNL     1     -10.644   8.281  68.252  1.00  0.00    -0.338 OA 
HETATM    6  C   UNL     1     -11.309  10.545  68.103  1.00  0.00    -0.324 A  
HETATM    7  C   UNL     1     -11.755  11.713  68.720  1.00  0.00    -0.392 A  
HETATM    8  H   UNL     1     -10.445   8.294  67.323  1.00  0.00     0.000 HD 
HETATM    9  C   UNL     1     -12.013  11.737  70.100  1.00  0.00    -0.421 A  
HETATM   10  C   UNL     1     -11.878  10.552  70.846  1.00  0.00    -0.455 A  
BRANCH   9  11
HETATM   11  C   UNL     1     -12.395  13.029  70.775  1.00  0.00    -0.310 C  
BRANCH  11  12
HETATM   12  N   UNL     1     -11.560  14.128  70.356  1.00  0.00    -0.471 N  
HETATM   13  C   UNL     1     -12.061  15.408  70.332  1.00  0.00    -0.372 C  
HETATM   14  H   UNL     1     -10.594  13.955  70.077  1.00  0.00     0.000 HD 
HETATM   15  O   UNL     1     -13.209  15.688  70.659  1.00  0.00    -0.487 OA 
BRANCH  13  16
HETATM   16  C   UNL     1     -11.070  16.446  69.846  1.00  0.00    -0.313 C  
BRANCH  16  17
HETATM   17  C   UNL     1     -11.133  16.648  68.332  1.00  0.00    -0.305 C  
BRANCH  17  18
HETATM   18  C   UNL     1     -11.201  15.316  67.575  1.00  0.00    -0.317 C  
BRANCH  18  19
HETATM   19  C   UNL     1     -10.199  15.277  66.421  1.00  0.00    -0.287 C  
BRANCH  19  20
HETATM   20  C   UNL     1      -9.025  14.402  66.758  1.00  0.00    -0.256 C  
HETATM   21  C   UNL     1      -8.818  13.861  67.967  1.00  0.00    -0.184 C  
HETATM   22  C   UNL     1      -7.636  12.986  68.305  1.00  0.00    -0.135 C  
HETATM   23  C   UNL     1      -8.110  11.585  68.688  1.00  0.00    -0.132 C  
HETATM   24  C   UNL     1      -6.830  13.613  69.443  1.00  0.00    -0.022 C  
ENDBRANCH  19  20
ENDBRANCH  18  19
ENDBRANCH  17  18
ENDBRANCH  16  17
ENDBRANCH  13  16
ENDBRANCH  11  12
ENDBRANCH   9  11
ENDBRANCH   2   3
TORSDOF 8
ENDMDL
MODEL      182
REMARK 921   NORMALIZED FREE ENERGY PREDICTED BY IDOCK:   -4.26 KCAL/MOL
REMARK 922        TOTAL FREE ENERGY PREDICTED BY IDOCK:   -7.47 KCAL/MOL
REMARK 923 INTER-LIGAND FREE ENERGY PREDICTED BY IDOCK:   -6.86 KCAL/MOL
REMARK 924 INTRA-LIGAND FREE ENERGY PREDICTED BY IDOCK:   -0.61 KCAL/MOL
REMARK 927      BINDING AFFINITY PREDICTED BY RF-SCORE:    0.00 PKD
ROOT
HETATM    1  C   UNL     1      -9.506   3.860  68.953  1.00  0.00    -0.163 C  
HETATM    2  O   UNL     1      -9.303   3.717  70.354  1.00  0.00    -0.135 OA 
ENDROOT
BRANCH   2   3
HETATM    3  C   UNL     1      -9.304   4.872  71.094  1.00  0.00    -0.150 A  
HETATM    4  C   UNL     1      -8.041   5.310  71.508  1.00  0.00    -0.116 A  
HETATM    5  O   UNL     1      -6.922   4.591  71.189  1.00  0.00    -0.034 OA 
HETATM    6  C   UNL     1      -7.883   6.467  72.259  1.00  0.00    -0.102 A  
HETATM    7  C   UNL     1      -9.013   7.188  72.642  1.00  0.00    -0.148 A  
HETATM    8  H   UNL     1      -6.065   4.888  71.469  1.00  0.00     0.000 HD 
HETATM    9  C   UNL     1     -10.297   6.747  72.282  1.00  0.00    -0.219 A  
HETATM   10  C   UNL     1     -10.430   5.602  71.475  1.00  0.00    -0.298 A  
BRANCH   9  11
HETATM   11  C   UNL     1     -11.515   7.476  72.787  1.00  0.00    -0.300 C  
BRANCH  11  12
HETATM   12  N   UNL     1     -11.717   8.733  72.108  1.00  0.00    -0.369 N  
HETATM   13  C   UNL     1     -12.985   9.144  71.776  1.00  0.00    -0.380 C  
HETATM   14  H   UNL     1     -10.915   9.319  71.875  1.00  0.00     0.000 HD 
HETATM   15  O   UNL     1     -13.993   8.493  72.031  1.00  0.00    -0.396 OA 
BRANCH  13  16
HETATM   16  C   UNL     1     -13.029  10.471  71.046  1.00  0.00    -0.475 C  
BRANCH  16  17
HETATM   17  C   UNL     1     -11.714  10.788  70.334  1.00  0.00    -0.445 C  
BRANCH  17  18
HETATM   18  C   UNL     1     -11.940  11.320  68.914  1.00  0.00    -0.378 C  
BRANCH  18  19
HETATM   19  C   UNL     1     -11.039  12.518  68.615  1.00  0.00    -0.305 C  
BRANCH  19  20
HETATM   20  C   UNL     1     -11.699  13.803  69.029  1.00  0.00    -0.372 C  
HETATM   21  C   UNL     1     -12.001  14.114  70.297  1.00  0.00    -0.404 C  
HETATM   22  C   UNL     1     -12.668  15.403  70.711  1.00  0.00    -0.516 C  
HETATM   23  C   UNL     1     -11.740  16.208  71.620  1.00  0.00    -0.558 C  
HETATM   24  C   UNL     1     -13.990  15.105  71.418  1.00  0.00    -0.595 C  
ENDBRANCH  19  20
ENDBRANCH  18  19
ENDBRANCH  17  18
ENDBRANCH  16  17
ENDBRANCH  13  16
ENDBRANCH  11  12
ENDBRANCH   9  11
ENDBRANCH   2   3
TORSDOF 8
ENDMDL
MODEL      183
REMARK 921   NORMALIZED FREE ENERGY PREDICTED BY IDOCK:   -4.26 KCAL/MOL
REMARK 922        TOTAL FREE ENERGY PREDICTED BY IDOCK:   -7.46 KCAL/MOL
REMARK 923 INTER-LIGAND FREE ENERGY PREDICTED BY IDOCK:   -7.00 KCAL/MOL
REMARK 924 INTRA-LIGAND FREE ENERGY PREDICTED BY IDOCK:   -0.46 KCAL/MOL
REMARK 927      BINDING AFFINITY PREDICTED BY RF-SCORE:    0.00 PKD
ROOT
HETATM    1  C   UNL     1      -8.569  17.202  66.556  1.00  0.00    -0.271 C  
HETATM    2  O   UNL     1      -9.789  17.120  65.827  1.00  0.00    -0.530 OA 
ENDROOT
BRANCH   2   3
HETATM    3  C   UNL     1     -10.556  16.003  66.042  1.00  0.00    -0.316 A  
HETATM    4  C   UNL     1     -11.272  15.555  64.927  1.00  0.00    -0.389 A  
HETATM    5  O   UNL     1     -11.194  16.229  63.740  1.00  0.00    -1.195 OA 
HETATM    6  C   UNL     1     -12.088  14.433  64.990  1.00  0.00    -0.417 A  
HETATM    7  C   UNL     1     -12.226  13.759  66.203  1.00  0.00    -0.499 A  
HETATM    8  H   UNL     1     -11.680  15.925  62.982  1.00  0.00     0.000 HD 
HETATM    9  C   UNL     1     -11.557  14.214  67.351  1.00  0.00    -0.399 A  
HETATM   10  C   UNL     1     -10.693  15.320  67.252  1.00  0.00    -0.311 A  
BRANCH   9  11
HETATM   11  C   UNL     1     -11.792  13.542  68.679  1.00  0.00    -0.369 C  
BRANCH  11  12
HETATM   12  N   UNL     1     -11.382  12.159  68.668  1.00  0.00    -0.255 N  
HETATM   13  C   UNL     1     -11.539  11.382  69.791  1.00  0.00    -0.332 C  
HETATM   14  H   UNL     1     -10.974  11.756  67.824  1.00  0.00     0.000 HD 
HETATM   15  O   UNL     1     -12.026  11.799  70.836  1.00  0.00    -0.269 OA 
BRANCH  13  16
HETATM   16  C   UNL     1     -11.037   9.961  69.630  1.00  0.00    -0.279 C  
BRANCH  16  17
HETATM   17  C   UNL     1      -9.941   9.847  68.570  1.00  0.00    -0.175 C  
BRANCH  17  18
HETATM   18  C   UNL     1     -10.456   9.217  67.271  1.00  0.00    -0.334 C  
BRANCH  18  19
HETATM   19  C   UNL     1      -9.329   9.021  66.259  1.00  0.00    -0.284 C  
BRANCH  19  20
HETATM   20  C   UNL     1      -9.191   7.574  65.881  1.00  0.00    -0.034 C  
HETATM   21  C   UNL     1      -8.028   6.907  65.884  1.00  0.00    -0.112 C  
HETATM   22  C   UNL     1      -7.891   5.454  65.499  1.00  0.00    -0.098 C  
HETATM   23  C   UNL     1      -7.395   4.639  66.693  1.00  0.00    -0.081 C  
HETATM   24  C   UNL     1      -6.934   5.314  64.315  1.00  0.00    -0.049 C  
ENDBRANCH  19  20
ENDBRANCH  18  19
ENDBRANCH  17  18
ENDBRANCH  16  17
ENDBRANCH  13  16
ENDBRANCH  11  12
ENDBRANCH   9  11
ENDBRANCH   2   3
TORSDOF 8
ENDMDL
MODEL      184
REMARK 921   NORMALIZED FREE ENERGY PREDICTED BY IDOCK:   -4.25 KCAL/MOL
REMARK 922        TOTAL FREE ENERGY PREDICTED BY IDOCK:   -7.44 KCAL/MOL
REMARK 923 INTER-LIGAND FREE ENERGY PREDICTED BY IDOCK:   -6.84 KCAL/MOL
REMARK 924 INTRA-LIGAND FREE ENERGY PREDICTED BY IDOCK:   -0.60 KCAL/MOL
REMARK 927      BINDING AFFINITY PREDICTED BY RF-SCORE:    0.00 PKD
ROOT
HETATM    1  C   UNL     1     -10.917   6.166  72.878  1.00  0.00    -0.262 C  
HETATM    2  O   UNL     1     -10.719   6.242  71.471  1.00  0.00    -0.229 OA 
ENDROOT
BRANCH   2   3
HETATM    3  C   UNL     1     -10.366   7.468  70.968  1.00  0.00    -0.199 A  
HETATM    4  C   UNL     1      -9.005   7.778  71.068  1.00  0.00    -0.142 A  
HETATM    5  O   UNL     1      -8.137   6.896  71.652  1.00  0.00    -0.104 OA 
HETATM    6  C   UNL     1      -8.496   8.980  70.597  1.00  0.00    -0.229 A  
HETATM    7  C   UNL     1      -9.369   9.918  70.045  1.00  0.00    -0.232 A  
HETATM    8  H   UNL     1      -7.213   7.106  71.720  1.00  0.00     0.000 HD 
HETATM    9  C   UNL     1     -10.746   9.655  69.974  1.00  0.00    -0.298 A  
HETATM   10  C   UNL     1     -11.232   8.408  70.408  1.00  0.00    -0.220 A  
BRANCH   9  11
HETATM   11  C   UNL     1     -11.693  10.714  69.471  1.00  0.00    -0.284 C  
BRANCH  11  12
HETATM   12  N   UNL     1     -11.865  11.784  70.423  1.00  0.00    -0.499 N  
HETATM   13  C   UNL     1     -12.799  11.675  71.425  1.00  0.00    -0.356 C  
HETATM   14  H   UNL     1     -11.292  12.625  70.352  1.00  0.00     0.000 HD 
HETATM   15  O   UNL     1     -13.518  10.692  71.572  1.00  0.00    -0.276 OA 
BRANCH  13  16
HETATM   16  C   UNL     1     -12.877  12.890  72.327  1.00  0.00    -0.178 C  
BRANCH  16  17
HETATM   17  C   UNL     1     -13.991  13.853  71.912  1.00  0.00    -0.512 C  
BRANCH  17  18
HETATM   18  C   UNL     1     -13.775  15.262  72.476  1.00  0.00    -0.627 C  
BRANCH  18  19
HETATM   19  C   UNL     1     -12.296  15.539  72.740  1.00  0.00    -0.522 C  
BRANCH  19  20
HETATM   20  C   UNL     1     -11.669  16.259  71.580  1.00  0.00    -0.490 C  
HETATM   21  C   UNL     1     -11.038  15.644  70.570  1.00  0.00    -0.375 C  
HETATM   22  C   UNL     1     -10.405  16.369  69.408  1.00  0.00    -0.290 C  
HETATM   23  C   UNL     1     -11.097  15.978  68.103  1.00  0.00    -0.344 C  
HETATM   24  C   UNL     1      -8.911  16.050  69.343  1.00  0.00    -0.170 C  
ENDBRANCH  19  20
ENDBRANCH  18  19
ENDBRANCH  17  18
ENDBRANCH  16  17
ENDBRANCH  13  16
ENDBRANCH  11  12
ENDBRANCH   9  11
ENDBRANCH   2   3
TORSDOF 8
ENDMDL
MODEL      185
REMARK 921   NORMALIZED FREE ENERGY PREDICTED BY IDOCK:   -4.23 KCAL/MOL
REMARK 922        TOTAL FREE ENERGY PREDICTED BY IDOCK:   -7.42 KCAL/MOL
REMARK 923 INTER-LIGAND FREE ENERGY PREDICTED BY IDOCK:   -6.85 KCAL/MOL
REMARK 924 INTRA-LIGAND FREE ENERGY PREDICTED BY IDOCK:   -0.57 KCAL/MOL
REMARK 927      BINDING AFFINITY PREDICTED BY RF-SCORE:    0.00 PKD
ROOT
HETATM    1  C   UNL     1     -14.372  15.286  72.141  1.00  0.00    -0.555 C  
HETATM    2  O   UNL     1     -13.079  14.729  72.348  1.00  0.00    -0.326 OA 
ENDROOT
BRANCH   2   3
HETATM    3  C   UNL     1     -12.472  14.169  71.253  1.00  0.00    -0.370 A  
HETATM    4  C   UNL     1     -11.653  15.037  70.522  1.00  0.00    -0.298 A  
HETATM    5  O   UNL     1     -11.520  16.344  70.902  1.00  0.00    -0.543 OA 
HETATM    6  C   UNL     1     -10.968  14.612  69.392  1.00  0.00    -0.279 A  
HETATM    7  C   UNL     1     -11.129  13.297  68.954  1.00  0.00    -0.304 A  
HETATM    8  H   UNL     1     -10.965  16.934  70.407  1.00  0.00     0.000 HD 
HETATM    9  C   UNL     1     -11.981  12.417  69.640  1.00  0.00    -0.341 A  
HETATM   10  C   UNL     1     -12.623  12.853  70.813  1.00  0.00    -0.314 A  
BRANCH   9  11
HETATM   11  C   UNL     1     -12.228  11.031  69.100  1.00  0.00    -0.159 C  
BRANCH  11  12
HETATM   12  N   UNL     1     -11.259  10.079  69.585  1.00  0.00    -0.298 N  
HETATM   13  C   UNL     1     -11.578   9.233  70.620  1.00  0.00    -0.252 C  
HETATM   14  H   UNL     1     -10.334  10.033  69.157  1.00  0.00     0.000 HD 
HETATM   15  O   UNL     1     -12.671   9.231  71.176  1.00  0.00    -0.306 OA 
BRANCH  13  16
HETATM   16  C   UNL     1     -10.448   8.310  71.030  1.00  0.00    -0.241 C  
BRANCH  16  17
HETATM   17  C   UNL     1      -9.950   8.593  72.447  1.00  0.00    -0.320 C  
BRANCH  17  18
HETATM   18  C   UNL     1     -10.351   7.487  73.431  1.00  0.00    -0.405 C  
BRANCH  18  19
HETATM   19  C   UNL     1     -11.015   6.313  72.712  1.00  0.00    -0.291 C  
BRANCH  19  20
HETATM   20  C   UNL     1     -10.930   5.060  73.537  1.00  0.00    -0.393 C  
HETATM   21  C   UNL     1     -10.670   3.847  73.030  1.00  0.00    -0.241 C  
HETATM   22  C   UNL     1     -10.590   2.589  73.859  1.00  0.00    -0.243 C  
HETATM   23  C   UNL     1      -9.183   1.996  73.781  1.00  0.00    -0.076 C  
HETATM   24  C   UNL     1     -11.629   1.577  73.377  1.00  0.00    -0.296 C  
ENDBRANCH  19  20
ENDBRANCH  18  19
ENDBRANCH  17  18
ENDBRANCH  16  17
ENDBRANCH  13  16
ENDBRANCH  11  12
ENDBRANCH   9  11
ENDBRANCH   2   3
TORSDOF 8
ENDMDL
MODEL      186
REMARK 921   NORMALIZED FREE ENERGY PREDICTED BY IDOCK:   -4.22 KCAL/MOL
REMARK 922        TOTAL FREE ENERGY PREDICTED BY IDOCK:   -7.41 KCAL/MOL
REMARK 923 INTER-LIGAND FREE ENERGY PREDICTED BY IDOCK:   -6.77 KCAL/MOL
REMARK 924 INTRA-LIGAND FREE ENERGY PREDICTED BY IDOCK:   -0.64 KCAL/MOL
REMARK 927      BINDING AFFINITY PREDICTED BY RF-SCORE:    0.00 PKD
ROOT
HETATM    1  C   UNL     1      -6.713   9.975  69.225  1.00  0.00    -0.057 C  
HETATM    2  O   UNL     1      -7.698  10.897  69.676  1.00  0.00    -0.083 OA 
ENDROOT
BRANCH   2   3
HETATM    3  C   UNL     1      -8.810  11.039  68.885  1.00  0.00    -0.113 A  
HETATM    4  C   UNL     1      -9.997  10.552  69.443  1.00  0.00    -0.196 A  
HETATM    5  O   UNL     1      -9.991   9.967  70.679  1.00  0.00    -0.353 OA 
HETATM    6  C   UNL     1     -11.206  10.631  68.764  1.00  0.00    -0.337 A  
HETATM    7  C   UNL     1     -11.230  11.176  67.480  1.00  0.00    -0.369 A  
HETATM    8  H   UNL     1     -10.796   9.636  71.058  1.00  0.00     0.000 HD 
HETATM    9  C   UNL     1     -10.046  11.630  66.876  1.00  0.00    -0.238 A  
HETATM   10  C   UNL     1      -8.842  11.589  67.603  1.00  0.00    -0.152 A  
BRANCH   9  11
HETATM   11  C   UNL     1     -10.065  12.121  65.452  1.00  0.00    -0.255 C  
BRANCH  11  12
HETATM   12  N   UNL     1      -9.918  13.553  65.369  1.00  0.00    -0.488 N  
HETATM   13  C   UNL     1     -11.028  14.364  65.377  1.00  0.00    -0.339 C  
HETATM   14  H   UNL     1      -8.987  13.966  65.305  1.00  0.00     0.000 HD 
HETATM   15  O   UNL     1     -12.175  13.936  65.457  1.00  0.00    -0.392 OA 
BRANCH  13  16
HETATM   16  C   UNL     1     -10.710  15.841  65.258  1.00  0.00    -0.446 C  
BRANCH  16  17
HETATM   17  C   UNL     1     -10.326  16.464  66.600  1.00  0.00    -0.292 C  
BRANCH  17  18
HETATM   18  C   UNL     1      -9.377  17.656  66.433  1.00  0.00    -0.265 C  
BRANCH  18  19
HETATM   19  C   UNL     1     -10.119  18.985  66.575  1.00  0.00    -0.463 C  
BRANCH  19  20
HETATM   20  C   UNL     1      -9.163  20.104  66.880  1.00  0.00    -0.499 C  
HETATM   21  C   UNL     1      -7.834  19.951  66.959  1.00  0.00    -0.325 C  
HETATM   22  C   UNL     1      -6.876  21.075  67.270  1.00  0.00    -0.434 C  
HETATM   23  C   UNL     1      -5.934  21.306  66.089  1.00  0.00    -0.302 C  
HETATM   24  C   UNL     1      -6.083  20.752  68.536  1.00  0.00    -0.373 C  
ENDBRANCH  19  20
ENDBRANCH  18  19
ENDBRANCH  17  18
ENDBRANCH  16  17
ENDBRANCH  13  16
ENDBRANCH  11  12
ENDBRANCH   9  11
ENDBRANCH   2   3
TORSDOF 8
ENDMDL
MODEL      187
REMARK 921   NORMALIZED FREE ENERGY PREDICTED BY IDOCK:   -4.22 KCAL/MOL
REMARK 922        TOTAL FREE ENERGY PREDICTED BY IDOCK:   -7.40 KCAL/MOL
REMARK 923 INTER-LIGAND FREE ENERGY PREDICTED BY IDOCK:   -6.94 KCAL/MOL
REMARK 924 INTRA-LIGAND FREE ENERGY PREDICTED BY IDOCK:   -0.46 KCAL/MOL
REMARK 927      BINDING AFFINITY PREDICTED BY RF-SCORE:    0.00 PKD
ROOT
HETATM    1  C   UNL     1      -6.626  18.557  68.647  1.00  0.00    -0.247 C  
HETATM    2  O   UNL     1      -6.929  18.870  67.293  1.00  0.00    -0.206 OA 
ENDROOT
BRANCH   2   3
HETATM    3  C   UNL     1      -8.209  18.607  66.876  1.00  0.00    -0.261 A  
HETATM    4  C   UNL     1      -9.061  19.716  66.847  1.00  0.00    -0.342 A  
HETATM    5  O   UNL     1      -8.606  20.946  67.236  1.00  0.00    -0.515 OA 
HETATM    6  C   UNL     1     -10.384  19.607  66.441  1.00  0.00    -0.609 A  
HETATM    7  C   UNL     1     -10.886  18.354  66.089  1.00  0.00    -0.027 A  
HETATM    8  H   UNL     1      -9.184  21.700  67.216  1.00  0.00     0.000 HD 
HETATM    9  C   UNL     1     -10.068  17.214  66.154  1.00  0.00    -0.317 A  
HETATM   10  C   UNL     1      -8.716  17.357  66.517  1.00  0.00    -0.290 A  
BRANCH   9  11
HETATM   11  C   UNL     1     -10.646  15.852  65.872  1.00  0.00    -0.337 C  
BRANCH  11  12
HETATM   12  N   UNL     1     -10.829  15.079  67.076  1.00  0.00    -0.306 N  
HETATM   13  C   UNL     1     -11.860  14.175  67.168  1.00  0.00    -0.423 C  
HETATM   14  H   UNL     1     -10.190  15.204  67.862  1.00  0.00     0.000 HD 
HETATM   15  O   UNL     1     -12.660  13.971  66.262  1.00  0.00    -0.451 OA 
BRANCH  13  16
HETATM   16  C   UNL     1     -11.934  13.462  68.504  1.00  0.00    -0.363 C  
BRANCH  16  17
HETATM   17  C   UNL     1     -11.574  11.980  68.392  1.00  0.00    -0.368 C  
BRANCH  17  18
HETATM   18  C   UNL     1     -11.953  11.197  69.655  1.00  0.00    -0.429 C  
BRANCH  18  19
HETATM   19  C   UNL     1     -10.751  10.452  70.234  1.00  0.00    -0.249 C  
BRANCH  19  20
HETATM   20  C   UNL     1     -10.804   8.992  69.883  1.00  0.00    -0.228 C  
HETATM   21  C   UNL     1     -10.297   8.475  68.756  1.00  0.00    -0.233 C  
HETATM   22  C   UNL     1     -10.355   7.009  68.403  1.00  0.00    -0.216 C  
HETATM   23  C   UNL     1      -8.943   6.434  68.305  1.00  0.00    -0.116 C  
HETATM   24  C   UNL     1     -11.108   6.817  67.086  1.00  0.00    -0.404 C  
ENDBRANCH  19  20
ENDBRANCH  18  19
ENDBRANCH  17  18
ENDBRANCH  16  17
ENDBRANCH  13  16
ENDBRANCH  11  12
ENDBRANCH   9  11
ENDBRANCH   2   3
TORSDOF 8
ENDMDL
MODEL      188
REMARK 921   NORMALIZED FREE ENERGY PREDICTED BY IDOCK:   -4.22 KCAL/MOL
REMARK 922        TOTAL FREE ENERGY PREDICTED BY IDOCK:   -7.40 KCAL/MOL
REMARK 923 INTER-LIGAND FREE ENERGY PREDICTED BY IDOCK:   -6.80 KCAL/MOL
REMARK 924 INTRA-LIGAND FREE ENERGY PREDICTED BY IDOCK:   -0.60 KCAL/MOL
REMARK 927      BINDING AFFINITY PREDICTED BY RF-SCORE:    0.00 PKD
ROOT
HETATM    1  C   UNL     1      -7.391   8.128  70.738  1.00  0.00    -0.058 C  
HETATM    2  O   UNL     1      -7.901   8.075  72.065  1.00  0.00    -0.089 OA 
ENDROOT
BRANCH   2   3
HETATM    3  C   UNL     1      -9.267   8.070  72.197  1.00  0.00    -0.172 A  
HETATM    4  C   UNL     1      -9.796   6.938  72.825  1.00  0.00    -0.167 A  
HETATM    5  O   UNL     1      -8.971   5.929  73.239  1.00  0.00    -0.131 OA 
HETATM    6  C   UNL     1     -11.160   6.794  73.035  1.00  0.00    -0.252 A  
HETATM    7  C   UNL     1     -12.028   7.785  72.574  1.00  0.00    -0.304 A  
HETATM    8  H   UNL     1      -9.329   5.160  73.666  1.00  0.00     0.000 HD 
HETATM    9  C   UNL     1     -11.529   8.910  71.899  1.00  0.00    -0.442 A  
HETATM   10  C   UNL     1     -10.139   9.061  71.745  1.00  0.00    -0.373 A  
BRANCH   9  11
HETATM   11  C   UNL     1     -12.480   9.923  71.315  1.00  0.00    -0.381 C  
BRANCH  11  12
HETATM   12  N   UNL     1     -12.237  10.150  69.912  1.00  0.00    -0.498 N  
HETATM   13  C   UNL     1     -11.929  11.410  69.458  1.00  0.00    -0.341 C  
HETATM   14  H   UNL     1     -12.294   9.373  69.253  1.00  0.00     0.000 HD 
HETATM   15  O   UNL     1     -11.838  12.388  70.193  1.00  0.00    -0.324 OA 
BRANCH  13  16
HETATM   16  C   UNL     1     -11.727  11.491  67.958  1.00  0.00    -0.343 C  
BRANCH  16  17
HETATM   17  C   UNL     1     -11.562  12.930  67.469  1.00  0.00    -0.409 C  
BRANCH  17  18
HETATM   18  C   UNL     1     -12.225  13.156  66.106  1.00  0.00    -0.451 C  
BRANCH  18  19
HETATM   19  C   UNL     1     -11.546  14.286  65.333  1.00  0.00    -0.346 C  
BRANCH  19  20
HETATM   20  C   UNL     1     -10.879  15.252  66.271  1.00  0.00    -0.312 C  
HETATM   21  C   UNL     1     -10.401  16.448  65.898  1.00  0.00    -0.378 C  
HETATM   22  C   UNL     1      -9.727  17.415  66.839  1.00  0.00    -0.286 C  
HETATM   23  C   UNL     1     -10.536  18.708  66.934  1.00  0.00    -0.449 C  
HETATM   24  C   UNL     1      -8.303  17.704  66.363  1.00  0.00    -0.288 C  
ENDBRANCH  19  20
ENDBRANCH  18  19
ENDBRANCH  17  18
ENDBRANCH  16  17
ENDBRANCH  13  16
ENDBRANCH  11  12
ENDBRANCH   9  11
ENDBRANCH   2   3
TORSDOF 8
ENDMDL
MODEL      189
REMARK 921   NORMALIZED FREE ENERGY PREDICTED BY IDOCK:   -4.21 KCAL/MOL
REMARK 922        TOTAL FREE ENERGY PREDICTED BY IDOCK:   -7.39 KCAL/MOL
REMARK 923 INTER-LIGAND FREE ENERGY PREDICTED BY IDOCK:   -6.68 KCAL/MOL
REMARK 924 INTRA-LIGAND FREE ENERGY PREDICTED BY IDOCK:   -0.71 KCAL/MOL
REMARK 927      BINDING AFFINITY PREDICTED BY RF-SCORE:    0.00 PKD
ROOT
HETATM    1  C   UNL     1     -13.360   7.673  71.677  1.00  0.00    -0.350 C  
HETATM    2  O   UNL     1     -12.376   6.735  72.094  1.00  0.00    -0.283 OA 
ENDROOT
BRANCH   2   3
HETATM    3  C   UNL     1     -11.446   6.364  71.155  1.00  0.00    -0.323 A  
HETATM    4  C   UNL     1     -10.181   6.058  71.665  1.00  0.00    -0.201 A  
HETATM    5  O   UNL     1      -9.934   6.157  73.007  1.00  0.00    -0.170 OA 
HETATM    6  C   UNL     1      -9.139   5.661  70.837  1.00  0.00    -0.160 A  
HETATM    7  C   UNL     1      -9.350   5.603  69.460  1.00  0.00    -0.165 A  
HETATM    8  H   UNL     1      -9.075   5.949  73.354  1.00  0.00     0.000 HD 
HETATM    9  C   UNL     1     -10.597   5.950  68.915  1.00  0.00    -0.357 A  
HETATM   10  C   UNL     1     -11.653   6.298  69.776  1.00  0.00    -0.330 A  
BRANCH   9  11
HETATM   11  C   UNL     1     -10.784   5.984  67.420  1.00  0.00    -0.310 C  
BRANCH  11  12
HETATM   12  N   UNL     1     -10.772   7.329  66.901  1.00  0.00    -0.476 N  
HETATM   13  C   UNL     1      -9.593   7.900  66.486  1.00  0.00    -0.212 C  
HETATM   14  H   UNL     1     -11.642   7.859  66.841  1.00  0.00     0.000 HD 
HETATM   15  O   UNL     1      -8.513   7.320  66.524  1.00  0.00    -0.115 OA 
BRANCH  13  16
HETATM   16  C   UNL     1      -9.741   9.325  65.990  1.00  0.00    -0.359 C  
BRANCH  16  17
HETATM   17  C   UNL     1      -9.225   9.501  64.562  1.00  0.00    -0.223 C  
BRANCH  17  18
HETATM   18  C   UNL     1      -9.067  10.979  64.184  1.00  0.00    -0.110 C  
BRANCH  18  19
HETATM   19  C   UNL     1     -10.100  11.402  63.139  1.00  0.00    -0.390 C  
BRANCH  19  20
HETATM   20  C   UNL     1     -10.993  12.484  63.675  1.00  0.00    -0.507 C  
HETATM   21  C   UNL     1     -10.712  13.218  64.760  1.00  0.00    -0.393 C  
HETATM   22  C   UNL     1     -11.613  14.301  65.300  1.00  0.00    -0.348 C  
HETATM   23  C   UNL     1     -10.905  15.655  65.236  1.00  0.00    -0.420 C  
HETATM   24  C   UNL     1     -12.023  13.974  66.736  1.00  0.00    -0.473 C  
ENDBRANCH  19  20
ENDBRANCH  18  19
ENDBRANCH  17  18
ENDBRANCH  16  17
ENDBRANCH  13  16
ENDBRANCH  11  12
ENDBRANCH   9  11
ENDBRANCH   2   3
TORSDOF 8
ENDMDL
MODEL      190
REMARK 921   NORMALIZED FREE ENERGY PREDICTED BY IDOCK:   -4.20 KCAL/MOL
REMARK 922        TOTAL FREE ENERGY PREDICTED BY IDOCK:   -7.37 KCAL/MOL
REMARK 923 INTER-LIGAND FREE ENERGY PREDICTED BY IDOCK:   -6.60 KCAL/MOL
REMARK 924 INTRA-LIGAND FREE ENERGY PREDICTED BY IDOCK:   -0.78 KCAL/MOL
REMARK 927      BINDING AFFINITY PREDICTED BY RF-SCORE:    0.00 PKD
ROOT
HETATM    1  C   UNL     1     -11.011   9.820  70.452  1.00  0.00    -0.312 C  
HETATM    2  O   UNL     1     -12.214  10.510  70.134  1.00  0.00    -0.292 OA 
ENDROOT
BRANCH   2   3
HETATM    3  C   UNL     1     -12.122  11.872  70.002  1.00  0.00    -0.291 A  
HETATM    4  C   UNL     1     -12.694  12.606  71.047  1.00  0.00    -0.226 A  
HETATM    5  O   UNL     1     -13.306  11.964  72.088  1.00  0.00    -0.537 OA 
HETATM    6  C   UNL     1     -12.673  13.994  71.057  1.00  0.00    -0.431 A  
HETATM    7  C   UNL     1     -12.102  14.674  69.980  1.00  0.00    -0.383 A  
HETATM    8  H   UNL     1     -13.694  12.462  72.798  1.00  0.00     0.000 HD 
HETATM    9  C   UNL     1     -11.563  13.964  68.895  1.00  0.00    -0.353 A  
HETATM   10  C   UNL     1     -11.546  12.558  68.932  1.00  0.00    -0.364 A  
BRANCH   9  11
HETATM   11  C   UNL     1     -11.042  14.706  67.692  1.00  0.00    -0.304 C  
BRANCH  11  12
HETATM   12  N   UNL     1     -10.927  16.123  67.935  1.00  0.00    -0.334 N  
HETATM   13  C   UNL     1     -10.601  16.977  66.909  1.00  0.00    -0.208 C  
HETATM   14  H   UNL     1     -11.090  16.493  68.872  1.00  0.00     0.000 HD 
HETATM   15  O   UNL     1     -10.398  16.602  65.759  1.00  0.00    -0.389 OA 
BRANCH  13  16
HETATM   16  C   UNL     1     -10.495  18.430  67.328  1.00  0.00    -0.434 C  
BRANCH  16  17
HETATM   17  C   UNL     1      -9.047  18.871  67.537  1.00  0.00    -0.307 C  
BRANCH  17  18
HETATM   18  C   UNL     1      -8.810  19.428  68.945  1.00  0.00    -0.331 C  
BRANCH  18  19
HETATM   19  C   UNL     1      -7.351  19.270  69.372  1.00  0.00    -0.213 C  
BRANCH  19  20
HETATM   20  C   UNL     1      -6.681  18.171  68.597  1.00  0.00    -0.240 C  
HETATM   21  C   UNL     1      -6.828  16.867  68.868  1.00  0.00    -0.209 C  
HETATM   22  C   UNL     1      -6.151  15.764  68.092  1.00  0.00    -0.133 C  
HETATM   23  C   UNL     1      -7.196  14.880  67.413  1.00  0.00    -0.213 C  
HETATM   24  C   UNL     1      -5.266  14.936  69.023  1.00  0.00    -0.094 C  
ENDBRANCH  19  20
ENDBRANCH  18  19
ENDBRANCH  17  18
ENDBRANCH  16  17
ENDBRANCH  13  16
ENDBRANCH  11  12
ENDBRANCH   9  11
ENDBRANCH   2   3
TORSDOF 8
ENDMDL
MODEL      191
REMARK 921   NORMALIZED FREE ENERGY PREDICTED BY IDOCK:   -4.20 KCAL/MOL
REMARK 922        TOTAL FREE ENERGY PREDICTED BY IDOCK:   -7.37 KCAL/MOL
REMARK 923 INTER-LIGAND FREE ENERGY PREDICTED BY IDOCK:   -6.47 KCAL/MOL
REMARK 924 INTRA-LIGAND FREE ENERGY PREDICTED BY IDOCK:   -0.89 KCAL/MOL
REMARK 927      BINDING AFFINITY PREDICTED BY RF-SCORE:    0.00 PKD
ROOT
HETATM    1  C   UNL     1     -11.667  12.887  63.915  1.00  0.00    -0.460 C  
HETATM    2  O   UNL     1     -12.250  14.144  64.238  1.00  0.00    -0.520 OA 
ENDROOT
BRANCH   2   3
HETATM    3  C   UNL     1     -11.676  14.837  65.273  1.00  0.00    -0.311 A  
HETATM    4  C   UNL     1     -11.304  16.151  64.970  1.00  0.00    -0.114 A  
HETATM    5  O   UNL     1     -11.501  16.652  63.712  1.00  0.00    -1.518 OA 
HETATM    6  C   UNL     1     -10.717  16.978  65.917  1.00  0.00    -0.140 A  
HETATM    7  C   UNL     1     -10.457  16.474  67.192  1.00  0.00    -0.300 A  
HETATM    8  H   UNL     1     -11.249  17.544  63.505  1.00  0.00     0.000 HD 
HETATM    9  C   UNL     1     -10.776  15.145  67.511  1.00  0.00    -0.284 A  
HETATM   10  C   UNL     1     -11.419  14.341  66.552  1.00  0.00    -0.368 A  
BRANCH   9  11
HETATM   11  C   UNL     1     -10.398  14.580  68.856  1.00  0.00    -0.237 C  
BRANCH  11  12
HETATM   12  N   UNL     1      -9.339  13.606  68.758  1.00  0.00    -0.397 N  
HETATM   13  C   UNL     1      -8.025  14.007  68.802  1.00  0.00    -0.081 C  
HETATM   14  H   UNL     1      -9.565  12.616  68.656  1.00  0.00     0.000 HD 
HETATM   15  O   UNL     1      -7.681  15.177  68.929  1.00  0.00    -0.135 OA 
BRANCH  13  16
HETATM   16  C   UNL     1      -7.031  12.871  68.661  1.00  0.00    -0.101 C  
BRANCH  16  17
HETATM   17  C   UNL     1      -7.526  11.778  67.713  1.00  0.00    -0.117 C  
BRANCH  17  18
HETATM   18  C   UNL     1      -6.691  10.497  67.822  1.00  0.00    -0.069 C  
BRANCH  18  19
HETATM   19  C   UNL     1      -6.525  10.060  69.277  1.00  0.00    -0.049 C  
BRANCH  19  20
HETATM   20  C   UNL     1      -7.657   9.169  69.703  1.00  0.00    -0.080 C  
HETATM   21  C   UNL     1      -8.605   9.530  70.579  1.00  0.00    -0.231 C  
HETATM   22  C   UNL     1      -9.738   8.632  71.009  1.00  0.00    -0.266 C  
HETATM   23  C   UNL     1     -11.078   9.238  70.592  1.00  0.00    -0.335 C  
HETATM   24  C   UNL     1      -9.691   8.417  72.522  1.00  0.00    -0.359 C  
ENDBRANCH  19  20
ENDBRANCH  18  19
ENDBRANCH  17  18
ENDBRANCH  16  17
ENDBRANCH  13  16
ENDBRANCH  11  12
ENDBRANCH   9  11
ENDBRANCH   2   3
TORSDOF 8
ENDMDL
MODEL      192
REMARK 921   NORMALIZED FREE ENERGY PREDICTED BY IDOCK:   -4.20 KCAL/MOL
REMARK 922        TOTAL FREE ENERGY PREDICTED BY IDOCK:   -7.37 KCAL/MOL
REMARK 923 INTER-LIGAND FREE ENERGY PREDICTED BY IDOCK:   -6.60 KCAL/MOL
REMARK 924 INTRA-LIGAND FREE ENERGY PREDICTED BY IDOCK:   -0.77 KCAL/MOL
REMARK 927      BINDING AFFINITY PREDICTED BY RF-SCORE:    0.00 PKD
ROOT
HETATM    1  C   UNL     1     -10.523  13.442  65.240  1.00  0.00    -0.324 C  
HETATM    2  O   UNL     1     -11.288  12.589  66.083  1.00  0.00    -0.307 OA 
ENDROOT
BRANCH   2   3
HETATM    3  C   UNL     1     -10.635  11.502  66.608  1.00  0.00    -0.253 A  
HETATM    4  C   UNL     1     -10.403  10.459  65.704  1.00  0.00    -0.190 A  
HETATM    5  O   UNL     1     -10.835  10.559  64.410  1.00  0.00    -0.184 OA 
HETATM    6  C   UNL     1      -9.749   9.297  66.087  1.00  0.00    -0.349 A  
HETATM    7  C   UNL     1      -9.346   9.149  67.415  1.00  0.00    -0.161 A  
HETATM    8  H   UNL     1     -10.677   9.851  63.795  1.00  0.00     0.000 HD 
HETATM    9  C   UNL     1      -9.607  10.159  68.355  1.00  0.00    -0.150 A  
HETATM   10  C   UNL     1     -10.224  11.351  67.933  1.00  0.00    -0.201 A  
BRANCH   9  11
HETATM   11  C   UNL     1      -9.261   9.947  69.806  1.00  0.00    -0.227 C  
BRANCH  11  12
HETATM   12  N   UNL     1     -10.188   9.058  70.462  1.00  0.00    -0.204 N  
HETATM   13  C   UNL     1      -9.924   8.594  71.728  1.00  0.00    -0.301 C  
HETATM   14  H   UNL     1     -11.043   8.772  69.984  1.00  0.00     0.000 HD 
HETATM   15  O   UNL     1      -8.919   8.901  72.362  1.00  0.00    -0.383 OA 
BRANCH  13  16
HETATM   16  C   UNL     1     -10.979   7.651  72.270  1.00  0.00    -0.328 C  
BRANCH  16  17
HETATM   17  C   UNL     1     -11.837   7.039  71.162  1.00  0.00    -0.380 C  
BRANCH  17  18
HETATM   18  C   UNL     1     -13.308   7.454  71.275  1.00  0.00    -0.338 C  
BRANCH  18  19
HETATM   19  C   UNL     1     -13.508   8.515  72.356  1.00  0.00    -0.320 C  
BRANCH  19  20
HETATM   20  C   UNL     1     -13.765   9.863  71.745  1.00  0.00    -0.268 C  
HETATM   21  C   UNL     1     -12.990  10.938  71.950  1.00  0.00    -0.502 C  
HETATM   22  C   UNL     1     -13.252  12.292  71.340  1.00  0.00    -0.179 C  
HETATM   23  C   UNL     1     -12.101  12.684  70.414  1.00  0.00    -0.381 C  
HETATM   24  C   UNL     1     -13.438  13.336  72.441  1.00  0.00    -0.670 C  
ENDBRANCH  19  20
ENDBRANCH  18  19
ENDBRANCH  17  18
ENDBRANCH  16  17
ENDBRANCH  13  16
ENDBRANCH  11  12
ENDBRANCH   9  11
ENDBRANCH   2   3
TORSDOF 8
ENDMDL
MODEL      193
REMARK 921   NORMALIZED FREE ENERGY PREDICTED BY IDOCK:   -4.19 KCAL/MOL
REMARK 922        TOTAL FREE ENERGY PREDICTED BY IDOCK:   -7.36 KCAL/MOL
REMARK 923 INTER-LIGAND FREE ENERGY PREDICTED BY IDOCK:   -6.59 KCAL/MOL
REMARK 924 INTRA-LIGAND FREE ENERGY PREDICTED BY IDOCK:   -0.77 KCAL/MOL
REMARK 927      BINDING AFFINITY PREDICTED BY RF-SCORE:    0.00 PKD
ROOT
HETATM    1  C   UNL     1      -9.369   7.598  68.091  1.00  0.00    -0.144 C  
HETATM    2  O   UNL     1     -10.156   8.094  69.167  1.00  0.00    -0.191 OA 
ENDROOT
BRANCH   2   3
HETATM    3  C   UNL     1     -10.703   9.342  69.001  1.00  0.00    -0.187 A  
HETATM    4  C   UNL     1     -11.238   9.911  70.162  1.00  0.00    -0.289 A  
HETATM    5  O   UNL     1     -11.213   9.223  71.343  1.00  0.00    -0.307 OA 
HETATM    6  C   UNL     1     -11.820  11.171  70.152  1.00  0.00    -0.449 A  
HETATM    7  C   UNL     1     -11.906  11.871  68.948  1.00  0.00    -0.366 A  
HETATM    8  H   UNL     1     -11.577   9.609  72.132  1.00  0.00     0.000 HD 
HETATM    9  C   UNL     1     -11.419  11.306  67.759  1.00  0.00    -0.350 A  
HETATM   10  C   UNL     1     -10.786  10.050  67.802  1.00  0.00    -0.333 A  
BRANCH   9  11
HETATM   11  C   UNL     1     -11.609  12.024  66.448  1.00  0.00    -0.313 C  
BRANCH  11  12
HETATM   12  N   UNL     1     -11.414  13.448  66.576  1.00  0.00    -0.327 N  
HETATM   13  C   UNL     1     -10.813  14.157  65.564  1.00  0.00    -0.310 C  
HETATM   14  H   UNL     1     -11.725  13.930  67.420  1.00  0.00     0.000 HD 
HETATM   15  O   UNL     1     -10.421  13.644  64.521  1.00  0.00    -0.430 OA 
BRANCH  13  16
HETATM   16  C   UNL     1     -10.658  15.636  65.859  1.00  0.00    -0.354 C  
BRANCH  16  17
HETATM   17  C   UNL     1     -11.204  16.016  67.236  1.00  0.00    -0.041 C  
BRANCH  17  18
HETATM   18  C   UNL     1     -10.084  16.355  68.226  1.00  0.00    -0.248 C  
BRANCH  18  19
HETATM   19  C   UNL     1     -10.401  17.625  69.015  1.00  0.00    -0.272 C  
BRANCH  19  20
HETATM   20  C   UNL     1      -9.663  18.806  68.450  1.00  0.00    -0.421 C  
HETATM   21  C   UNL     1      -8.444  18.732  67.897  1.00  0.00    -0.316 C  
HETATM   22  C   UNL     1      -7.703  19.920  67.334  1.00  0.00    -0.316 C  
HETATM   23  C   UNL     1      -7.473  19.735  65.835  1.00  0.00    -0.335 C  
HETATM   24  C   UNL     1      -6.373  20.102  68.066  1.00  0.00    -0.294 C  
ENDBRANCH  19  20
ENDBRANCH  18  19
ENDBRANCH  17  18
ENDBRANCH  16  17
ENDBRANCH  13  16
ENDBRANCH  11  12
ENDBRANCH   9  11
ENDBRANCH   2   3
TORSDOF 8
ENDMDL
MODEL      194
REMARK 921   NORMALIZED FREE ENERGY PREDICTED BY IDOCK:   -4.19 KCAL/MOL
REMARK 922        TOTAL FREE ENERGY PREDICTED BY IDOCK:   -7.35 KCAL/MOL
REMARK 923 INTER-LIGAND FREE ENERGY PREDICTED BY IDOCK:   -6.06 KCAL/MOL
REMARK 924 INTRA-LIGAND FREE ENERGY PREDICTED BY IDOCK:   -1.29 KCAL/MOL
REMARK 927      BINDING AFFINITY PREDICTED BY RF-SCORE:    0.00 PKD
ROOT
HETATM    1  C   UNL     1     -14.402   8.560  72.134  1.00  0.00    -0.436 C  
HETATM    2  O   UNL     1     -13.443   9.520  72.560  1.00  0.00    -0.426 OA 
ENDROOT
BRANCH   2   3
HETATM    3  C   UNL     1     -12.693  10.115  71.577  1.00  0.00    -0.436 A  
HETATM    4  C   UNL     1     -12.883  11.494  71.442  1.00  0.00    -0.384 A  
HETATM    5  O   UNL     1     -13.779  12.149  72.241  1.00  0.00    -0.487 OA 
HETATM    6  C   UNL     1     -12.189  12.234  70.494  1.00  0.00    -0.387 A  
HETATM    7  C   UNL     1     -11.309  11.580  69.631  1.00  0.00    -0.329 A  
HETATM    8  H   UNL     1     -13.908  13.086  72.149  1.00  0.00     0.000 HD 
HETATM    9  C   UNL     1     -11.133  10.189  69.713  1.00  0.00    -0.328 A  
HETATM   10  C   UNL     1     -11.806   9.467  70.716  1.00  0.00    -0.350 A  
BRANCH   9  11
HETATM   11  C   UNL     1     -10.260   9.478  68.712  1.00  0.00    -0.198 C  
BRANCH  11  12
HETATM   12  N   UNL     1      -9.259  10.350  68.148  1.00  0.00    -0.143 N  
HETATM   13  C   UNL     1      -8.008  10.423  68.714  1.00  0.00    -0.122 C  
HETATM   14  H   UNL     1      -9.479  10.914  67.327  1.00  0.00     0.000 HD 
HETATM   15  O   UNL     1      -7.674   9.770  69.697  1.00  0.00    -0.103 OA 
BRANCH  13  16
HETATM   16  C   UNL     1      -7.078  11.401  68.024  1.00  0.00    -0.074 C  
BRANCH  16  17
HETATM   17  C   UNL     1      -7.332  12.847  68.453  1.00  0.00    -0.119 C  
BRANCH  17  18
HETATM   18  C   UNL     1      -7.682  13.748  67.263  1.00  0.00    -0.095 C  
BRANCH  18  19
HETATM   19  C   UNL     1      -9.035  13.375  66.658  1.00  0.00    -0.135 C  
BRANCH  19  20
HETATM   20  C   UNL     1     -10.115  14.296  67.149  1.00  0.00    -0.254 C  
HETATM   21  C   UNL     1      -9.902  15.322  67.985  1.00  0.00    -0.216 C  
HETATM   22  C   UNL     1     -10.989  16.243  68.482  1.00  0.00    -0.345 C  
HETATM   23  C   UNL     1     -10.725  17.672  68.007  1.00  0.00    -0.333 C  
HETATM   24  C   UNL     1     -11.066  16.188  70.007  1.00  0.00    -0.363 C  
ENDBRANCH  19  20
ENDBRANCH  18  19
ENDBRANCH  17  18
ENDBRANCH  16  17
ENDBRANCH  13  16
ENDBRANCH  11  12
ENDBRANCH   9  11
ENDBRANCH   2   3
TORSDOF 8
ENDMDL
MODEL      195
REMARK 921   NORMALIZED FREE ENERGY PREDICTED BY IDOCK:   -4.18 KCAL/MOL
REMARK 922        TOTAL FREE ENERGY PREDICTED BY IDOCK:   -7.35 KCAL/MOL
REMARK 923 INTER-LIGAND FREE ENERGY PREDICTED BY IDOCK:   -5.93 KCAL/MOL
REMARK 924 INTRA-LIGAND FREE ENERGY PREDICTED BY IDOCK:   -1.42 KCAL/MOL
REMARK 927      BINDING AFFINITY PREDICTED BY RF-SCORE:    0.00 PKD
ROOT
HETATM    1  C   UNL     1      -7.618   9.738  68.167  1.00  0.00    -0.082 C  
HETATM    2  O   UNL     1      -8.298  10.668  67.333  1.00  0.00    -0.118 OA 
ENDROOT
BRANCH   2   3
HETATM    3  C   UNL     1      -9.487  11.160  67.807  1.00  0.00    -0.168 A  
HETATM    4  C   UNL     1     -10.017  12.229  67.076  1.00  0.00    -0.211 A  
HETATM    5  O   UNL     1      -9.348  12.722  65.990  1.00  0.00    -0.419 OA 
HETATM    6  C   UNL     1     -11.218  12.829  67.431  1.00  0.00    -0.337 A  
HETATM    7  C   UNL     1     -11.893  12.378  68.566  1.00  0.00    -0.352 A  
HETATM    8  H   UNL     1      -9.708  13.448  65.493  1.00  0.00     0.000 HD 
HETATM    9  C   UNL     1     -11.361  11.339  69.346  1.00  0.00    -0.360 A  
HETATM   10  C   UNL     1     -10.171  10.710  68.937  1.00  0.00    -0.216 A  
BRANCH   9  11
HETATM   11  C   UNL     1     -12.044  10.929  70.625  1.00  0.00    -0.371 C  
BRANCH  11  12
HETATM   12  N   UNL     1     -12.481   9.555  70.592  1.00  0.00    -0.496 N  
HETATM   13  C   UNL     1     -11.883   8.619  71.401  1.00  0.00    -0.297 C  
HETATM   14  H   UNL     1     -13.238   9.277  69.966  1.00  0.00     0.000 HD 
HETATM   15  O   UNL     1     -10.973   8.884  72.180  1.00  0.00    -0.362 OA 
BRANCH  13  16
HETATM   16  C   UNL     1     -12.436   7.218  71.232  1.00  0.00    -0.402 C  
BRANCH  16  17
HETATM   17  C   UNL     1     -11.755   6.208  72.157  1.00  0.00    -0.361 C  
BRANCH  17  18
HETATM   18  C   UNL     1     -10.764   5.313  71.404  1.00  0.00    -0.203 C  
BRANCH  18  19
HETATM   19  C   UNL     1      -9.376   5.949  71.337  1.00  0.00    -0.165 C  
BRANCH  19  20
HETATM   20  C   UNL     1      -9.070   6.425  69.945  1.00  0.00    -0.142 C  
HETATM   21  C   UNL     1      -9.871   6.218  68.890  1.00  0.00    -0.155 C  
HETATM   22  C   UNL     1      -9.560   6.694  67.492  1.00  0.00    -0.142 C  
HETATM   23  C   UNL     1     -10.615   7.698  67.031  1.00  0.00    -0.406 C  
HETATM   24  C   UNL     1      -9.495   5.503  66.537  1.00  0.00    -0.161 C  
ENDBRANCH  19  20
ENDBRANCH  18  19
ENDBRANCH  17  18
ENDBRANCH  16  17
ENDBRANCH  13  16
ENDBRANCH  11  12
ENDBRANCH   9  11
ENDBRANCH   2   3
TORSDOF 8
ENDMDL
MODEL      196
REMARK 921   NORMALIZED FREE ENERGY PREDICTED BY IDOCK:   -4.18 KCAL/MOL
REMARK 922        TOTAL FREE ENERGY PREDICTED BY IDOCK:   -7.35 KCAL/MOL
REMARK 923 INTER-LIGAND FREE ENERGY PREDICTED BY IDOCK:   -6.68 KCAL/MOL
REMARK 924 INTRA-LIGAND FREE ENERGY PREDICTED BY IDOCK:   -0.66 KCAL/MOL
REMARK 927      BINDING AFFINITY PREDICTED BY RF-SCORE:    0.00 PKD
ROOT
HETATM    1  C   UNL     1     -11.333  15.521  64.339  1.00  0.00    -0.252 C  
HETATM    2  O   UNL     1     -10.521  16.192  65.294  1.00  0.00    -0.499 OA 
ENDROOT
BRANCH   2   3
HETATM    3  C   UNL     1     -10.788  15.932  66.615  1.00  0.00    -0.213 A  
HETATM    4  C   UNL     1     -10.620  17.021  67.477  1.00  0.00    -0.310 A  
HETATM    5  O   UNL     1     -10.199  18.228  66.991  1.00  0.00    -0.342 OA 
HETATM    6  C   UNL     1     -10.857  16.912  68.841  1.00  0.00    -0.274 A  
HETATM    7  C   UNL     1     -11.236  15.678  69.368  1.00  0.00    -0.313 A  
HETATM    8  H   UNL     1     -10.085  18.968  67.576  1.00  0.00     0.000 HD 
HETATM    9  C   UNL     1     -11.367  14.556  68.534  1.00  0.00    -0.309 A  
HETATM   10  C   UNL     1     -11.173  14.701  67.148  1.00  0.00    -0.349 A  
BRANCH   9  11
HETATM   11  C   UNL     1     -11.676  13.206  69.128  1.00  0.00    -0.325 C  
BRANCH  11  12
HETATM   12  N   UNL     1     -11.587  12.149  68.150  1.00  0.00    -0.317 N  
HETATM   13  C   UNL     1     -10.497  11.313  68.132  1.00  0.00    -0.189 C  
HETATM   14  H   UNL     1     -12.336  12.022  67.469  1.00  0.00     0.000 HD 
HETATM   15  O   UNL     1      -9.564  11.405  68.923  1.00  0.00    -0.170 OA 
BRANCH  13  16
HETATM   16  C   UNL     1     -10.539  10.272  67.032  1.00  0.00    -0.302 C  
BRANCH  16  17
HETATM   17  C   UNL     1      -9.766   9.005  67.399  1.00  0.00    -0.217 C  
BRANCH  17  18
HETATM   18  C   UNL     1     -10.186   7.804  66.543  1.00  0.00    -0.195 C  
BRANCH  18  19
HETATM   19  C   UNL     1     -10.806   6.698  67.396  1.00  0.00    -0.434 C  
BRANCH  19  20
HETATM   20  C   UNL     1     -10.659   7.003  68.860  1.00  0.00    -0.233 C  
HETATM   21  C   UNL     1     -11.429   6.465  69.816  1.00  0.00    -0.468 C  
HETATM   22  C   UNL     1     -11.284   6.776  71.286  1.00  0.00    -0.319 C  
HETATM   23  C   UNL     1     -10.903   5.512  72.056  1.00  0.00    -0.287 C  
HETATM   24  C   UNL     1     -12.586   7.366  71.827  1.00  0.00    -0.367 C  
ENDBRANCH  19  20
ENDBRANCH  18  19
ENDBRANCH  17  18
ENDBRANCH  16  17
ENDBRANCH  13  16
ENDBRANCH  11  12
ENDBRANCH   9  11
ENDBRANCH   2   3
TORSDOF 8
ENDMDL
MODEL      197
REMARK 921   NORMALIZED FREE ENERGY PREDICTED BY IDOCK:   -4.17 KCAL/MOL
REMARK 922        TOTAL FREE ENERGY PREDICTED BY IDOCK:   -7.32 KCAL/MOL
REMARK 923 INTER-LIGAND FREE ENERGY PREDICTED BY IDOCK:   -5.43 KCAL/MOL
REMARK 924 INTRA-LIGAND FREE ENERGY PREDICTED BY IDOCK:   -1.90 KCAL/MOL
REMARK 927      BINDING AFFINITY PREDICTED BY RF-SCORE:    0.00 PKD
ROOT
HETATM    1  C   UNL     1     -14.401   8.166  71.783  1.00  0.00    -0.484 C  
HETATM    2  O   UNL     1     -13.554   9.306  71.714  1.00  0.00    -0.376 OA 
ENDROOT
BRANCH   2   3
HETATM    3  C   UNL     1     -12.205   9.074  71.810  1.00  0.00    -0.364 A  
HETATM    4  C   UNL     1     -11.424   9.718  70.845  1.00  0.00    -0.369 A  
HETATM    5  O   UNL     1     -12.013  10.494  69.886  1.00  0.00    -0.310 OA 
HETATM    6  C   UNL     1     -10.042   9.582  70.819  1.00  0.00    -0.352 A  
HETATM    7  C   UNL     1      -9.422   8.754  71.754  1.00  0.00    -0.363 A  
HETATM    8  H   UNL     1     -11.483  10.932  69.230  1.00  0.00     0.000 HD 
HETATM    9  C   UNL     1     -10.185   8.057  72.705  1.00  0.00    -0.389 A  
HETATM   10  C   UNL     1     -11.578   8.251  72.748  1.00  0.00    -0.326 A  
BRANCH   9  11
HETATM   11  C   UNL     1      -9.518   7.086  73.644  1.00  0.00    -0.204 C  
BRANCH  11  12
HETATM   12  N   UNL     1      -8.151   6.819  73.268  1.00  0.00    -0.106 N  
HETATM   13  C   UNL     1      -7.817   5.623  72.678  1.00  0.00    -0.102 C  
HETATM   14  H   UNL     1      -7.430   7.520  73.440  1.00  0.00     0.000 HD 
HETATM   15  O   UNL     1      -8.633   4.739  72.438  1.00  0.00    -0.117 OA 
BRANCH  13  16
HETATM   16  C   UNL     1      -6.341   5.483  72.365  1.00  0.00    -0.051 C  
BRANCH  16  17
HETATM   17  C   UNL     1      -6.056   5.536  70.864  1.00  0.00    -0.029 C  
BRANCH  17  18
HETATM   18  C   UNL     1      -6.194   6.955  70.300  1.00  0.00    -0.031 C  
BRANCH  18  19
HETATM   19  C   UNL     1      -6.561   6.934  68.817  1.00  0.00    -0.047 C  
BRANCH  19  20
HETATM   20  C   UNL     1      -8.008   7.285  68.617  1.00  0.00    -0.124 C  
HETATM   21  C   UNL     1      -8.991   6.378  68.524  1.00  0.00    -0.125 C  
HETATM   22  C   UNL     1     -10.444   6.731  68.318  1.00  0.00    -0.243 C  
HETATM   23  C   UNL     1     -11.273   6.268  69.515  1.00  0.00    -0.500 C  
HETATM   24  C   UNL     1     -10.959   6.096  67.026  1.00  0.00    -0.414 C  
ENDBRANCH  19  20
ENDBRANCH  18  19
ENDBRANCH  17  18
ENDBRANCH  16  17
ENDBRANCH  13  16
ENDBRANCH  11  12
ENDBRANCH   9  11
ENDBRANCH   2   3
TORSDOF 8
ENDMDL
MODEL      198
REMARK 921   NORMALIZED FREE ENERGY PREDICTED BY IDOCK:   -4.16 KCAL/MOL
REMARK 922        TOTAL FREE ENERGY PREDICTED BY IDOCK:   -7.32 KCAL/MOL
REMARK 923 INTER-LIGAND FREE ENERGY PREDICTED BY IDOCK:   -6.60 KCAL/MOL
REMARK 924 INTRA-LIGAND FREE ENERGY PREDICTED BY IDOCK:   -0.71 KCAL/MOL
REMARK 927      BINDING AFFINITY PREDICTED BY RF-SCORE:    0.00 PKD
ROOT
HETATM    1  C   UNL     1     -11.038  16.178  69.952  1.00  0.00    -0.357 C  
HETATM    2  O   UNL     1     -12.398  15.785  70.087  1.00  0.00    -0.384 OA 
ENDROOT
BRANCH   2   3
HETATM    3  C   UNL     1     -12.626  14.548  70.636  1.00  0.00    -0.352 A  
HETATM    4  C   UNL     1     -13.482  14.542  71.743  1.00  0.00    -0.375 A  
HETATM    5  O   UNL     1     -14.007  15.713  72.216  1.00  0.00    -0.515 OA 
HETATM    6  C   UNL     1     -13.811  13.365  72.401  1.00  0.00    -0.665 A  
HETATM    7  C   UNL     1     -13.246  12.164  71.970  1.00  0.00    -0.496 A  
HETATM    8  H   UNL     1     -14.589  15.709  72.967  1.00  0.00     0.000 HD 
HETATM    9  C   UNL     1     -12.347  12.146  70.892  1.00  0.00    -0.370 A  
HETATM   10  C   UNL     1     -12.069  13.343  70.206  1.00  0.00    -0.419 A  
BRANCH   9  11
HETATM   11  C   UNL     1     -11.663  10.862  70.500  1.00  0.00    -0.342 C  
BRANCH  11  12
HETATM   12  N   UNL     1     -10.637  11.073  69.509  1.00  0.00    -0.409 N  
HETATM   13  C   UNL     1      -9.725  10.082  69.235  1.00  0.00    -0.215 C  
HETATM   14  H   UNL     1     -10.587  11.961  69.009  1.00  0.00     0.000 HD 
HETATM   15  O   UNL     1      -9.729   8.989  69.793  1.00  0.00    -0.166 OA 
BRANCH  13  16
HETATM   16  C   UNL     1      -8.696  10.465  68.190  1.00  0.00    -0.125 C  
BRANCH  16  17
HETATM   17  C   UNL     1      -7.637  11.421  68.739  1.00  0.00    -0.132 C  
BRANCH  17  18
HETATM   18  C   UNL     1      -7.419  12.629  67.820  1.00  0.00    -0.131 C  
BRANCH  18  19
HETATM   19  C   UNL     1      -6.721  13.773  68.556  1.00  0.00    -0.094 C  
BRANCH  19  20
HETATM   20  C   UNL     1      -7.474  15.061  68.383  1.00  0.00    -0.113 C  
HETATM   21  C   UNL     1      -6.931  16.186  67.897  1.00  0.00    -0.150 C  
HETATM   22  C   UNL     1      -7.688  17.481  67.729  1.00  0.00    -0.209 C  
HETATM   23  C   UNL     1      -7.745  17.869  66.252  1.00  0.00    -0.302 C  
HETATM   24  C   UNL     1      -7.024  18.585  68.552  1.00  0.00    -0.284 C  
ENDBRANCH  19  20
ENDBRANCH  18  19
ENDBRANCH  17  18
ENDBRANCH  16  17
ENDBRANCH  13  16
ENDBRANCH  11  12
ENDBRANCH   9  11
ENDBRANCH   2   3
TORSDOF 8
ENDMDL
MODEL      199
REMARK 921   NORMALIZED FREE ENERGY PREDICTED BY IDOCK:   -4.15 KCAL/MOL
REMARK 922        TOTAL FREE ENERGY PREDICTED BY IDOCK:   -7.30 KCAL/MOL
REMARK 923 INTER-LIGAND FREE ENERGY PREDICTED BY IDOCK:   -6.46 KCAL/MOL
REMARK 924 INTRA-LIGAND FREE ENERGY PREDICTED BY IDOCK:   -0.84 KCAL/MOL
REMARK 927      BINDING AFFINITY PREDICTED BY RF-SCORE:    0.00 PKD
ROOT
HETATM    1  C   UNL     1      -7.945  10.055  69.230  1.00  0.00    -0.130 C  
HETATM    2  O   UNL     1      -8.309   8.857  69.906  1.00  0.00    -0.115 OA 
ENDROOT
BRANCH   2   3
HETATM    3  C   UNL     1      -9.472   8.895  70.634  1.00  0.00    -0.214 A  
HETATM    4  C   UNL     1      -9.744   7.737  71.372  1.00  0.00    -0.166 A  
HETATM    5  O   UNL     1      -8.892   6.668  71.319  1.00  0.00    -0.133 OA 
HETATM    6  C   UNL     1     -10.881   7.629  72.161  1.00  0.00    -0.293 A  
HETATM    7  C   UNL     1     -11.791   8.685  72.190  1.00  0.00    -0.447 A  
HETATM    8  H   UNL     1      -9.077   5.883  71.819  1.00  0.00     0.000 HD 
HETATM    9  C   UNL     1     -11.568   9.840  71.424  1.00  0.00    -0.452 A  
HETATM   10  C   UNL     1     -10.384   9.950  70.673  1.00  0.00    -0.258 A  
BRANCH   9  11
HETATM   11  C   UNL     1     -12.607  10.931  71.381  1.00  0.00    -0.403 C  
BRANCH  11  12
HETATM   12  N   UNL     1     -12.202  12.035  70.546  1.00  0.00    -0.361 N  
HETATM   13  C   UNL     1     -12.576  13.318  70.866  1.00  0.00    -0.306 C  
HETATM   14  H   UNL     1     -11.635  11.863  69.716  1.00  0.00     0.000 HD 
HETATM   15  O   UNL     1     -13.252  13.597  71.851  1.00  0.00    -0.360 OA 
BRANCH  13  16
HETATM   16  C   UNL     1     -12.095  14.362  69.879  1.00  0.00    -0.398 C  
BRANCH  16  17
HETATM   17  C   UNL     1     -12.137  13.862  68.435  1.00  0.00    -0.327 C  
BRANCH  17  18
HETATM   18  C   UNL     1     -10.790  14.036  67.724  1.00  0.00    -0.257 C  
BRANCH  18  19
HETATM   19  C   UNL     1     -10.925  14.906  66.475  1.00  0.00    -0.327 C  
BRANCH  19  20
HETATM   20  C   UNL     1     -10.150  16.184  66.624  1.00  0.00    -0.283 C  
HETATM   21  C   UNL     1      -9.751  16.684  67.802  1.00  0.00    -0.240 C  
HETATM   22  C   UNL     1      -8.978  17.971  67.951  1.00  0.00    -0.265 C  
HETATM   23  C   UNL     1      -7.604  17.692  68.558  1.00  0.00    -0.272 C  
HETATM   24  C   UNL     1      -9.761  18.956  68.819  1.00  0.00    -0.454 C  
ENDBRANCH  19  20
ENDBRANCH  18  19
ENDBRANCH  17  18
ENDBRANCH  16  17
ENDBRANCH  13  16
ENDBRANCH  11  12
ENDBRANCH   9  11
ENDBRANCH   2   3
TORSDOF 8
ENDMDL
MODEL      200
REMARK 921   NORMALIZED FREE ENERGY PREDICTED BY IDOCK:   -4.14 KCAL/MOL
REMARK 922        TOTAL FREE ENERGY PREDICTED BY IDOCK:   -7.29 KCAL/MOL
REMARK 923 INTER-LIGAND FREE ENERGY PREDICTED BY IDOCK:   -5.99 KCAL/MOL
REMARK 924 INTRA-LIGAND FREE ENERGY PREDICTED BY IDOCK:   -1.30 KCAL/MOL
REMARK 927      BINDING AFFINITY PREDICTED BY RF-SCORE:    0.00 PKD
ROOT
HETATM    1  C   UNL     1     -10.195  18.006  68.293  1.00  0.00    -0.395 C  
HETATM    2  O   UNL     1     -10.661  17.195  69.365  1.00  0.00    -0.321 OA 
ENDROOT
BRANCH   2   3
HETATM    3  C   UNL     1     -10.704  15.843  69.136  1.00  0.00    -0.259 A  
HETATM    4  C   UNL     1     -11.942  15.241  69.385  1.00  0.00    -0.315 A  
HETATM    5  O   UNL     1     -12.993  15.987  69.843  1.00  0.00    -0.585 OA 
HETATM    6  C   UNL     1     -12.141  13.880  69.193  1.00  0.00    -0.377 A  
HETATM    7  C   UNL     1     -11.070  13.089  68.778  1.00  0.00    -0.311 A  
HETATM    8  H   UNL     1     -13.834  15.579  70.012  1.00  0.00     0.000 HD 
HETATM    9  C   UNL     1      -9.804  13.657  68.565  1.00  0.00    -0.196 A  
HETATM   10  C   UNL     1      -9.639  15.046  68.714  1.00  0.00    -0.220 A  
BRANCH   9  11
HETATM   11  C   UNL     1      -8.631  12.778  68.216  1.00  0.00    -0.166 C  
BRANCH  11  12
HETATM   12  N   UNL     1      -8.796  11.432  68.706  1.00  0.00    -0.322 N  
HETATM   13  C   UNL     1      -7.696  10.651  68.969  1.00  0.00    -0.130 C  
HETATM   14  H   UNL     1      -9.733  11.057  68.858  1.00  0.00     0.000 HD 
HETATM   15  O   UNL     1      -6.542  11.038  68.814  1.00  0.00    -0.054 OA 
BRANCH  13  16
HETATM   16  C   UNL     1      -8.034   9.255  69.452  1.00  0.00    -0.099 C  
BRANCH  16  17
HETATM   17  C   UNL     1      -9.542   9.002  69.492  1.00  0.00    -0.165 C  
BRANCH  17  18
HETATM   18  C   UNL     1      -9.972   7.919  68.496  1.00  0.00    -0.200 C  
BRANCH  18  19
HETATM   19  C   UNL     1      -9.290   8.103  67.141  1.00  0.00    -0.183 C  
BRANCH  19  20
HETATM   20  C   UNL     1     -10.124   8.960  66.232  1.00  0.00    -0.284 C  
HETATM   21  C   UNL     1      -9.649  10.014  65.553  1.00  0.00    -0.328 C  
HETATM   22  C   UNL     1     -10.488  10.877  64.644  1.00  0.00    -0.384 C  
HETATM   23  C   UNL     1      -9.973  10.786  63.208  1.00  0.00    -0.369 C  
HETATM   24  C   UNL     1     -10.471  12.325  65.133  1.00  0.00    -0.320 C  
ENDBRANCH  19  20
ENDBRANCH  18  19
ENDBRANCH  17  18
ENDBRANCH  16  17
ENDBRANCH  13  16
ENDBRANCH  11  12
ENDBRANCH   9  11
ENDBRANCH   2   3
TORSDOF 8
ENDMDL
MODEL      201
REMARK 921   NORMALIZED FREE ENERGY PREDICTED BY IDOCK:   -4.14 KCAL/MOL
REMARK 922        TOTAL FREE ENERGY PREDICTED BY IDOCK:   -7.29 KCAL/MOL
REMARK 923 INTER-LIGAND FREE ENERGY PREDICTED BY IDOCK:   -5.88 KCAL/MOL
REMARK 924 INTRA-LIGAND FREE ENERGY PREDICTED BY IDOCK:   -1.41 KCAL/MOL
REMARK 927      BINDING AFFINITY PREDICTED BY RF-SCORE:    0.00 PKD
ROOT
HETATM    1  C   UNL     1      -9.937  15.663  65.950  1.00  0.00    -0.351 C  
HETATM    2  O   UNL     1     -11.174  14.967  65.848  1.00  0.00    -0.341 OA 
ENDROOT
BRANCH   2   3
HETATM    3  C   UNL     1     -11.280  13.800  66.561  1.00  0.00    -0.312 A  
HETATM    4  C   UNL     1     -11.799  13.941  67.852  1.00  0.00    -0.378 A  
HETATM    5  O   UNL     1     -12.138  15.177  68.329  1.00  0.00    -0.543 OA 
HETATM    6  C   UNL     1     -11.971  12.848  68.691  1.00  0.00    -0.282 A  
HETATM    7  C   UNL     1     -11.582  11.584  68.248  1.00  0.00    -0.378 A  
HETATM    8  H   UNL     1     -12.491  15.274  69.205  1.00  0.00     0.000 HD 
HETATM    9  C   UNL     1     -11.016  11.418  66.974  1.00  0.00    -0.347 A  
HETATM   10  C   UNL     1     -10.900  12.531  66.121  1.00  0.00    -0.304 A  
BRANCH   9  11
HETATM   11  C   UNL     1     -10.505  10.067  66.544  1.00  0.00    -0.153 C  
BRANCH  11  12
HETATM   12  N   UNL     1     -10.952   9.013  67.422  1.00  0.00    -0.415 N  
HETATM   13  C   UNL     1     -10.288   7.810  67.453  1.00  0.00    -0.284 C  
HETATM   14  H   UNL     1     -11.763   9.161  68.022  1.00  0.00     0.000 HD 
HETATM   15  O   UNL     1      -9.303   7.566  66.763  1.00  0.00    -0.149 OA 
BRANCH  13  16
HETATM   16  C   UNL     1     -10.893   6.799  68.406  1.00  0.00    -0.284 C  
BRANCH  16  17
HETATM   17  C   UNL     1      -9.981   6.504  69.597  1.00  0.00    -0.186 C  
BRANCH  17  18
HETATM   18  C   UNL     1     -10.362   7.328  70.833  1.00  0.00    -0.210 C  
BRANCH  18  19
HETATM   19  C   UNL     1      -9.206   8.216  71.292  1.00  0.00    -0.193 C  
BRANCH  19  20
HETATM   20  C   UNL     1      -9.035   9.393  70.374  1.00  0.00    -0.294 C  
HETATM   21  C   UNL     1      -7.879   9.717  69.779  1.00  0.00    -0.144 C  
HETATM   22  C   UNL     1      -7.708  10.902  68.861  1.00  0.00    -0.135 C  
HETATM   23  C   UNL     1      -7.326  10.431  67.459  1.00  0.00    -0.092 C  
HETATM   24  C   UNL     1      -6.646  11.848  69.420  1.00  0.00    -0.108 C  
ENDBRANCH  19  20
ENDBRANCH  18  19
ENDBRANCH  17  18
ENDBRANCH  16  17
ENDBRANCH  13  16
ENDBRANCH  11  12
ENDBRANCH   9  11
ENDBRANCH   2   3
TORSDOF 8
ENDMDL
MODEL      202
REMARK 921   NORMALIZED FREE ENERGY PREDICTED BY IDOCK:   -4.13 KCAL/MOL
REMARK 922        TOTAL FREE ENERGY PREDICTED BY IDOCK:   -7.26 KCAL/MOL
REMARK 923 INTER-LIGAND FREE ENERGY PREDICTED BY IDOCK:   -6.17 KCAL/MOL
REMARK 924 INTRA-LIGAND FREE ENERGY PREDICTED BY IDOCK:   -1.09 KCAL/MOL
REMARK 927      BINDING AFFINITY PREDICTED BY RF-SCORE:    0.00 PKD
ROOT
HETATM    1  C   UNL     1      -9.882   4.509  69.738  1.00  0.00    -0.225 C  
HETATM    2  O   UNL     1     -10.822   5.180  68.909  1.00  0.00     0.006 OA 
ENDROOT
BRANCH   2   3
HETATM    3  C   UNL     1     -10.531   6.479  68.579  1.00  0.00    -0.220 A  
HETATM    4  C   UNL     1     -10.776   6.819  67.244  1.00  0.00    -0.353 A  
HETATM    5  O   UNL     1     -11.252   5.881  66.369  1.00  0.00    -0.749 OA 
HETATM    6  C   UNL     1     -10.535   8.098  66.763  1.00  0.00    -0.316 A  
HETATM    7  C   UNL     1     -10.000   9.058  67.622  1.00  0.00    -0.252 A  
HETATM    8  H   UNL     1     -11.420   6.111  65.463  1.00  0.00     0.000 HD 
HETATM    9  C   UNL     1      -9.699   8.733  68.955  1.00  0.00    -0.174 A  
HETATM   10  C   UNL     1     -10.001   7.445  69.435  1.00  0.00    -0.176 A  
BRANCH   9  11
HETATM   11  C   UNL     1      -9.026   9.745  69.845  1.00  0.00    -0.229 C  
BRANCH  11  12
HETATM   12  N   UNL     1      -8.481  10.851  69.096  1.00  0.00    -0.327 N  
HETATM   13  C   UNL     1      -7.275  11.403  69.457  1.00  0.00     0.025 C  
HETATM   14  H   UNL     1      -8.992  11.223  68.296  1.00  0.00     0.000 HD 
HETATM   15  O   UNL     1      -6.606  11.002  70.403  1.00  0.00    -0.273 OA 
BRANCH  13  16
HETATM   16  C   UNL     1      -6.851  12.571  68.589  1.00  0.00    -0.088 C  
BRANCH  16  17
HETATM   17  C   UNL     1      -7.882  12.898  67.508  1.00  0.00    -0.177 C  
BRANCH  17  18
HETATM   18  C   UNL     1      -8.260  14.384  67.503  1.00  0.00    -0.201 C  
BRANCH  18  19
HETATM   19  C   UNL     1      -9.400  14.667  66.526  1.00  0.00    -0.313 C  
BRANCH  19  20
HETATM   20  C   UNL     1     -10.086  13.394  66.116  1.00  0.00    -0.304 C  
HETATM   21  C   UNL     1     -10.348  13.062  64.844  1.00  0.00    -0.343 C  
HETATM   22  C   UNL     1     -11.041  11.785  64.435  1.00  0.00    -0.396 C  
HETATM   23  C   UNL     1     -10.106  10.929  63.582  1.00  0.00    -0.414 C  
HETATM   24  C   UNL     1     -12.324  12.108  63.670  1.00  0.00    -0.673 C  
ENDBRANCH  19  20
ENDBRANCH  18  19
ENDBRANCH  17  18
ENDBRANCH  16  17
ENDBRANCH  13  16
ENDBRANCH  11  12
ENDBRANCH   9  11
ENDBRANCH   2   3
TORSDOF 8
ENDMDL
MODEL      203
REMARK 921   NORMALIZED FREE ENERGY PREDICTED BY IDOCK:   -4.11 KCAL/MOL
REMARK 922        TOTAL FREE ENERGY PREDICTED BY IDOCK:   -7.24 KCAL/MOL
REMARK 923 INTER-LIGAND FREE ENERGY PREDICTED BY IDOCK:   -7.03 KCAL/MOL
REMARK 924 INTRA-LIGAND FREE ENERGY PREDICTED BY IDOCK:   -0.21 KCAL/MOL
REMARK 927      BINDING AFFINITY PREDICTED BY RF-SCORE:    0.00 PKD
ROOT
HETATM    1  C   UNL     1     -10.049  13.609  68.592  1.00  0.00    -0.180 C  
HETATM    2  O   UNL     1     -11.335  13.012  68.478  1.00  0.00    -0.248 OA 
ENDROOT
BRANCH   2   3
HETATM    3  C   UNL     1     -12.008  12.779  69.651  1.00  0.00    -0.288 A  
HETATM    4  C   UNL     1     -12.525  13.920  70.272  1.00  0.00    -0.314 A  
HETATM    5  O   UNL     1     -12.329  15.156  69.720  1.00  0.00    -0.462 OA 
HETATM    6  C   UNL     1     -13.235  13.842  71.463  1.00  0.00    -0.417 A  
HETATM    7  C   UNL     1     -13.403  12.599  72.074  1.00  0.00    -0.555 A  
HETATM    8  H   UNL     1     -12.680  15.932  70.141  1.00  0.00     0.000 HD 
HETATM    9  C   UNL     1     -12.854  11.442  71.498  1.00  0.00    -0.508 A  
HETATM   10  C   UNL     1     -12.185  11.537  70.264  1.00  0.00    -0.415 A  
BRANCH   9  11
HETATM   11  C   UNL     1     -12.953  10.121  72.217  1.00  0.00    -0.222 C  
BRANCH  11  12
HETATM   12  N   UNL     1     -12.839   9.002  71.314  1.00  0.00    -0.458 N  
HETATM   13  C   UNL     1     -12.069   7.915  71.654  1.00  0.00    -0.299 C  
HETATM   14  H   UNL     1     -13.333   9.017  70.421  1.00  0.00     0.000 HD 
HETATM   15  O   UNL     1     -11.454   7.829  72.711  1.00  0.00    -0.374 OA 
BRANCH  13  16
HETATM   16  C   UNL     1     -12.031   6.834  70.592  1.00  0.00    -0.418 C  
BRANCH  16  17
HETATM   17  C   UNL     1     -10.823   6.971  69.665  1.00  0.00    -0.275 C  
BRANCH  17  18
HETATM   18  C   UNL     1     -10.524   5.670  68.910  1.00  0.00    -0.310 C  
BRANCH  18  19
HETATM   19  C   UNL     1      -9.173   5.084  69.318  1.00  0.00    -0.155 C  
BRANCH  19  20
HETATM   20  C   UNL     1      -9.119   4.838  70.800  1.00  0.00    -0.178 C  
HETATM   21  C   UNL     1     -10.095   4.237  71.494  1.00  0.00    -0.205 C  
HETATM   22  C   UNL     1     -10.042   3.995  72.983  1.00  0.00    -0.212 C  
HETATM   23  C   UNL     1     -10.062   2.495  73.273  1.00  0.00    -0.190 C  
HETATM   24  C   UNL     1     -11.216   4.693  73.669  1.00  0.00    -0.347 C  
ENDBRANCH  19  20
ENDBRANCH  18  19
ENDBRANCH  17  18
ENDBRANCH  16  17
ENDBRANCH  13  16
ENDBRANCH  11  12
ENDBRANCH   9  11
ENDBRANCH   2   3
TORSDOF 8
ENDMDL
MODEL      204
REMARK 921   NORMALIZED FREE ENERGY PREDICTED BY IDOCK:   -4.11 KCAL/MOL
REMARK 922        TOTAL FREE ENERGY PREDICTED BY IDOCK:   -7.24 KCAL/MOL
REMARK 923 INTER-LIGAND FREE ENERGY PREDICTED BY IDOCK:   -6.32 KCAL/MOL
REMARK 924 INTRA-LIGAND FREE ENERGY PREDICTED BY IDOCK:   -0.92 KCAL/MOL
REMARK 927      BINDING AFFINITY PREDICTED BY RF-SCORE:    0.00 PKD
ROOT
HETATM    1  C   UNL     1      -9.777  10.912  68.676  1.00  0.00    -0.185 C  
HETATM    2  O   UNL     1     -10.931  11.744  68.659  1.00  0.00    -0.199 OA 
ENDROOT
BRANCH   2   3
HETATM    3  C   UNL     1     -11.749  11.679  69.758  1.00  0.00    -0.352 A  
HETATM    4  C   UNL     1     -11.989  12.905  70.389  1.00  0.00    -0.249 A  
HETATM    5  O   UNL     1     -11.408  14.050  69.918  1.00  0.00    -0.396 OA 
HETATM    6  C   UNL     1     -12.802  12.998  71.511  1.00  0.00    -0.386 A  
HETATM    7  C   UNL     1     -13.363  11.837  72.042  1.00  0.00    -0.417 A  
HETATM    8  H   UNL     1     -11.571  14.882  70.346  1.00  0.00     0.000 HD 
HETATM    9  C   UNL     1     -13.102  10.587  71.458  1.00  0.00    -0.532 A  
HETATM   10  C   UNL     1     -12.319  10.522  70.291  1.00  0.00    -0.377 A  
BRANCH   9  11
HETATM   11  C   UNL     1     -13.629   9.329  72.099  1.00  0.00    -0.471 C  
BRANCH  11  12
HETATM   12  N   UNL     1     -12.568   8.495  72.609  1.00  0.00    -0.572 N  
HETATM   13  C   UNL     1     -12.185   7.367  71.924  1.00  0.00    -0.310 C  
HETATM   14  H   UNL     1     -12.100   8.744  73.481  1.00  0.00     0.000 HD 
HETATM   15  O   UNL     1     -12.699   7.013  70.868  1.00  0.00    -0.334 OA 
BRANCH  13  16
HETATM   16  C   UNL     1     -11.077   6.584  72.599  1.00  0.00    -0.291 C  
BRANCH  16  17
HETATM   17  C   UNL     1     -10.141   7.481  73.410  1.00  0.00    -0.393 C  
BRANCH  17  18
HETATM   18  C   UNL     1      -9.233   8.329  72.512  1.00  0.00    -0.339 C  
BRANCH  18  19
HETATM   19  C   UNL     1      -7.756   8.028  72.765  1.00  0.00    -0.169 C  
BRANCH  19  20
HETATM   20  C   UNL     1      -7.464   6.568  72.566  1.00  0.00    -0.090 C  
HETATM   21  C   UNL     1      -7.512   5.950  71.377  1.00  0.00    -0.096 C  
HETATM   22  C   UNL     1      -7.223   4.483  71.179  1.00  0.00    -0.044 C  
HETATM   23  C   UNL     1      -6.002   4.304  70.278  1.00  0.00    -0.018 C  
HETATM   24  C   UNL     1      -8.443   3.785  70.579  1.00  0.00    -0.100 C  
ENDBRANCH  19  20
ENDBRANCH  18  19
ENDBRANCH  17  18
ENDBRANCH  16  17
ENDBRANCH  13  16
ENDBRANCH  11  12
ENDBRANCH   9  11
ENDBRANCH   2   3
TORSDOF 8
ENDMDL
MODEL      205
REMARK 921   NORMALIZED FREE ENERGY PREDICTED BY IDOCK:   -4.10 KCAL/MOL
REMARK 922        TOTAL FREE ENERGY PREDICTED BY IDOCK:   -7.23 KCAL/MOL
REMARK 923 INTER-LIGAND FREE ENERGY PREDICTED BY IDOCK:   -6.37 KCAL/MOL
REMARK 924 INTRA-LIGAND FREE ENERGY PREDICTED BY IDOCK:   -0.86 KCAL/MOL
REMARK 927      BINDING AFFINITY PREDICTED BY RF-SCORE:    0.00 PKD
ROOT
HETATM    1  C   UNL     1     -10.086   7.277  73.774  1.00  0.00    -0.329 C  
HETATM    2  O   UNL     1      -9.025   6.899  72.905  1.00  0.00    -0.126 OA 
ENDROOT
BRANCH   2   3
HETATM    3  C   UNL     1      -9.370   6.150  71.808  1.00  0.00    -0.151 A  
HETATM    4  C   UNL     1      -8.945   4.818  71.846  1.00  0.00    -0.127 A  
HETATM    5  O   UNL     1      -8.225   4.353  72.911  1.00  0.00    -0.093 OA 
HETATM    6  C   UNL     1      -9.224   3.937  70.810  1.00  0.00    -0.198 A  
HETATM    7  C   UNL     1      -9.911   4.401  69.689  1.00  0.00    -0.209 A  
HETATM    8  H   UNL     1      -7.936   3.448  72.937  1.00  0.00     0.000 HD 
HETATM    9  C   UNL     1     -10.308   5.745  69.602  1.00  0.00    -0.330 A  
HETATM   10  C   UNL     1     -10.063   6.607  70.686  1.00  0.00    -0.205 A  
BRANCH   9  11
HETATM   11  C   UNL     1     -10.958   6.261  68.344  1.00  0.00    -0.325 C  
BRANCH  11  12
HETATM   12  N   UNL     1     -11.002   7.702  68.307  1.00  0.00    -0.441 N  
HETATM   13  C   UNL     1     -10.399   8.385  67.278  1.00  0.00    -0.299 C  
HETATM   14  H   UNL     1     -11.481   8.216  69.046  1.00  0.00     0.000 HD 
HETATM   15  O   UNL     1      -9.811   7.832  66.355  1.00  0.00    -0.207 OA 
BRANCH  13  16
HETATM   16  C   UNL     1     -10.510   9.893  67.394  1.00  0.00    -0.325 C  
BRANCH  16  17
HETATM   17  C   UNL     1     -10.375  10.377  68.838  1.00  0.00    -0.227 C  
BRANCH  17  18
HETATM   18  C   UNL     1     -11.508  11.331  69.234  1.00  0.00    -0.369 C  
BRANCH  18  19
HETATM   19  C   UNL     1     -11.202  12.768  68.814  1.00  0.00    -0.327 C  
BRANCH  19  20
HETATM   20  C   UNL     1     -12.018  13.163  67.616  1.00  0.00    -0.363 C  
HETATM   21  C   UNL     1     -11.554  13.154  66.359  1.00  0.00    -0.394 C  
HETATM   22  C   UNL     1     -12.373  13.555  65.157  1.00  0.00    -0.488 C  
HETATM   23  C   UNL     1     -12.538  12.366  64.211  1.00  0.00    -0.494 C  
HETATM   24  C   UNL     1     -11.707  14.728  64.438  1.00  0.00    -0.347 C  
ENDBRANCH  19  20
ENDBRANCH  18  19
ENDBRANCH  17  18
ENDBRANCH  16  17
ENDBRANCH  13  16
ENDBRANCH  11  12
ENDBRANCH   9  11
ENDBRANCH   2   3
TORSDOF 8
ENDMDL
MODEL      206
REMARK 921   NORMALIZED FREE ENERGY PREDICTED BY IDOCK:   -4.09 KCAL/MOL
REMARK 922        TOTAL FREE ENERGY PREDICTED BY IDOCK:   -7.21 KCAL/MOL
REMARK 923 INTER-LIGAND FREE ENERGY PREDICTED BY IDOCK:   -6.44 KCAL/MOL
REMARK 924 INTRA-LIGAND FREE ENERGY PREDICTED BY IDOCK:   -0.77 KCAL/MOL
REMARK 927      BINDING AFFINITY PREDICTED BY RF-SCORE:    0.00 PKD
ROOT
HETATM    1  C   UNL     1      -9.928   9.533  65.939  1.00  0.00    -0.272 C  
HETATM    2  O   UNL     1      -9.152   8.516  66.561  1.00  0.00    -0.154 OA 
ENDROOT
BRANCH   2   3
HETATM    3  C   UNL     1      -9.788   7.756  67.510  1.00  0.00    -0.171 A  
HETATM    4  C   UNL     1     -10.030   6.429  67.140  1.00  0.00    -0.155 A  
HETATM    5  O   UNL     1      -9.659   5.979  65.903  1.00  0.00    -0.351 OA 
HETATM    6  C   UNL     1     -10.660   5.538  67.998  1.00  0.00    -0.213 A  
HETATM    7  C   UNL     1     -11.095   5.986  69.245  1.00  0.00    -0.424 A  
HETATM    8  H   UNL     1      -9.823   5.078  65.650  1.00  0.00     0.000 HD 
HETATM    9  C   UNL     1     -10.908   7.325  69.625  1.00  0.00    -0.238 A  
HETATM   10  C   UNL     1     -10.220   8.197  68.762  1.00  0.00    -0.221 A  
BRANCH   9  11
HETATM   11  C   UNL     1     -11.472   7.825  70.930  1.00  0.00    -0.279 C  
BRANCH  11  12
HETATM   12  N   UNL     1     -11.721   9.246  70.906  1.00  0.00    -0.288 N  
HETATM   13  C   UNL     1     -12.746   9.781  71.648  1.00  0.00    -0.422 C  
HETATM   14  H   UNL     1     -11.133   9.855  70.336  1.00  0.00     0.000 HD 
HETATM   15  O   UNL     1     -13.487   9.109  72.358  1.00  0.00    -0.442 OA 
BRANCH  13  16
HETATM   16  C   UNL     1     -12.894  11.282  71.497  1.00  0.00    -0.519 C  
BRANCH  16  17
HETATM   17  C   UNL     1     -12.036  11.841  70.362  1.00  0.00    -0.440 C  
BRANCH  17  18
HETATM   18  C   UNL     1     -12.104  13.371  70.287  1.00  0.00    -0.419 C  
BRANCH  18  19
HETATM   19  C   UNL     1     -12.229  13.855  68.842  1.00  0.00    -0.257 C  
BRANCH  19  20
HETATM   20  C   UNL     1     -10.925  14.415  68.349  1.00  0.00    -0.261 C  
HETATM   21  C   UNL     1     -10.102  15.163  69.095  1.00  0.00    -0.245 C  
HETATM   22  C   UNL     1      -8.795  15.729  68.597  1.00  0.00    -0.199 C  
HETATM   23  C   UNL     1      -7.630  15.149  69.398  1.00  0.00    -0.210 C  
HETATM   24  C   UNL     1      -8.812  17.254  68.697  1.00  0.00    -0.261 C  
ENDBRANCH  19  20
ENDBRANCH  18  19
ENDBRANCH  17  18
ENDBRANCH  16  17
ENDBRANCH  13  16
ENDBRANCH  11  12
ENDBRANCH   9  11
ENDBRANCH   2   3
TORSDOF 8
ENDMDL
MODEL      207
REMARK 921   NORMALIZED FREE ENERGY PREDICTED BY IDOCK:   -4.08 KCAL/MOL
REMARK 922        TOTAL FREE ENERGY PREDICTED BY IDOCK:   -7.20 KCAL/MOL
REMARK 923 INTER-LIGAND FREE ENERGY PREDICTED BY IDOCK:   -5.56 KCAL/MOL
REMARK 924 INTRA-LIGAND FREE ENERGY PREDICTED BY IDOCK:   -1.64 KCAL/MOL
REMARK 927      BINDING AFFINITY PREDICTED BY RF-SCORE:    0.00 PKD
ROOT
HETATM    1  C   UNL     1      -7.378   9.278  68.535  1.00  0.00    -0.076 C  
HETATM    2  O   UNL     1      -8.254  10.042  69.355  1.00  0.00    -0.127 OA 
ENDROOT
BRANCH   2   3
HETATM    3  C   UNL     1      -9.328  10.624  68.728  1.00  0.00    -0.180 A  
HETATM    4  C   UNL     1     -10.495  10.690  69.497  1.00  0.00    -0.204 A  
HETATM    5  O   UNL     1     -10.517  10.178  70.765  1.00  0.00    -0.382 OA 
HETATM    6  C   UNL     1     -11.661  11.256  69.000  1.00  0.00    -0.386 A  
HETATM    7  C   UNL     1     -11.679  11.737  67.691  1.00  0.00    -0.320 A  
HETATM    8  H   UNL     1     -11.309  10.223  71.287  1.00  0.00     0.000 HD 
HETATM    9  C   UNL     1     -10.536  11.641  66.880  1.00  0.00    -0.276 A  
HETATM   10  C   UNL     1      -9.350  11.112  67.422  1.00  0.00    -0.172 A  
BRANCH   9  11
HETATM   11  C   UNL     1     -10.596  12.069  65.437  1.00  0.00    -0.278 C  
BRANCH  11  12
HETATM   12  N   UNL     1     -10.373  13.486  65.280  1.00  0.00    -0.323 N  
HETATM   13  C   UNL     1     -11.431  14.330  65.042  1.00  0.00    -0.364 C  
HETATM   14  H   UNL     1      -9.427  13.862  65.347  1.00  0.00     0.000 HD 
HETATM   15  O   UNL     1     -12.593  13.947  64.955  1.00  0.00    -0.590 OA 
BRANCH  13  16
HETATM   16  C   UNL     1     -11.032  15.783  64.876  1.00  0.00    -0.443 C  
BRANCH  16  17
HETATM   17  C   UNL     1      -9.846  16.165  65.761  1.00  0.00    -0.354 C  
BRANCH  17  18
HETATM   18  C   UNL     1     -10.294  16.766  67.099  1.00  0.00    -0.297 C  
BRANCH  18  19
HETATM   19  C   UNL     1      -9.997  15.822  68.263  1.00  0.00    -0.221 C  
BRANCH  19  20
HETATM   20  C   UNL     1      -8.552  15.411  68.267  1.00  0.00    -0.158 C  
HETATM   21  C   UNL     1      -8.131  14.156  68.477  1.00  0.00    -0.143 C  
HETATM   22  C   UNL     1      -6.679  13.747  68.485  1.00  0.00    -0.094 C  
HETATM   23  C   UNL     1      -6.406  12.754  67.356  1.00  0.00    -0.139 C  
HETATM   24  C   UNL     1      -6.314  13.137  69.839  1.00  0.00    -0.038 C  
ENDBRANCH  19  20
ENDBRANCH  18  19
ENDBRANCH  17  18
ENDBRANCH  16  17
ENDBRANCH  13  16
ENDBRANCH  11  12
ENDBRANCH   9  11
ENDBRANCH   2   3
TORSDOF 8
ENDMDL
MODEL      208
REMARK 921   NORMALIZED FREE ENERGY PREDICTED BY IDOCK:   -4.08 KCAL/MOL
REMARK 922        TOTAL FREE ENERGY PREDICTED BY IDOCK:   -7.20 KCAL/MOL
REMARK 923 INTER-LIGAND FREE ENERGY PREDICTED BY IDOCK:   -6.48 KCAL/MOL
REMARK 924 INTRA-LIGAND FREE ENERGY PREDICTED BY IDOCK:   -0.72 KCAL/MOL
REMARK 927      BINDING AFFINITY PREDICTED BY RF-SCORE:    0.00 PKD
ROOT
HETATM    1  C   UNL     1      -8.702   4.883  68.483  1.00  0.00    -0.097 C  
HETATM    2  O   UNL     1      -9.444   4.101  69.411  1.00  0.00    -0.160 OA 
ENDROOT
BRANCH   2   3
HETATM    3  C   UNL     1     -10.110   4.787  70.395  1.00  0.00    -0.231 A  
HETATM    4  C   UNL     1      -9.999   4.236  71.677  1.00  0.00    -0.180 A  
HETATM    5  O   UNL     1      -9.286   3.086  71.875  1.00  0.00    -0.102 OA 
HETATM    6  C   UNL     1     -10.614   4.822  72.775  1.00  0.00    -0.272 A  
HETATM    7  C   UNL     1     -11.390   5.966  72.590  1.00  0.00    -0.337 A  
HETATM    8  H   UNL     1      -9.211   2.712  72.745  1.00  0.00     0.000 HD 
HETATM    9  C   UNL     1     -11.558   6.514  71.308  1.00  0.00    -0.381 A  
HETATM   10  C   UNL     1     -10.883   5.935  70.218  1.00  0.00    -0.391 A  
BRANCH   9  11
HETATM   11  C   UNL     1     -12.480   7.688  71.103  1.00  0.00    -0.247 C  
BRANCH  11  12
HETATM   12  N   UNL     1     -11.873   8.723  70.304  1.00  0.00    -0.466 N  
HETATM   13  C   UNL     1     -11.961  10.038  70.693  1.00  0.00    -0.313 C  
HETATM   14  H   UNL     1     -11.375   8.479  69.447  1.00  0.00     0.000 HD 
HETATM   15  O   UNL     1     -12.538  10.403  71.713  1.00  0.00    -0.408 OA 
BRANCH  13  16
HETATM   16  C   UNL     1     -11.294  11.008  69.738  1.00  0.00    -0.366 C  
BRANCH  16  17
HETATM   17  C   UNL     1     -10.413  10.299  68.709  1.00  0.00    -0.222 C  
BRANCH  17  18
HETATM   18  C   UNL     1      -9.688  11.288  67.790  1.00  0.00    -0.184 C  
BRANCH  18  19
HETATM   19  C   UNL     1      -9.165  10.601  66.529  1.00  0.00    -0.187 C  
BRANCH  19  20
HETATM   20  C   UNL     1      -9.697  11.269  65.293  1.00  0.00    -0.280 C  
HETATM   21  C   UNL     1     -10.922  11.806  65.201  1.00  0.00    -0.351 C  
HETATM   22  C   UNL     1     -11.457  12.472  63.958  1.00  0.00    -0.476 C  
HETATM   23  C   UNL     1     -11.749  13.947  64.235  1.00  0.00    -0.406 C  
HETATM   24  C   UNL     1     -12.718  11.753  63.480  1.00  0.00    -0.428 C  
ENDBRANCH  19  20
ENDBRANCH  18  19
ENDBRANCH  17  18
ENDBRANCH  16  17
ENDBRANCH  13  16
ENDBRANCH  11  12
ENDBRANCH   9  11
ENDBRANCH   2   3
TORSDOF 8
ENDMDL
MODEL      209
REMARK 921   NORMALIZED FREE ENERGY PREDICTED BY IDOCK:   -4.08 KCAL/MOL
REMARK 922        TOTAL FREE ENERGY PREDICTED BY IDOCK:   -7.20 KCAL/MOL
REMARK 923 INTER-LIGAND FREE ENERGY PREDICTED BY IDOCK:   -5.61 KCAL/MOL
REMARK 924 INTRA-LIGAND FREE ENERGY PREDICTED BY IDOCK:   -1.59 KCAL/MOL
REMARK 927      BINDING AFFINITY PREDICTED BY RF-SCORE:    0.00 PKD
ROOT
HETATM    1  C   UNL     1      -9.083   8.103  71.709  1.00  0.00    -0.174 C  
HETATM    2  O   UNL     1      -8.499   8.135  70.412  1.00  0.00    -0.124 OA 
ENDROOT
BRANCH   2   3
HETATM    3  C   UNL     1      -9.035   9.031  69.522  1.00  0.00    -0.147 A  
HETATM    4  C   UNL     1     -10.089   8.534  68.747  1.00  0.00    -0.196 A  
HETATM    5  O   UNL     1     -10.501   7.239  68.891  1.00  0.00    -0.201 OA 
HETATM    6  C   UNL     1     -10.734   9.325  67.806  1.00  0.00    -0.270 A  
HETATM    7  C   UNL     1     -10.297  10.634  67.603  1.00  0.00    -0.246 A  
HETATM    8  H   UNL     1     -11.217   6.901  68.366  1.00  0.00     0.000 HD 
HETATM    9  C   UNL     1      -9.211  11.144  68.332  1.00  0.00    -0.175 A  
HETATM   10  C   UNL     1      -8.606  10.343  69.318  1.00  0.00    -0.159 A  
BRANCH   9  11
HETATM   11  C   UNL     1      -8.681  12.523  68.032  1.00  0.00    -0.186 C  
BRANCH  11  12
HETATM   12  N   UNL     1      -9.503  13.225  67.077  1.00  0.00    -0.235 N  
HETATM   13  C   UNL     1     -10.375  14.199  67.500  1.00  0.00    -0.248 C  
HETATM   14  H   UNL     1      -9.436  12.998  66.085  1.00  0.00     0.000 HD 
HETATM   15  O   UNL     1     -10.503  14.526  68.675  1.00  0.00    -0.234 OA 
BRANCH  13  16
HETATM   16  C   UNL     1     -11.184  14.826  66.382  1.00  0.00    -0.342 C  
BRANCH  16  17
HETATM   17  C   UNL     1     -10.864  14.213  65.018  1.00  0.00    -0.408 C  
BRANCH  17  18
HETATM   18  C   UNL     1     -12.032  13.385  64.469  1.00  0.00    -0.452 C  
BRANCH  18  19
HETATM   19  C   UNL     1     -11.565  12.401  63.397  1.00  0.00    -0.541 C  
BRANCH  19  20
HETATM   20  C   UNL     1     -10.790  11.269  64.009  1.00  0.00    -0.414 C  
HETATM   21  C   UNL     1      -9.541  10.937  63.651  1.00  0.00    -0.339 C  
HETATM   22  C   UNL     1      -8.766   9.797  64.262  1.00  0.00    -0.227 C  
HETATM   23  C   UNL     1      -7.521  10.328  64.972  1.00  0.00    -0.120 C  
HETATM   24  C   UNL     1      -8.381   8.786  63.182  1.00  0.00    -0.167 C  
ENDBRANCH  19  20
ENDBRANCH  18  19
ENDBRANCH  17  18
ENDBRANCH  16  17
ENDBRANCH  13  16
ENDBRANCH  11  12
ENDBRANCH   9  11
ENDBRANCH   2   3
TORSDOF 8
ENDMDL
MODEL      210
REMARK 921   NORMALIZED FREE ENERGY PREDICTED BY IDOCK:   -4.08 KCAL/MOL
REMARK 922        TOTAL FREE ENERGY PREDICTED BY IDOCK:   -7.19 KCAL/MOL
REMARK 923 INTER-LIGAND FREE ENERGY PREDICTED BY IDOCK:   -5.13 KCAL/MOL
REMARK 924 INTRA-LIGAND FREE ENERGY PREDICTED BY IDOCK:   -2.06 KCAL/MOL
REMARK 927      BINDING AFFINITY PREDICTED BY RF-SCORE:    0.00 PKD
ROOT
HETATM    1  C   UNL     1     -10.528   3.063  73.890  1.00  0.00    -0.168 C  
HETATM    2  O   UNL     1      -9.650   3.698  72.969  1.00  0.00    -0.114 OA 
ENDROOT
BRANCH   2   3
HETATM    3  C   UNL     1     -10.226   4.549  72.061  1.00  0.00    -0.181 A  
HETATM    4  C   UNL     1      -9.718   4.457  70.760  1.00  0.00    -0.201 A  
HETATM    5  O   UNL     1      -8.706   3.582  70.475  1.00  0.00    -0.067 OA 
HETATM    6  C   UNL     1     -10.206   5.251  69.731  1.00  0.00    -0.364 A  
HETATM    7  C   UNL     1     -11.201   6.188  70.009  1.00  0.00    -0.471 A  
HETATM    8  H   UNL     1      -8.361   3.519  69.592  1.00  0.00     0.000 HD 
HETATM    9  C   UNL     1     -11.697   6.335  71.314  1.00  0.00    -0.300 A  
HETATM   10  C   UNL     1     -11.226   5.484  72.330  1.00  0.00    -0.305 A  
BRANCH   9  11
HETATM   11  C   UNL     1     -12.697   7.420  71.624  1.00  0.00    -0.365 C  
BRANCH  11  12
HETATM   12  N   UNL     1     -12.675   8.476  70.642  1.00  0.00    -0.324 N  
HETATM   13  C   UNL     1     -12.388   9.766  71.020  1.00  0.00    -0.332 C  
HETATM   14  H   UNL     1     -12.872   8.264  69.663  1.00  0.00     0.000 HD 
HETATM   15  O   UNL     1     -12.137  10.089  72.176  1.00  0.00    -0.115 OA 
BRANCH  13  16
HETATM   16  C   UNL     1     -12.429  10.763  69.879  1.00  0.00    -0.277 C  
BRANCH  16  17
HETATM   17  C   UNL     1     -11.305  10.537  68.868  1.00  0.00    -0.313 C  
BRANCH  17  18
HETATM   18  C   UNL     1      -9.929  10.884  69.447  1.00  0.00    -0.085 C  
BRANCH  18  19
HETATM   19  C   UNL     1      -8.932   9.744  69.243  1.00  0.00    -0.177 C  
BRANCH  19  20
HETATM   20  C   UNL     1      -8.257   9.382  70.535  1.00  0.00    -0.221 C  
HETATM   21  C   UNL     1      -8.596   8.324  71.286  1.00  0.00    -0.179 C  
HETATM   22  C   UNL     1      -7.921   7.965  72.586  1.00  0.00    -0.162 C  
HETATM   23  C   UNL     1      -7.243   6.601  72.468  1.00  0.00    -0.084 C  
HETATM   24  C   UNL     1      -8.943   7.962  73.724  1.00  0.00    -0.324 C  
ENDBRANCH  19  20
ENDBRANCH  18  19
ENDBRANCH  17  18
ENDBRANCH  16  17
ENDBRANCH  13  16
ENDBRANCH  11  12
ENDBRANCH   9  11
ENDBRANCH   2   3
TORSDOF 8
ENDMDL
MODEL      211
REMARK 921   NORMALIZED FREE ENERGY PREDICTED BY IDOCK:   -4.07 KCAL/MOL
REMARK 922        TOTAL FREE ENERGY PREDICTED BY IDOCK:   -7.19 KCAL/MOL
REMARK 923 INTER-LIGAND FREE ENERGY PREDICTED BY IDOCK:   -6.59 KCAL/MOL
REMARK 924 INTRA-LIGAND FREE ENERGY PREDICTED BY IDOCK:   -0.60 KCAL/MOL
REMARK 927      BINDING AFFINITY PREDICTED BY RF-SCORE:    0.00 PKD
ROOT
HETATM    1  C   UNL     1      -9.328  20.266  67.430  1.00  0.00    -0.400 C  
HETATM    2  O   UNL     1      -8.206  19.416  67.632  1.00  0.00    -0.282 OA 
ENDROOT
BRANCH   2   3
HETATM    3  C   UNL     1      -8.463  18.181  68.172  1.00  0.00    -0.273 A  
HETATM    4  C   UNL     1      -7.342  17.356  68.319  1.00  0.00    -0.214 A  
HETATM    5  O   UNL     1      -6.109  17.789  67.918  1.00  0.00    -0.154 OA 
HETATM    6  C   UNL     1      -7.445  16.080  68.856  1.00  0.00    -0.188 A  
HETATM    7  C   UNL     1      -8.700  15.595  69.223  1.00  0.00    -0.267 A  
HETATM    8  H   UNL     1      -5.347  17.229  68.017  1.00  0.00     0.000 HD 
HETATM    9  C   UNL     1      -9.848  16.383  69.044  1.00  0.00    -0.266 A  
HETATM   10  C   UNL     1      -9.715  17.693  68.547  1.00  0.00    -0.328 A  
BRANCH   9  11
HETATM   11  C   UNL     1     -11.210  15.813  69.347  1.00  0.00    -0.324 C  
BRANCH  11  12
HETATM   12  N   UNL     1     -11.154  14.403  69.647  1.00  0.00    -0.365 N  
HETATM   13  C   UNL     1     -11.644  13.485  68.749  1.00  0.00    -0.325 C  
HETATM   14  H   UNL     1     -10.749  14.086  70.528  1.00  0.00     0.000 HD 
HETATM   15  O   UNL     1     -12.139  13.795  67.670  1.00  0.00    -0.363 OA 
BRANCH  13  16
HETATM   16  C   UNL     1     -11.536  12.048  69.220  1.00  0.00    -0.380 C  
BRANCH  16  17
HETATM   17  C   UNL     1     -12.383  11.778  70.464  1.00  0.00    -0.387 C  
BRANCH  17  18
HETATM   18  C   UNL     1     -11.930  10.515  71.206  1.00  0.00    -0.386 C  
BRANCH  18  19
HETATM   19  C   UNL     1     -10.937   9.703  70.375  1.00  0.00    -0.356 C  
BRANCH  19  20
HETATM   20  C   UNL     1     -10.076   8.843  71.256  1.00  0.00    -0.365 C  
HETATM   21  C   UNL     1     -10.491   7.702  71.823  1.00  0.00    -0.241 C  
HETATM   22  C   UNL     1      -9.626   6.841  72.712  1.00  0.00    -0.161 C  
HETATM   23  C   UNL     1      -9.421   5.467  72.076  1.00  0.00    -0.171 C  
HETATM   24  C   UNL     1     -10.267   6.706  74.093  1.00  0.00    -0.390 C  
ENDBRANCH  19  20
ENDBRANCH  18  19
ENDBRANCH  17  18
ENDBRANCH  16  17
ENDBRANCH  13  16
ENDBRANCH  11  12
ENDBRANCH   9  11
ENDBRANCH   2   3
TORSDOF 8
ENDMDL
MODEL      212
REMARK 921   NORMALIZED FREE ENERGY PREDICTED BY IDOCK:   -4.07 KCAL/MOL
REMARK 922        TOTAL FREE ENERGY PREDICTED BY IDOCK:   -7.18 KCAL/MOL
REMARK 923 INTER-LIGAND FREE ENERGY PREDICTED BY IDOCK:   -6.55 KCAL/MOL
REMARK 924 INTRA-LIGAND FREE ENERGY PREDICTED BY IDOCK:   -0.64 KCAL/MOL
REMARK 927      BINDING AFFINITY PREDICTED BY RF-SCORE:    0.00 PKD
ROOT
HETATM    1  C   UNL     1      -9.991   5.192  69.412  1.00  0.00    -0.222 C  
HETATM    2  O   UNL     1     -11.007   5.911  70.100  1.00  0.00    -0.326 OA 
ENDROOT
BRANCH   2   3
HETATM    3  C   UNL     1     -10.953   7.279  70.016  1.00  0.00    -0.253 A  
HETATM    4  C   UNL     1     -11.138   7.953  71.228  1.00  0.00    -0.250 A  
HETATM    5  O   UNL     1     -11.373   7.252  72.379  1.00  0.00    -0.261 OA 
HETATM    6  C   UNL     1     -11.104   9.339  71.302  1.00  0.00    -0.427 A  
HETATM    7  C   UNL     1     -10.919  10.078  70.134  1.00  0.00    -0.368 A  
HETATM    8  H   UNL     1     -11.498   7.709  73.202  1.00  0.00     0.000 HD 
HETATM    9  C   UNL     1     -10.778   9.430  68.896  1.00  0.00    -0.203 A  
HETATM   10  C   UNL     1     -10.762   8.024  68.852  1.00  0.00    -0.091 A  
BRANCH   9  11
HETATM   11  C   UNL     1     -10.681  10.238  67.627  1.00  0.00    -0.288 C  
BRANCH  11  12
HETATM   12  N   UNL     1     -10.611  11.655  67.890  1.00  0.00    -0.187 N  
HETATM   13  C   UNL     1     -11.428  12.525  67.210  1.00  0.00    -0.353 C  
HETATM   14  H   UNL     1      -9.952  12.011  68.583  1.00  0.00     0.000 HD 
HETATM   15  O   UNL     1     -12.245  12.166  66.369  1.00  0.00    -0.592 OA 
BRANCH  13  16
HETATM   16  C   UNL     1     -11.217  13.980  67.579  1.00  0.00    -0.328 C  
BRANCH  16  17
HETATM   17  C   UNL     1      -9.945  14.560  66.959  1.00  0.00    -0.255 C  
BRANCH  17  18
HETATM   18  C   UNL     1      -8.821  14.717  67.990  1.00  0.00    -0.169 C  
BRANCH  18  19
HETATM   19  C   UNL     1      -7.728  15.659  67.487  1.00  0.00    -0.192 C  
BRANCH  19  20
HETATM   20  C   UNL     1      -8.321  16.930  66.947  1.00  0.00    -0.244 C  
HETATM   21  C   UNL     1      -8.444  18.059  67.659  1.00  0.00    -0.239 C  
HETATM   22  C   UNL     1      -9.044  19.333  67.117  1.00  0.00    -0.346 C  
HETATM   23  C   UNL     1      -7.998  20.447  67.111  1.00  0.00    -0.379 C  
HETATM   24  C   UNL     1     -10.257  19.738  67.955  1.00  0.00    -0.576 C  
ENDBRANCH  19  20
ENDBRANCH  18  19
ENDBRANCH  17  18
ENDBRANCH  16  17
ENDBRANCH  13  16
ENDBRANCH  11  12
ENDBRANCH   9  11
ENDBRANCH   2   3
TORSDOF 8
ENDMDL
MODEL      213
REMARK 921   NORMALIZED FREE ENERGY PREDICTED BY IDOCK:   -4.07 KCAL/MOL
REMARK 922        TOTAL FREE ENERGY PREDICTED BY IDOCK:   -7.18 KCAL/MOL
REMARK 923 INTER-LIGAND FREE ENERGY PREDICTED BY IDOCK:   -6.93 KCAL/MOL
REMARK 924 INTRA-LIGAND FREE ENERGY PREDICTED BY IDOCK:   -0.25 KCAL/MOL
REMARK 927      BINDING AFFINITY PREDICTED BY RF-SCORE:    0.00 PKD
ROOT
HETATM    1  C   UNL     1      -6.908   8.908  66.945  1.00  0.00    -0.077 C  
HETATM    2  O   UNL     1      -7.641   9.533  67.992  1.00  0.00    -0.086 OA 
ENDROOT
BRANCH   2   3
HETATM    3  C   UNL     1      -8.799  10.175  67.630  1.00  0.00    -0.125 A  
HETATM    4  C   UNL     1      -9.643  10.515  68.693  1.00  0.00    -0.171 A  
HETATM    5  O   UNL     1      -9.301  10.189  69.977  1.00  0.00    -0.376 OA 
HETATM    6  C   UNL     1     -10.847  11.172  68.484  1.00  0.00    -0.243 A  
HETATM    7  C   UNL     1     -11.242  11.468  67.180  1.00  0.00    -0.365 A  
HETATM    8  H   UNL     1      -9.873  10.419  70.699  1.00  0.00     0.000 HD 
HETATM    9  C   UNL     1     -10.439  11.098  66.090  1.00  0.00    -0.307 A  
HETATM   10  C   UNL     1      -9.197  10.479  66.328  1.00  0.00    -0.192 A  
BRANCH   9  11
HETATM   11  C   UNL     1     -10.922  11.329  64.681  1.00  0.00    -0.211 C  
BRANCH  11  12
HETATM   12  N   UNL     1     -10.933  12.729  64.334  1.00  0.00    -0.338 N  
HETATM   13  C   UNL     1     -12.072  13.477  64.515  1.00  0.00    -0.416 C  
HETATM   14  H   UNL     1     -10.093  13.166  63.954  1.00  0.00     0.000 HD 
HETATM   15  O   UNL     1     -13.114  13.019  64.972  1.00  0.00    -0.761 OA 
BRANCH  13  16
HETATM   16  C   UNL     1     -11.933  14.922  64.080  1.00  0.00    -0.256 C  
BRANCH  16  17
HETATM   17  C   UNL     1     -10.947  15.700  64.953  1.00  0.00    -0.447 C  
BRANCH  17  18
HETATM   18  C   UNL     1     -10.362  14.835  66.075  1.00  0.00    -0.318 C  
BRANCH  18  19
HETATM   19  C   UNL     1     -10.853  15.292  67.448  1.00  0.00    -0.304 C  
BRANCH  19  20
HETATM   20  C   UNL     1     -11.158  16.763  67.447  1.00  0.00     0.019 C  
HETATM   21  C   UNL     1     -10.234  17.719  67.613  1.00  0.00    -0.359 C  
HETATM   22  C   UNL     1     -10.543  19.196  67.617  1.00  0.00    -0.546 C  
HETATM   23  C   UNL     1      -9.831  19.886  66.453  1.00  0.00    -0.572 C  
HETATM   24  C   UNL     1     -10.122  19.816  68.949  1.00  0.00    -0.481 C  
ENDBRANCH  19  20
ENDBRANCH  18  19
ENDBRANCH  17  18
ENDBRANCH  16  17
ENDBRANCH  13  16
ENDBRANCH  11  12
ENDBRANCH   9  11
ENDBRANCH   2   3
TORSDOF 8
ENDMDL
MODEL      214
REMARK 921   NORMALIZED FREE ENERGY PREDICTED BY IDOCK:   -4.07 KCAL/MOL
REMARK 922        TOTAL FREE ENERGY PREDICTED BY IDOCK:   -7.18 KCAL/MOL
REMARK 923 INTER-LIGAND FREE ENERGY PREDICTED BY IDOCK:   -6.29 KCAL/MOL
REMARK 924 INTRA-LIGAND FREE ENERGY PREDICTED BY IDOCK:   -0.89 KCAL/MOL
REMARK 927      BINDING AFFINITY PREDICTED BY RF-SCORE:    0.00 PKD
ROOT
HETATM    1  C   UNL     1      -8.080  15.449  66.944  1.00  0.00    -0.224 C  
HETATM    2  O   UNL     1      -9.189  15.123  66.116  1.00  0.00    -0.295 OA 
ENDROOT
BRANCH   2   3
HETATM    3  C   UNL     1     -10.053  14.171  66.597  1.00  0.00    -0.275 A  
HETATM    4  C   UNL     1     -10.689  13.402  65.616  1.00  0.00    -0.277 A  
HETATM    5  O   UNL     1     -10.449  13.637  64.291  1.00  0.00    -0.546 OA 
HETATM    6  C   UNL     1     -11.586  12.396  65.950  1.00  0.00    -0.449 A  
HETATM    7  C   UNL     1     -11.888  12.172  67.293  1.00  0.00    -0.293 A  
HETATM    8  H   UNL     1     -10.881  13.115  63.625  1.00  0.00     0.000 HD 
HETATM    9  C   UNL     1     -11.300  12.960  68.296  1.00  0.00    -0.326 A  
HETATM   10  C   UNL     1     -10.354  13.937  67.939  1.00  0.00    -0.240 A  
BRANCH   9  11
HETATM   11  C   UNL     1     -11.710  12.779  69.735  1.00  0.00    -0.282 C  
BRANCH  11  12
HETATM   12  N   UNL     1     -11.516  11.423  70.189  1.00  0.00    -0.483 N  
HETATM   13  C   UNL     1     -12.317  10.904  71.178  1.00  0.00    -0.374 C  
HETATM   14  H   UNL     1     -10.782  10.849  69.775  1.00  0.00     0.000 HD 
HETATM   15  O   UNL     1     -13.220  11.536  71.716  1.00  0.00    -0.457 OA 
BRANCH  13  16
HETATM   16  C   UNL     1     -11.972   9.478  71.561  1.00  0.00    -0.475 C  
BRANCH  16  17
HETATM   17  C   UNL     1     -10.463   9.241  71.627  1.00  0.00    -0.328 C  
BRANCH  17  18
HETATM   18  C   UNL     1     -10.122   7.828  72.113  1.00  0.00    -0.265 C  
BRANCH  18  19
HETATM   19  C   UNL     1      -9.590   6.958  70.974  1.00  0.00    -0.172 C  
BRANCH  19  20
HETATM   20  C   UNL     1      -8.508   7.670  70.214  1.00  0.00    -0.134 C  
HETATM   21  C   UNL     1      -8.527   7.861  68.887  1.00  0.00    -0.128 C  
HETATM   22  C   UNL     1      -7.437   8.573  68.124  1.00  0.00    -0.097 C  
HETATM   23  C   UNL     1      -7.992   9.836  67.468  1.00  0.00    -0.106 C  
HETATM   24  C   UNL     1      -6.838   7.638  67.074  1.00  0.00    -0.068 C  
ENDBRANCH  19  20
ENDBRANCH  18  19
ENDBRANCH  17  18
ENDBRANCH  16  17
ENDBRANCH  13  16
ENDBRANCH  11  12
ENDBRANCH   9  11
ENDBRANCH   2   3
TORSDOF 8
ENDMDL
MODEL      215
REMARK 921   NORMALIZED FREE ENERGY PREDICTED BY IDOCK:   -4.07 KCAL/MOL
REMARK 922        TOTAL FREE ENERGY PREDICTED BY IDOCK:   -7.18 KCAL/MOL
REMARK 923 INTER-LIGAND FREE ENERGY PREDICTED BY IDOCK:   -6.75 KCAL/MOL
REMARK 924 INTRA-LIGAND FREE ENERGY PREDICTED BY IDOCK:   -0.43 KCAL/MOL
REMARK 927      BINDING AFFINITY PREDICTED BY RF-SCORE:    0.00 PKD
ROOT
HETATM    1  C   UNL     1     -11.006   3.888  73.690  1.00  0.00    -0.250 C  
HETATM    2  O   UNL     1      -9.982   4.568  72.975  1.00  0.00    -0.140 OA 
ENDROOT
BRANCH   2   3
HETATM    3  C   UNL     1     -10.391   5.428  71.988  1.00  0.00    -0.213 A  
HETATM    4  C   UNL     1     -10.261   4.936  70.685  1.00  0.00    -0.211 A  
HETATM    5  O   UNL     1      -9.737   3.692  70.465  1.00  0.00    -0.186 OA 
HETATM    6  C   UNL     1     -10.639   5.690  69.582  1.00  0.00    -0.401 A  
HETATM    7  C   UNL     1     -11.126   6.982  69.776  1.00  0.00    -0.278 A  
HETATM    8  H   UNL     1      -9.649   3.357  69.581  1.00  0.00     0.000 HD 
HETATM    9  C   UNL     1     -11.224   7.520  71.070  1.00  0.00    -0.281 A  
HETATM   10  C   UNL     1     -10.885   6.719  72.176  1.00  0.00    -0.257 A  
BRANCH   9  11
HETATM   11  C   UNL     1     -11.653   8.952  71.262  1.00  0.00    -0.304 C  
BRANCH  11  12
HETATM   12  N   UNL     1     -11.563   9.714  70.041  1.00  0.00    -0.422 N  
HETATM   13  C   UNL     1     -11.982  11.023  70.011  1.00  0.00    -0.351 C  
HETATM   14  H   UNL     1     -11.188   9.281  69.198  1.00  0.00     0.000 HD 
HETATM   15  O   UNL     1     -12.438  11.608  70.988  1.00  0.00    -0.379 OA 
BRANCH  13  16
HETATM   16  C   UNL     1     -11.847  11.680  68.652  1.00  0.00    -0.370 C  
BRANCH  16  17
HETATM   17  C   UNL     1     -11.260  13.089  68.742  1.00  0.00    -0.325 C  
BRANCH  17  18
HETATM   18  C   UNL     1     -10.668  13.553  67.406  1.00  0.00    -0.269 C  
BRANCH  18  19
HETATM   19  C   UNL     1     -11.173  14.944  67.024  1.00  0.00    -0.344 C  
BRANCH  19  20
HETATM   20  C   UNL     1     -10.618  15.990  67.948  1.00  0.00    -0.301 C  
HETATM   21  C   UNL     1      -9.972  17.089  67.533  1.00  0.00    -0.274 C  
HETATM   22  C   UNL     1      -9.411  18.136  68.463  1.00  0.00    -0.339 C  
HETATM   23  C   UNL     1     -10.105  19.477  68.225  1.00  0.00    -0.542 C  
HETATM   24  C   UNL     1      -7.902  18.266  68.256  1.00  0.00    -0.310 C  
ENDBRANCH  19  20
ENDBRANCH  18  19
ENDBRANCH  17  18
ENDBRANCH  16  17
ENDBRANCH  13  16
ENDBRANCH  11  12
ENDBRANCH   9  11
ENDBRANCH   2   3
TORSDOF 8
ENDMDL
MODEL      216
REMARK 921   NORMALIZED FREE ENERGY PREDICTED BY IDOCK:   -4.06 KCAL/MOL
REMARK 922        TOTAL FREE ENERGY PREDICTED BY IDOCK:   -7.17 KCAL/MOL
REMARK 923 INTER-LIGAND FREE ENERGY PREDICTED BY IDOCK:   -6.51 KCAL/MOL
REMARK 924 INTRA-LIGAND FREE ENERGY PREDICTED BY IDOCK:   -0.66 KCAL/MOL
REMARK 927      BINDING AFFINITY PREDICTED BY RF-SCORE:    0.00 PKD
ROOT
HETATM    1  C   UNL     1      -7.073   7.276  65.054  1.00  0.00    -0.064 C  
HETATM    2  O   UNL     1      -8.412   7.753  65.013  1.00  0.00    -0.128 OA 
ENDROOT
BRANCH   2   3
HETATM    3  C   UNL     1      -9.054   7.882  66.219  1.00  0.00    -0.179 A  
HETATM    4  C   UNL     1      -9.855   6.794  66.581  1.00  0.00    -0.152 A  
HETATM    5  O   UNL     1      -9.972   5.715  65.749  1.00  0.00    -0.378 OA 
HETATM    6  C   UNL     1     -10.561   6.777  67.776  1.00  0.00    -0.307 A  
HETATM    7  C   UNL     1     -10.501   7.888  68.618  1.00  0.00    -0.196 A  
HETATM    8  H   UNL     1     -10.515   4.976  65.994  1.00  0.00     0.000 HD 
HETATM    9  C   UNL     1      -9.743   9.014  68.258  1.00  0.00    -0.169 A  
HETATM   10  C   UNL     1      -8.992   8.988  67.068  1.00  0.00    -0.144 A  
BRANCH   9  11
HETATM   11  C   UNL     1      -9.765  10.248  69.123  1.00  0.00    -0.217 C  
BRANCH  11  12
HETATM   12  N   UNL     1     -10.084  11.435  68.368  1.00  0.00    -0.195 N  
HETATM   13  C   UNL     1     -11.395  11.773  68.132  1.00  0.00    -0.284 C  
HETATM   14  H   UNL     1      -9.333  12.025  68.009  1.00  0.00     0.000 HD 
HETATM   15  O   UNL     1     -12.345  11.112  68.538  1.00  0.00    -0.561 OA 
BRANCH  13  16
HETATM   16  C   UNL     1     -11.565  13.031  67.305  1.00  0.00    -0.409 C  
BRANCH  16  17
HETATM   17  C   UNL     1     -10.866  12.935  65.948  1.00  0.00    -0.294 C  
BRANCH  17  18
HETATM   18  C   UNL     1     -10.751  14.300  65.260  1.00  0.00    -0.377 C  
BRANCH  18  19
HETATM   19  C   UNL     1      -9.779  15.219  65.998  1.00  0.00    -0.367 C  
BRANCH  19  20
HETATM   20  C   UNL     1     -10.401  16.562  66.258  1.00  0.00    -0.327 C  
HETATM   21  C   UNL     1      -9.736  17.608  66.768  1.00  0.00    -0.300 C  
HETATM   22  C   UNL     1     -10.363  18.955  67.034  1.00  0.00    -0.469 C  
HETATM   23  C   UNL     1      -9.696  20.025  66.171  1.00  0.00    -0.517 C  
HETATM   24  C   UNL     1     -10.244  19.305  68.517  1.00  0.00    -0.471 C  
ENDBRANCH  19  20
ENDBRANCH  18  19
ENDBRANCH  17  18
ENDBRANCH  16  17
ENDBRANCH  13  16
ENDBRANCH  11  12
ENDBRANCH   9  11
ENDBRANCH   2   3
TORSDOF 8
ENDMDL
MODEL      217
REMARK 921   NORMALIZED FREE ENERGY PREDICTED BY IDOCK:   -4.05 KCAL/MOL
REMARK 922        TOTAL FREE ENERGY PREDICTED BY IDOCK:   -7.16 KCAL/MOL
REMARK 923 INTER-LIGAND FREE ENERGY PREDICTED BY IDOCK:   -6.71 KCAL/MOL
REMARK 924 INTRA-LIGAND FREE ENERGY PREDICTED BY IDOCK:   -0.44 KCAL/MOL
REMARK 927      BINDING AFFINITY PREDICTED BY RF-SCORE:    0.00 PKD
ROOT
HETATM    1  C   UNL     1     -14.377   8.233  72.151  1.00  0.00    -0.404 C  
HETATM    2  O   UNL     1     -13.482   9.278  72.511  1.00  0.00    -0.464 OA 
ENDROOT
BRANCH   2   3
HETATM    3  C   UNL     1     -12.365   9.426  71.727  1.00  0.00    -0.394 A  
HETATM    4  C   UNL     1     -11.241   8.716  72.161  1.00  0.00    -0.367 A  
HETATM    5  O   UNL     1     -11.298   7.962  73.301  1.00  0.00    -0.517 OA 
HETATM    6  C   UNL     1     -10.039   8.762  71.467  1.00  0.00    -0.371 A  
HETATM    7  C   UNL     1      -9.940   9.566  70.332  1.00  0.00    -0.325 A  
HETATM    8  H   UNL     1     -10.534   7.479  73.595  1.00  0.00     0.000 HD 
HETATM    9  C   UNL     1     -11.039  10.327  69.900  1.00  0.00    -0.362 A  
HETATM   10  C   UNL     1     -12.262  10.223  70.587  1.00  0.00    -0.422 A  
BRANCH   9  11
HETATM   11  C   UNL     1     -10.892  11.270  68.734  1.00  0.00    -0.208 C  
BRANCH  11  12
HETATM   12  N   UNL     1     -10.214  12.489  69.103  1.00  0.00    -0.407 N  
HETATM   13  C   UNL     1     -10.743  13.708  68.752  1.00  0.00    -0.244 C  
HETATM   14  H   UNL     1      -9.340  12.446  69.627  1.00  0.00     0.000 HD 
HETATM   15  O   UNL     1     -11.791  13.833  68.127  1.00  0.00    -0.343 OA 
BRANCH  13  16
HETATM   16  C   UNL     1      -9.903  14.891  69.189  1.00  0.00    -0.200 C  
BRANCH  16  17
HETATM   17  C   UNL     1     -10.518  16.228  68.774  1.00  0.00    -0.282 C  
BRANCH  17  18
HETATM   18  C   UNL     1      -9.469  17.198  68.219  1.00  0.00    -0.276 C  
BRANCH  18  19
HETATM   19  C   UNL     1      -8.585  16.526  67.168  1.00  0.00    -0.208 C  
BRANCH  19  20
HETATM   20  C   UNL     1      -7.425  17.406  66.799  1.00  0.00    -0.257 C  
HETATM   21  C   UNL     1      -7.463  18.325  65.824  1.00  0.00    -0.126 C  
HETATM   22  C   UNL     1      -6.295  19.205  65.452  1.00  0.00    -0.311 C  
HETATM   23  C   UNL     1      -6.643  20.673  65.697  1.00  0.00    -0.236 C  
HETATM   24  C   UNL     1      -5.915  18.978  63.989  1.00  0.00     0.013 C  
ENDBRANCH  19  20
ENDBRANCH  18  19
ENDBRANCH  17  18
ENDBRANCH  16  17
ENDBRANCH  13  16
ENDBRANCH  11  12
ENDBRANCH   9  11
ENDBRANCH   2   3
TORSDOF 8
ENDMDL
MODEL      218
REMARK 921   NORMALIZED FREE ENERGY PREDICTED BY IDOCK:   -4.03 KCAL/MOL
REMARK 922        TOTAL FREE ENERGY PREDICTED BY IDOCK:   -7.12 KCAL/MOL
REMARK 923 INTER-LIGAND FREE ENERGY PREDICTED BY IDOCK:   -6.51 KCAL/MOL
REMARK 924 INTRA-LIGAND FREE ENERGY PREDICTED BY IDOCK:   -0.61 KCAL/MOL
REMARK 927      BINDING AFFINITY PREDICTED BY RF-SCORE:    0.00 PKD
ROOT
HETATM    1  C   UNL     1      -6.538   6.187  68.888  1.00  0.00    -0.051 C  
HETATM    2  O   UNL     1      -7.856   5.888  68.446  1.00  0.00    -0.102 OA 
ENDROOT
BRANCH   2   3
HETATM    3  C   UNL     1      -8.697   6.956  68.261  1.00  0.00    -0.123 A  
HETATM    4  C   UNL     1      -9.592   7.193  69.311  1.00  0.00    -0.155 A  
HETATM    5  O   UNL     1      -9.600   6.377  70.408  1.00  0.00    -0.164 OA 
HETATM    6  C   UNL     1     -10.500   8.242  69.269  1.00  0.00    -0.218 A  
HETATM    7  C   UNL     1     -10.547   9.056  68.137  1.00  0.00    -0.225 A  
HETATM    8  H   UNL     1     -10.207   6.538  71.121  1.00  0.00     0.000 HD 
HETATM    9  C   UNL     1      -9.694   8.814  67.049  1.00  0.00    -0.258 A  
HETATM   10  C   UNL     1      -8.745   7.779  67.134  1.00  0.00    -0.125 A  
BRANCH   9  11
HETATM   11  C   UNL     1      -9.823   9.633  65.791  1.00  0.00    -0.302 C  
BRANCH  11  12
HETATM   12  N   UNL     1     -10.556  10.856  66.012  1.00  0.00    -0.224 N  
HETATM   13  C   UNL     1     -10.926  11.642  64.947  1.00  0.00    -0.284 C  
HETATM   14  H   UNL     1     -10.801  11.137  66.961  1.00  0.00     0.000 HD 
HETATM   15  O   UNL     1     -10.670  11.362  63.781  1.00  0.00    -0.359 OA 
BRANCH  13  16
HETATM   16  C   UNL     1     -11.667  12.904  65.344  1.00  0.00    -0.413 C  
BRANCH  16  17
HETATM   17  C   UNL     1     -11.773  13.065  66.861  1.00  0.00    -0.441 C  
BRANCH  17  18
HETATM   18  C   UNL     1     -10.975  14.271  67.369  1.00  0.00    -0.301 C  
BRANCH  18  19
HETATM   19  C   UNL     1     -11.830  15.169  68.264  1.00  0.00    -0.275 C  
BRANCH  19  20
HETATM   20  C   UNL     1     -11.665  14.799  69.711  1.00  0.00    -0.354 C  
HETATM   21  C   UNL     1     -12.527  15.149  70.675  1.00  0.00    -0.442 C  
HETATM   22  C   UNL     1     -12.358  14.780  72.129  1.00  0.00    -0.408 C  
HETATM   23  C   UNL     1     -13.514  13.889  72.584  1.00  0.00    -0.652 C  
HETATM   24  C   UNL     1     -12.283  16.044  72.984  1.00  0.00    -0.637 C  
ENDBRANCH  19  20
ENDBRANCH  18  19
ENDBRANCH  17  18
ENDBRANCH  16  17
ENDBRANCH  13  16
ENDBRANCH  11  12
ENDBRANCH   9  11
ENDBRANCH   2   3
TORSDOF 8
ENDMDL
MODEL      219
REMARK 921   NORMALIZED FREE ENERGY PREDICTED BY IDOCK:   -4.02 KCAL/MOL
REMARK 922        TOTAL FREE ENERGY PREDICTED BY IDOCK:   -7.11 KCAL/MOL
REMARK 923 INTER-LIGAND FREE ENERGY PREDICTED BY IDOCK:   -5.42 KCAL/MOL
REMARK 924 INTRA-LIGAND FREE ENERGY PREDICTED BY IDOCK:   -1.69 KCAL/MOL
REMARK 927      BINDING AFFINITY PREDICTED BY RF-SCORE:    0.00 PKD
ROOT
HETATM    1  C   UNL     1      -9.578   9.294  66.003  1.00  0.00    -0.270 C  
HETATM    2  O   UNL     1     -10.489   9.956  66.872  1.00  0.00    -0.238 OA 
ENDROOT
BRANCH   2   3
HETATM    3  C   UNL     1     -10.062  11.140  67.419  1.00  0.00    -0.185 A  
HETATM    4  C   UNL     1     -11.021  11.820  68.178  1.00  0.00    -0.228 A  
HETATM    5  O   UNL     1     -12.282  11.309  68.314  1.00  0.00    -0.615 OA 
HETATM    6  C   UNL     1     -10.734  13.028  68.798  1.00  0.00    -0.250 A  
HETATM    7  C   UNL     1      -9.471  13.595  68.630  1.00  0.00    -0.077 A  
HETATM    8  H   UNL     1     -12.934  11.770  68.829  1.00  0.00     0.000 HD 
HETATM    9  C   UNL     1      -8.504  12.959  67.836  1.00  0.00    -0.181 A  
HETATM   10  C   UNL     1      -8.798  11.710  67.260  1.00  0.00    -0.164 A  
BRANCH   9  11
HETATM   11  C   UNL     1      -7.179  13.630  67.577  1.00  0.00    -0.156 C  
BRANCH  11  12
HETATM   12  N   UNL     1      -7.328  14.859  66.837  1.00  0.00    -0.149 N  
HETATM   13  C   UNL     1      -6.904  16.048  67.379  1.00  0.00    -0.189 C  
HETATM   14  H   UNL     1      -7.749  14.845  65.907  1.00  0.00     0.000 HD 
HETATM   15  O   UNL     1      -6.386  16.137  68.487  1.00  0.00    -0.112 OA 
BRANCH  13  16
HETATM   16  C   UNL     1      -7.152  17.251  66.491  1.00  0.00    -0.300 C  
BRANCH  16  17
HETATM   17  C   UNL     1      -8.633  17.627  66.419  1.00  0.00    -0.269 C  
BRANCH  17  18
HETATM   18  C   UNL     1      -9.261  17.764  67.811  1.00  0.00    -0.256 C  
BRANCH  18  19
HETATM   19  C   UNL     1     -10.610  17.050  67.888  1.00  0.00    -0.365 C  
BRANCH  19  20
HETATM   20  C   UNL     1     -10.988  16.469  66.555  1.00  0.00     0.071 C  
HETATM   21  C   UNL     1     -11.145  15.157  66.328  1.00  0.00    -0.309 C  
HETATM   22  C   UNL     1     -11.520  14.575  64.987  1.00  0.00    -0.382 C  
HETATM   23  C   UNL     1     -12.869  13.864  65.081  1.00  0.00    -0.383 C  
HETATM   24  C   UNL     1     -10.433  13.610  64.513  1.00  0.00    -0.411 C  
ENDBRANCH  19  20
ENDBRANCH  18  19
ENDBRANCH  17  18
ENDBRANCH  16  17
ENDBRANCH  13  16
ENDBRANCH  11  12
ENDBRANCH   9  11
ENDBRANCH   2   3
TORSDOF 8
ENDMDL
MODEL      220
REMARK 921   NORMALIZED FREE ENERGY PREDICTED BY IDOCK:   -4.02 KCAL/MOL
REMARK 922        TOTAL FREE ENERGY PREDICTED BY IDOCK:   -7.11 KCAL/MOL
REMARK 923 INTER-LIGAND FREE ENERGY PREDICTED BY IDOCK:   -6.33 KCAL/MOL
REMARK 924 INTRA-LIGAND FREE ENERGY PREDICTED BY IDOCK:   -0.78 KCAL/MOL
REMARK 927      BINDING AFFINITY PREDICTED BY RF-SCORE:    0.00 PKD
ROOT
HETATM    1  C   UNL     1     -10.379   4.694  65.965  1.00  0.00    -0.284 C  
HETATM    2  O   UNL     1     -10.376   5.084  67.333  1.00  0.00    -0.175 OA 
ENDROOT
BRANCH   2   3
HETATM    3  C   UNL     1     -10.284   6.429  67.585  1.00  0.00    -0.169 A  
HETATM    4  C   UNL     1     -10.681   6.817  68.870  1.00  0.00    -0.240 A  
HETATM    5  O   UNL     1     -11.138   5.887  69.762  1.00  0.00    -0.377 OA 
HETATM    6  C   UNL     1     -10.639   8.145  69.273  1.00  0.00    -0.191 A  
HETATM    7  C   UNL     1     -10.227   9.119  68.365  1.00  0.00    -0.230 A  
HETATM    8  H   UNL     1     -11.407   6.150  70.634  1.00  0.00     0.000 HD 
HETATM    9  C   UNL     1      -9.868   8.765  67.054  1.00  0.00    -0.279 A  
HETATM   10  C   UNL     1      -9.867   7.408  66.683  1.00  0.00    -0.263 A  
BRANCH   9  11
HETATM   11  C   UNL     1      -9.523   9.835  66.050  1.00  0.00    -0.211 C  
BRANCH  11  12
HETATM   12  N   UNL     1     -10.594  10.787  65.882  1.00  0.00    -0.192 N  
HETATM   13  C   UNL     1     -10.976  11.181  64.622  1.00  0.00    -0.168 C  
HETATM   14  H   UNL     1     -11.069  11.168  66.700  1.00  0.00     0.000 HD 
HETATM   15  O   UNL     1     -10.453  10.759  63.595  1.00  0.00    -0.299 OA 
BRANCH  13  16
HETATM   16  C   UNL     1     -12.096  12.202  64.611  1.00  0.00    -0.389 C  
BRANCH  16  17
HETATM   17  C   UNL     1     -11.844  13.332  63.613  1.00  0.00    -0.515 C  
BRANCH  17  18
HETATM   18  C   UNL     1     -12.166  14.709  64.206  1.00  0.00    -0.432 C  
BRANCH  18  19
HETATM   19  C   UNL     1     -11.183  15.084  65.314  1.00  0.00    -0.368 C  
BRANCH  19  20
HETATM   20  C   UNL     1     -11.782  14.835  66.670  1.00  0.00    -0.293 C  
HETATM   21  C   UNL     1     -11.105  14.314  67.702  1.00  0.00    -0.305 C  
HETATM   22  C   UNL     1     -11.709  14.060  69.061  1.00  0.00    -0.368 C  
HETATM   23  C   UNL     1     -11.004  14.911  70.118  1.00  0.00    -0.211 C  
HETATM   24  C   UNL     1     -11.608  12.575  69.410  1.00  0.00    -0.368 C  
ENDBRANCH  19  20
ENDBRANCH  18  19
ENDBRANCH  17  18
ENDBRANCH  16  17
ENDBRANCH  13  16
ENDBRANCH  11  12
ENDBRANCH   9  11
ENDBRANCH   2   3
TORSDOF 8
ENDMDL
MODEL      221
REMARK 921   NORMALIZED FREE ENERGY PREDICTED BY IDOCK:   -4.02 KCAL/MOL
REMARK 922        TOTAL FREE ENERGY PREDICTED BY IDOCK:   -7.11 KCAL/MOL
REMARK 923 INTER-LIGAND FREE ENERGY PREDICTED BY IDOCK:   -6.49 KCAL/MOL
REMARK 924 INTRA-LIGAND FREE ENERGY PREDICTED BY IDOCK:   -0.62 KCAL/MOL
REMARK 927      BINDING AFFINITY PREDICTED BY RF-SCORE:    0.00 PKD
ROOT
HETATM    1  C   UNL     1      -8.051   4.103  72.052  1.00  0.00    -0.086 C  
HETATM    2  O   UNL     1      -9.448   4.034  72.310  1.00  0.00    -0.120 OA 
ENDROOT
BRANCH   2   3
HETATM    3  C   UNL     1     -10.239   4.935  71.643  1.00  0.00    -0.197 A  
HETATM    4  C   UNL     1     -11.174   5.604  72.440  1.00  0.00    -0.280 A  
HETATM    5  O   UNL     1     -11.266   5.328  73.776  1.00  0.00    -0.427 OA 
HETATM    6  C   UNL     1     -12.040   6.549  71.906  1.00  0.00    -0.388 A  
HETATM    7  C   UNL     1     -12.002   6.809  70.536  1.00  0.00    -0.385 A  
HETATM    8  H   UNL     1     -11.900   5.783  74.318  1.00  0.00     0.000 HD 
HETATM    9  C   UNL     1     -11.107   6.119  69.704  1.00  0.00    -0.489 A  
HETATM   10  C   UNL     1     -10.202   5.205  70.274  1.00  0.00    -0.342 A  
BRANCH   9  11
HETATM   11  C   UNL     1     -11.144   6.332  68.213  1.00  0.00    -0.269 C  
BRANCH  11  12
HETATM   12  N   UNL     1     -10.668   7.641  67.839  1.00  0.00    -0.429 N  
HETATM   13  C   UNL     1      -9.749   7.779  66.826  1.00  0.00    -0.227 C  
HETATM   14  H   UNL     1     -11.014   8.467  68.328  1.00  0.00     0.000 HD 
HETATM   15  O   UNL     1      -9.295   6.831  66.194  1.00  0.00    -0.144 OA 
BRANCH  13  16
HETATM   16  C   UNL     1      -9.329   9.213  66.570  1.00  0.00    -0.244 C  
BRANCH  16  17
HETATM   17  C   UNL     1     -10.487  10.080  66.076  1.00  0.00    -0.145 C  
BRANCH  17  18
HETATM   18  C   UNL     1     -10.177  10.745  64.730  1.00  0.00    -0.403 C  
BRANCH  18  19
HETATM   19  C   UNL     1     -10.618  12.208  64.714  1.00  0.00    -0.335 C  
BRANCH  19  20
HETATM   20  C   UNL     1     -10.285  12.884  66.013  1.00  0.00    -0.293 C  
HETATM   21  C   UNL     1     -11.193  13.470  66.806  1.00  0.00    -0.327 C  
HETATM   22  C   UNL     1     -10.856  14.152  68.109  1.00  0.00    -0.258 C  
HETATM   23  C   UNL     1     -11.541  13.435  69.272  1.00  0.00    -0.365 C  
HETATM   24  C   UNL     1     -11.280  15.620  68.056  1.00  0.00    -0.339 C  
ENDBRANCH  19  20
ENDBRANCH  18  19
ENDBRANCH  17  18
ENDBRANCH  16  17
ENDBRANCH  13  16
ENDBRANCH  11  12
ENDBRANCH   9  11
ENDBRANCH   2   3
TORSDOF 8
ENDMDL
MODEL      222
REMARK 921   NORMALIZED FREE ENERGY PREDICTED BY IDOCK:   -4.02 KCAL/MOL
REMARK 922        TOTAL FREE ENERGY PREDICTED BY IDOCK:   -7.11 KCAL/MOL
REMARK 923 INTER-LIGAND FREE ENERGY PREDICTED BY IDOCK:   -6.25 KCAL/MOL
REMARK 924 INTRA-LIGAND FREE ENERGY PREDICTED BY IDOCK:   -0.86 KCAL/MOL
REMARK 927      BINDING AFFINITY PREDICTED BY RF-SCORE:    0.00 PKD
ROOT
HETATM    1  C   UNL     1     -11.666  15.632  68.857  1.00  0.00    -0.384 C  
HETATM    2  O   UNL     1     -11.246  16.928  68.447  1.00  0.00    -0.299 OA 
ENDROOT
BRANCH   2   3
HETATM    3  C   UNL     1      -9.914  17.218  68.603  1.00  0.00    -0.327 A  
HETATM    4  C   UNL     1      -9.588  18.574  68.490  1.00  0.00    -0.358 A  
HETATM    5  O   UNL     1     -10.559  19.498  68.222  1.00  0.00    -0.417 OA 
HETATM    6  C   UNL     1      -8.281  19.021  68.629  1.00  0.00    -0.399 A  
HETATM    7  C   UNL     1      -7.264  18.092  68.850  1.00  0.00    -0.264 A  
HETATM    8  H   UNL     1     -10.338  20.419  68.145  1.00  0.00     0.000 HD 
HETATM    9  C   UNL     1      -7.555  16.720  68.921  1.00  0.00    -0.239 A  
HETATM   10  C   UNL     1      -8.893  16.294  68.831  1.00  0.00    -0.253 A  
BRANCH   9  11
HETATM   11  C   UNL     1      -6.439  15.717  69.057  1.00  0.00    -0.126 C  
BRANCH  11  12
HETATM   12  N   UNL     1      -6.856  14.387  68.686  1.00  0.00    -0.090 N  
HETATM   13  C   UNL     1      -6.551  13.316  69.492  1.00  0.00    -0.040 C  
HETATM   14  H   UNL     1      -7.379  14.240  67.822  1.00  0.00     0.000 HD 
HETATM   15  O   UNL     1      -5.930  13.420  70.545  1.00  0.00    -0.168 OA 
BRANCH  13  16
HETATM   16  C   UNL     1      -7.035  11.985  68.953  1.00  0.00    -0.104 C  
BRANCH  16  17
HETATM   17  C   UNL     1      -8.453  12.066  68.387  1.00  0.00    -0.147 C  
BRANCH  17  18
HETATM   18  C   UNL     1      -9.013  10.683  68.034  1.00  0.00    -0.140 C  
BRANCH  18  19
HETATM   19  C   UNL     1      -9.243  10.540  66.530  1.00  0.00    -0.183 C  
BRANCH  19  20
HETATM   20  C   UNL     1     -10.627  10.987  66.154  1.00  0.00    -0.288 C  
HETATM   21  C   UNL     1     -10.885  12.027  65.348  1.00  0.00    -0.336 C  
HETATM   22  C   UNL     1     -12.275  12.478  64.975  1.00  0.00    -0.519 C  
HETATM   23  C   UNL     1     -12.487  12.339  63.468  1.00  0.00    -0.642 C  
HETATM   24  C   UNL     1     -12.494  13.924  65.419  1.00  0.00    -0.528 C  
ENDBRANCH  19  20
ENDBRANCH  18  19
ENDBRANCH  17  18
ENDBRANCH  16  17
ENDBRANCH  13  16
ENDBRANCH  11  12
ENDBRANCH   9  11
ENDBRANCH   2   3
TORSDOF 8
ENDMDL
MODEL      223
REMARK 921   NORMALIZED FREE ENERGY PREDICTED BY IDOCK:   -4.01 KCAL/MOL
REMARK 922        TOTAL FREE ENERGY PREDICTED BY IDOCK:   -7.10 KCAL/MOL
REMARK 923 INTER-LIGAND FREE ENERGY PREDICTED BY IDOCK:   -6.24 KCAL/MOL
REMARK 924 INTRA-LIGAND FREE ENERGY PREDICTED BY IDOCK:   -0.86 KCAL/MOL
REMARK 927      BINDING AFFINITY PREDICTED BY RF-SCORE:    0.00 PKD
ROOT
HETATM    1  C   UNL     1      -9.643  10.255  64.040  1.00  0.00    -0.304 C  
HETATM    2  O   UNL     1      -8.577   9.715  64.811  1.00  0.00    -0.154 OA 
ENDROOT
BRANCH   2   3
HETATM    3  C   UNL     1      -8.825   8.526  65.450  1.00  0.00    -0.130 A  
HETATM    4  C   UNL     1      -8.242   7.402  64.854  1.00  0.00    -0.077 A  
HETATM    5  O   UNL     1      -7.506   7.532  63.708  1.00  0.00    -0.092 OA 
HETATM    6  C   UNL     1      -8.400   6.131  65.389  1.00  0.00    -0.150 A  
HETATM    7  C   UNL     1      -9.189   5.966  66.527  1.00  0.00    -0.154 A  
HETATM    8  H   UNL     1      -7.109   6.770  63.304  1.00  0.00     0.000 HD 
HETATM    9  C   UNL     1      -9.826   7.068  67.119  1.00  0.00    -0.225 A  
HETATM   10  C   UNL     1      -9.609   8.354  66.592  1.00  0.00    -0.294 A  
BRANCH   9  11
HETATM   11  C   UNL     1     -10.759   6.865  68.285  1.00  0.00    -0.214 C  
BRANCH  11  12
HETATM   12  N   UNL     1     -11.153   8.114  68.889  1.00  0.00    -0.403 N  
HETATM   13  C   UNL     1     -10.571   8.528  70.063  1.00  0.00    -0.227 C  
HETATM   14  H   UNL     1     -11.866   8.691  68.443  1.00  0.00     0.000 HD 
HETATM   15  O   UNL     1      -9.706   7.887  70.650  1.00  0.00    -0.173 OA 
BRANCH  13  16
HETATM   16  C   UNL     1     -11.109   9.846  70.584  1.00  0.00    -0.409 C  
BRANCH  16  17
HETATM   17  C   UNL     1     -11.724  10.702  69.476  1.00  0.00    -0.356 C  
BRANCH  17  18
HETATM   18  C   UNL     1     -11.812  12.181  69.871  1.00  0.00    -0.392 C  
BRANCH  18  19
HETATM   19  C   UNL     1     -11.159  13.080  68.821  1.00  0.00    -0.311 C  
BRANCH  19  20
HETATM   20  C   UNL     1     -12.079  13.300  67.655  1.00  0.00    -0.295 C  
HETATM   21  C   UNL     1     -11.673  13.340  66.378  1.00  0.00    -0.418 C  
HETATM   22  C   UNL     1     -12.598  13.566  65.208  1.00  0.00    -0.517 C  
HETATM   23  C   UNL     1     -12.596  12.343  64.291  1.00  0.00    -0.494 C  
HETATM   24  C   UNL     1     -12.174  14.817  64.439  1.00  0.00    -0.447 C  
ENDBRANCH  19  20
ENDBRANCH  18  19
ENDBRANCH  17  18
ENDBRANCH  16  17
ENDBRANCH  13  16
ENDBRANCH  11  12
ENDBRANCH   9  11
ENDBRANCH   2   3
TORSDOF 8
ENDMDL
MODEL      224
REMARK 921   NORMALIZED FREE ENERGY PREDICTED BY IDOCK:   -4.00 KCAL/MOL
REMARK 922        TOTAL FREE ENERGY PREDICTED BY IDOCK:   -7.08 KCAL/MOL
REMARK 923 INTER-LIGAND FREE ENERGY PREDICTED BY IDOCK:   -6.00 KCAL/MOL
REMARK 924 INTRA-LIGAND FREE ENERGY PREDICTED BY IDOCK:   -1.08 KCAL/MOL
REMARK 927      BINDING AFFINITY PREDICTED BY RF-SCORE:    0.00 PKD
ROOT
HETATM    1  C   UNL     1     -11.149  10.209  68.870  1.00  0.00    -0.207 C  
HETATM    2  O   UNL     1     -12.347  10.975  68.903  1.00  0.00    -0.516 OA 
ENDROOT
BRANCH   2   3
HETATM    3  C   UNL     1     -12.243  12.252  69.396  1.00  0.00    -0.065 A  
HETATM    4  C   UNL     1     -12.507  12.380  70.763  1.00  0.00    -0.267 A  
HETATM    5  O   UNL     1     -12.859  11.286  71.505  1.00  0.00    -0.416 OA 
HETATM    6  C   UNL     1     -12.436  13.610  71.405  1.00  0.00    -0.374 A  
HETATM    7  C   UNL     1     -12.132  14.749  70.660  1.00  0.00    -0.374 A  
HETATM    8  H   UNL     1     -13.038  11.373  72.434  1.00  0.00     0.000 HD 
HETATM    9  C   UNL     1     -11.908  14.657  69.277  1.00  0.00    -0.357 A  
HETATM   10  C   UNL     1     -11.932  13.394  68.657  1.00  0.00    -0.362 A  
BRANCH   9  11
HETATM   11  C   UNL     1     -11.682  15.906  68.464  1.00  0.00    -0.292 C  
BRANCH  11  12
HETATM   12  N   UNL     1     -10.361  16.450  68.661  1.00  0.00    -0.256 N  
HETATM   13  C   UNL     1     -10.034  17.678  68.138  1.00  0.00    -0.330 C  
HETATM   14  H   UNL     1      -9.667  15.921  69.190  1.00  0.00     0.000 HD 
HETATM   15  O   UNL     1     -10.819  18.369  67.497  1.00  0.00    -0.408 OA 
BRANCH  13  16
HETATM   16  C   UNL     1      -8.603  18.099  68.409  1.00  0.00    -0.310 C  
BRANCH  16  17
HETATM   17  C   UNL     1      -7.800  18.295  67.123  1.00  0.00    -0.229 C  
BRANCH  17  18
HETATM   18  C   UNL     1      -6.617  17.325  67.027  1.00  0.00    -0.212 C  
BRANCH  18  19
HETATM   19  C   UNL     1      -6.679  16.258  68.120  1.00  0.00    -0.132 C  
BRANCH  19  20
HETATM   20  C   UNL     1      -6.843  14.888  67.525  1.00  0.00    -0.189 C  
HETATM   21  C   UNL     1      -7.832  14.044  67.852  1.00  0.00    -0.161 C  
HETATM   22  C   UNL     1      -7.992  12.667  67.257  1.00  0.00    -0.166 C  
HETATM   23  C   UNL     1      -9.308  12.577  66.484  1.00  0.00    -0.233 C  
HETATM   24  C   UNL     1      -7.942  11.610  68.360  1.00  0.00    -0.140 C  
ENDBRANCH  19  20
ENDBRANCH  18  19
ENDBRANCH  17  18
ENDBRANCH  16  17
ENDBRANCH  13  16
ENDBRANCH  11  12
ENDBRANCH   9  11
ENDBRANCH   2   3
TORSDOF 8
ENDMDL
MODEL      225
REMARK 921   NORMALIZED FREE ENERGY PREDICTED BY IDOCK:   -3.99 KCAL/MOL
REMARK 922        TOTAL FREE ENERGY PREDICTED BY IDOCK:   -7.07 KCAL/MOL
REMARK 923 INTER-LIGAND FREE ENERGY PREDICTED BY IDOCK:   -6.34 KCAL/MOL
REMARK 924 INTRA-LIGAND FREE ENERGY PREDICTED BY IDOCK:   -0.73 KCAL/MOL
REMARK 927      BINDING AFFINITY PREDICTED BY RF-SCORE:    0.00 PKD
ROOT
HETATM    1  C   UNL     1     -11.533   5.709  72.576  1.00  0.00    -0.279 C  
HETATM    2  O   UNL     1     -10.660   6.164  71.550  1.00  0.00    -0.224 OA 
ENDROOT
BRANCH   2   3
HETATM    3  C   UNL     1     -10.866   7.442  71.093  1.00  0.00    -0.242 A  
HETATM    4  C   UNL     1      -9.954   7.877  70.126  1.00  0.00    -0.190 A  
HETATM    5  O   UNL     1      -8.938   7.059  69.716  1.00  0.00    -0.141 OA 
HETATM    6  C   UNL     1     -10.039   9.145  69.565  1.00  0.00    -0.202 A  
HETATM    7  C   UNL     1     -11.034  10.018  70.005  1.00  0.00    -0.352 A  
HETATM    8  H   UNL     1      -8.319   7.354  69.059  1.00  0.00     0.000 HD 
HETATM    9  C   UNL     1     -11.934   9.625  71.008  1.00  0.00    -0.427 A  
HETATM   10  C   UNL     1     -11.864   8.318  71.524  1.00  0.00    -0.335 A  
BRANCH   9  11
HETATM   11  C   UNL     1     -12.939  10.609  71.549  1.00  0.00    -0.461 C  
BRANCH  11  12
HETATM   12  N   UNL     1     -12.681  11.953  71.095  1.00  0.00    -0.344 N  
HETATM   13  C   UNL     1     -13.270  13.022  71.728  1.00  0.00    -0.392 C  
HETATM   14  H   UNL     1     -12.060  12.112  70.302  1.00  0.00     0.000 HD 
HETATM   15  O   UNL     1     -14.023  12.905  72.689  1.00  0.00    -0.589 OA 
BRANCH  13  16
HETATM   16  C   UNL     1     -12.921  14.365  71.118  1.00  0.00    -0.419 C  
BRANCH  16  17
HETATM   17  C   UNL     1     -12.279  14.229  69.738  1.00  0.00    -0.390 C  
BRANCH  17  18
HETATM   18  C   UNL     1     -11.022  15.096  69.597  1.00  0.00    -0.291 C  
BRANCH  18  19
HETATM   19  C   UNL     1     -10.731  15.427  68.134  1.00  0.00    -0.271 C  
BRANCH  19  20
HETATM   20  C   UNL     1      -9.268  15.699  67.926  1.00  0.00    -0.190 C  
HETATM   21  C   UNL     1      -8.299  15.233  68.725  1.00  0.00    -0.179 C  
HETATM   22  C   UNL     1      -6.831  15.511  68.517  1.00  0.00    -0.114 C  
HETATM   23  C   UNL     1      -6.080  14.207  68.252  1.00  0.00    -0.118 C  
HETATM   24  C   UNL     1      -6.255  16.226  69.740  1.00  0.00    -0.192 C  
ENDBRANCH  19  20
ENDBRANCH  18  19
ENDBRANCH  17  18
ENDBRANCH  16  17
ENDBRANCH  13  16
ENDBRANCH  11  12
ENDBRANCH   9  11
ENDBRANCH   2   3
TORSDOF 8
ENDMDL
MODEL      226
REMARK 921   NORMALIZED FREE ENERGY PREDICTED BY IDOCK:   -3.99 KCAL/MOL
REMARK 922        TOTAL FREE ENERGY PREDICTED BY IDOCK:   -7.07 KCAL/MOL
REMARK 923 INTER-LIGAND FREE ENERGY PREDICTED BY IDOCK:   -6.34 KCAL/MOL
REMARK 924 INTRA-LIGAND FREE ENERGY PREDICTED BY IDOCK:   -0.73 KCAL/MOL
REMARK 927      BINDING AFFINITY PREDICTED BY RF-SCORE:    0.00 PKD
ROOT
HETATM    1  C   UNL     1      -8.086  17.016  66.082  1.00  0.00    -0.257 C  
HETATM    2  O   UNL     1      -9.466  17.360  66.079  1.00  0.00    -0.473 OA 
ENDROOT
BRANCH   2   3
HETATM    3  C   UNL     1     -10.335  16.408  66.549  1.00  0.00    -0.303 A  
HETATM    4  C   UNL     1     -10.703  16.555  67.891  1.00  0.00    -0.337 A  
HETATM    5  O   UNL     1     -10.188  17.577  68.640  1.00  0.00    -0.335 OA 
HETATM    6  C   UNL     1     -11.579  15.671  68.506  1.00  0.00    -0.378 A  
HETATM    7  C   UNL     1     -12.077  14.590  67.778  1.00  0.00    -0.269 A  
HETATM    8  H   UNL     1     -10.437  17.677  69.551  1.00  0.00     0.000 HD 
HETATM    9  C   UNL     1     -11.689  14.390  66.443  1.00  0.00    -0.397 A  
HETATM   10  C   UNL     1     -10.841  15.328  65.825  1.00  0.00    -0.363 A  
BRANCH   9  11
HETATM   11  C   UNL     1     -12.150  13.164  65.698  1.00  0.00    -0.449 C  
BRANCH  11  12
HETATM   12  N   UNL     1     -11.155  12.119  65.704  1.00  0.00    -0.306 N  
HETATM   13  C   UNL     1     -11.133  11.192  66.718  1.00  0.00    -0.214 C  
HETATM   14  H   UNL     1     -10.467  12.068  64.953  1.00  0.00     0.000 HD 
HETATM   15  O   UNL     1     -11.932  11.190  67.648  1.00  0.00    -0.613 OA 
BRANCH  13  16
HETATM   16  C   UNL     1     -10.015  10.176  66.596  1.00  0.00    -0.272 C  
BRANCH  16  17
HETATM   17  C   UNL     1      -9.094  10.462  65.410  1.00  0.00    -0.221 C  
BRANCH  17  18
HETATM   18  C   UNL     1      -8.873   9.221  64.537  1.00  0.00    -0.203 C  
BRANCH  18  19
HETATM   19  C   UNL     1      -7.600   8.477  64.935  1.00  0.00    -0.098 C  
BRANCH  19  20
HETATM   20  C   UNL     1      -7.906   7.060  65.330  1.00  0.00    -0.121 C  
HETATM   21  C   UNL     1      -8.901   6.712  66.158  1.00  0.00    -0.160 C  
HETATM   22  C   UNL     1      -9.204   5.289  66.557  1.00  0.00    -0.139 C  
HETATM   23  C   UNL     1     -10.599   4.893  66.074  1.00  0.00    -0.312 C  
HETATM   24  C   UNL     1      -9.096   5.136  68.074  1.00  0.00    -0.123 C  
ENDBRANCH  19  20
ENDBRANCH  18  19
ENDBRANCH  17  18
ENDBRANCH  16  17
ENDBRANCH  13  16
ENDBRANCH  11  12
ENDBRANCH   9  11
ENDBRANCH   2   3
TORSDOF 8
ENDMDL
MODEL      227
REMARK 921   NORMALIZED FREE ENERGY PREDICTED BY IDOCK:   -3.99 KCAL/MOL
REMARK 922        TOTAL FREE ENERGY PREDICTED BY IDOCK:   -7.06 KCAL/MOL
REMARK 923 INTER-LIGAND FREE ENERGY PREDICTED BY IDOCK:   -6.60 KCAL/MOL
REMARK 924 INTRA-LIGAND FREE ENERGY PREDICTED BY IDOCK:   -0.46 KCAL/MOL
REMARK 927      BINDING AFFINITY PREDICTED BY RF-SCORE:    0.00 PKD
ROOT
HETATM    1  C   UNL     1      -7.851   4.515  72.469  1.00  0.00    -0.087 C  
HETATM    2  O   UNL     1      -9.007   3.913  71.900  1.00  0.00    -0.108 OA 
ENDROOT
BRANCH   2   3
HETATM    3  C   UNL     1      -9.786   4.715  71.104  1.00  0.00    -0.181 A  
HETATM    4  C   UNL     1      -9.470   4.682  69.742  1.00  0.00    -0.168 A  
HETATM    5  O   UNL     1      -8.437   3.907  69.291  1.00  0.00    -0.067 OA 
HETATM    6  C   UNL     1     -10.174   5.436  68.813  1.00  0.00    -0.252 A  
HETATM    7  C   UNL     1     -11.197   6.275  69.254  1.00  0.00    -0.458 A  
HETATM    8  H   UNL     1      -8.222   3.883  68.366  1.00  0.00     0.000 HD 
HETATM    9  C   UNL     1     -11.506   6.364  70.621  1.00  0.00    -0.426 A  
HETATM   10  C   UNL     1     -10.815   5.551  71.538  1.00  0.00    -0.263 A  
BRANCH   9  11
HETATM   11  C   UNL     1     -12.542   7.349  71.098  1.00  0.00    -0.293 C  
BRANCH  11  12
HETATM   12  N   UNL     1     -12.183   8.710  70.786  1.00  0.00    -0.488 N  
HETATM   13  C   UNL     1     -12.826   9.755  71.405  1.00  0.00    -0.392 C  
HETATM   14  H   UNL     1     -11.448   8.898  70.104  1.00  0.00     0.000 HD 
HETATM   15  O   UNL     1     -13.714   9.602  72.238  1.00  0.00    -0.417 OA 
BRANCH  13  16
HETATM   16  C   UNL     1     -12.354  11.122  70.953  1.00  0.00    -0.500 C  
BRANCH  16  17
HETATM   17  C   UNL     1     -12.041  11.165  69.457  1.00  0.00    -0.396 C  
BRANCH  17  18
HETATM   18  C   UNL     1     -11.880  12.599  68.941  1.00  0.00    -0.345 C  
BRANCH  18  19
HETATM   19  C   UNL     1     -11.464  12.622  67.471  1.00  0.00    -0.397 C  
BRANCH  19  20
HETATM   20  C   UNL     1     -10.680  13.863  67.154  1.00  0.00    -0.282 C  
HETATM   21  C   UNL     1     -10.492  14.871  68.017  1.00  0.00    -0.246 C  
HETATM   22  C   UNL     1      -9.707  16.119  67.696  1.00  0.00    -0.233 C  
HETATM   23  C   UNL     1      -8.486  16.224  68.609  1.00  0.00    -0.221 C  
HETATM   24  C   UNL     1     -10.599  17.351  67.845  1.00  0.00    -0.383 C  
ENDBRANCH  19  20
ENDBRANCH  18  19
ENDBRANCH  17  18
ENDBRANCH  16  17
ENDBRANCH  13  16
ENDBRANCH  11  12
ENDBRANCH   9  11
ENDBRANCH   2   3
TORSDOF 8
ENDMDL
MODEL      228
REMARK 921   NORMALIZED FREE ENERGY PREDICTED BY IDOCK:   -3.98 KCAL/MOL
REMARK 922        TOTAL FREE ENERGY PREDICTED BY IDOCK:   -7.05 KCAL/MOL
REMARK 923 INTER-LIGAND FREE ENERGY PREDICTED BY IDOCK:   -5.80 KCAL/MOL
REMARK 924 INTRA-LIGAND FREE ENERGY PREDICTED BY IDOCK:   -1.25 KCAL/MOL
REMARK 927      BINDING AFFINITY PREDICTED BY RF-SCORE:    0.00 PKD
ROOT
HETATM    1  C   UNL     1     -14.407   8.517  72.337  1.00  0.00    -0.320 C  
HETATM    2  O   UNL     1     -13.339   9.393  72.676  1.00  0.00    -0.395 OA 
ENDROOT
BRANCH   2   3
HETATM    3  C   UNL     1     -12.471   9.719  71.666  1.00  0.00    -0.410 A  
HETATM    4  C   UNL     1     -11.267   9.006  71.667  1.00  0.00    -0.361 A  
HETATM    5  O   UNL     1     -11.016   8.077  72.639  1.00  0.00    -0.334 OA 
HETATM    6  C   UNL     1     -10.292   9.222  70.703  1.00  0.00    -0.326 A  
HETATM    7  C   UNL     1     -10.502  10.202  69.732  1.00  0.00    -0.301 A  
HETATM    8  H   UNL     1     -10.200   7.592  72.641  1.00  0.00     0.000 HD 
HETATM    9  C   UNL     1     -11.680  10.966  69.734  1.00  0.00    -0.413 A  
HETATM   10  C   UNL     1     -12.677  10.693  70.688  1.00  0.00    -0.445 A  
BRANCH   9  11
HETATM   11  C   UNL     1     -11.852  12.090  68.745  1.00  0.00    -0.302 C  
BRANCH  11  12
HETATM   12  N   UNL     1     -10.984  11.945  67.602  1.00  0.00    -0.222 N  
HETATM   13  C   UNL     1     -11.474  12.140  66.333  1.00  0.00    -0.370 C  
HETATM   14  H   UNL     1     -10.003  11.698  67.736  1.00  0.00     0.000 HD 
HETATM   15  O   UNL     1     -12.639  12.444  66.099  1.00  0.00    -0.358 OA 
BRANCH  13  16
HETATM   16  C   UNL     1     -10.447  11.927  65.238  1.00  0.00    -0.317 C  
BRANCH  16  17
HETATM   17  C   UNL     1     -10.258  10.449  64.897  1.00  0.00    -0.330 C  
BRANCH  17  18
HETATM   18  C   UNL     1      -8.799  10.003  65.052  1.00  0.00    -0.213 C  
BRANCH  18  19
HETATM   19  C   UNL     1      -7.968  11.054  65.787  1.00  0.00    -0.013 C  
BRANCH  19  20
HETATM   20  C   UNL     1      -7.655  10.609  67.187  1.00  0.00    -0.099 C  
HETATM   21  C   UNL     1      -7.153   9.405  67.495  1.00  0.00    -0.078 C  
HETATM   22  C   UNL     1      -6.843   8.957  68.902  1.00  0.00    -0.061 C  
HETATM   23  C   UNL     1      -5.347   8.686  69.051  1.00  0.00    -0.036 C  
HETATM   24  C   UNL     1      -7.654   7.707  69.244  1.00  0.00    -0.096 C  
ENDBRANCH  19  20
ENDBRANCH  18  19
ENDBRANCH  17  18
ENDBRANCH  16  17
ENDBRANCH  13  16
ENDBRANCH  11  12
ENDBRANCH   9  11
ENDBRANCH   2   3
TORSDOF 8
ENDMDL
MODEL      229
REMARK 921   NORMALIZED FREE ENERGY PREDICTED BY IDOCK:   -3.98 KCAL/MOL
REMARK 922        TOTAL FREE ENERGY PREDICTED BY IDOCK:   -7.05 KCAL/MOL
REMARK 923 INTER-LIGAND FREE ENERGY PREDICTED BY IDOCK:   -6.30 KCAL/MOL
REMARK 924 INTRA-LIGAND FREE ENERGY PREDICTED BY IDOCK:   -0.76 KCAL/MOL
REMARK 927      BINDING AFFINITY PREDICTED BY RF-SCORE:    0.00 PKD
ROOT
HETATM    1  C   UNL     1     -13.256   8.801  72.386  1.00  0.00    -0.394 C  
HETATM    2  O   UNL     1     -11.834   8.762  72.374  1.00  0.00    -0.357 OA 
ENDROOT
BRANCH   2   3
HETATM    3  C   UNL     1     -11.257   7.582  71.977  1.00  0.00    -0.257 A  
HETATM    4  C   UNL     1     -10.652   6.846  73.001  1.00  0.00    -0.278 A  
HETATM    5  O   UNL     1     -10.645   7.322  74.283  1.00  0.00    -0.535 OA 
HETATM    6  C   UNL     1     -10.032   5.629  72.752  1.00  0.00    -0.195 A  
HETATM    7  C   UNL     1      -9.979   5.147  71.445  1.00  0.00    -0.252 A  
HETATM    8  H   UNL     1     -10.235   6.823  74.978  1.00  0.00     0.000 HD 
HETATM    9  C   UNL     1     -10.536   5.887  70.389  1.00  0.00    -0.353 A  
HETATM   10  C   UNL     1     -11.206   7.091  70.671  1.00  0.00    -0.327 A  
BRANCH   9  11
HETATM   11  C   UNL     1     -10.384   5.408  68.968  1.00  0.00    -0.212 C  
BRANCH  11  12
HETATM   12  N   UNL     1      -9.492   6.247  68.206  1.00  0.00    -0.118 N  
HETATM   13  C   UNL     1      -9.703   6.438  66.861  1.00  0.00    -0.153 C  
HETATM   14  H   UNL     1      -8.703   6.701  68.666  1.00  0.00     0.000 HD 
HETATM   15  O   UNL     1     -10.634   5.928  66.246  1.00  0.00    -0.134 OA 
BRANCH  13  16
HETATM   16  C   UNL     1      -8.668   7.323  66.197  1.00  0.00    -0.170 C  
BRANCH  16  17
HETATM   17  C   UNL     1      -8.611   8.719  66.818  1.00  0.00    -0.122 C  
BRANCH  17  18
HETATM   18  C   UNL     1      -9.799   9.589  66.392  1.00  0.00    -0.320 C  
BRANCH  18  19
HETATM   19  C   UNL     1      -9.827   9.796  64.878  1.00  0.00    -0.183 C  
BRANCH  19  20
HETATM   20  C   UNL     1     -10.395  11.143  64.531  1.00  0.00    -0.400 C  
HETATM   21  C   UNL     1     -10.713  12.078  65.437  1.00  0.00    -0.330 C  
HETATM   22  C   UNL     1     -11.287  13.428  65.087  1.00  0.00    -0.316 C  
HETATM   23  C   UNL     1     -10.328  14.537  65.520  1.00  0.00    -0.379 C  
HETATM   24  C   UNL     1     -12.652  13.606  65.752  1.00  0.00    -0.511 C  
ENDBRANCH  19  20
ENDBRANCH  18  19
ENDBRANCH  17  18
ENDBRANCH  16  17
ENDBRANCH  13  16
ENDBRANCH  11  12
ENDBRANCH   9  11
ENDBRANCH   2   3
TORSDOF 8
ENDMDL
MODEL      230
REMARK 921   NORMALIZED FREE ENERGY PREDICTED BY IDOCK:   -3.98 KCAL/MOL
REMARK 922        TOTAL FREE ENERGY PREDICTED BY IDOCK:   -7.05 KCAL/MOL
REMARK 923 INTER-LIGAND FREE ENERGY PREDICTED BY IDOCK:   -6.38 KCAL/MOL
REMARK 924 INTRA-LIGAND FREE ENERGY PREDICTED BY IDOCK:   -0.66 KCAL/MOL
REMARK 927      BINDING AFFINITY PREDICTED BY RF-SCORE:    0.00 PKD
ROOT
HETATM    1  C   UNL     1      -8.076   5.692  65.267  1.00  0.00    -0.125 C  
HETATM    2  O   UNL     1      -8.501   5.989  66.592  1.00  0.00    -0.109 OA 
ENDROOT
BRANCH   2   3
HETATM    3  C   UNL     1      -9.115   7.202  66.780  1.00  0.00    -0.147 A  
HETATM    4  C   UNL     1      -9.732   7.364  68.025  1.00  0.00    -0.144 A  
HETATM    5  O   UNL     1      -9.714   6.350  68.943  1.00  0.00    -0.126 OA 
HETATM    6  C   UNL     1     -10.388   8.539  68.364  1.00  0.00    -0.241 A  
HETATM    7  C   UNL     1     -10.466   9.569  67.425  1.00  0.00    -0.336 A  
HETATM    8  H   UNL     1     -10.132   6.459  69.788  1.00  0.00     0.000 HD 
HETATM    9  C   UNL     1      -9.897   9.416  66.151  1.00  0.00    -0.356 A  
HETATM   10  C   UNL     1      -9.190   8.238  65.849  1.00  0.00    -0.185 A  
BRANCH   9  11
HETATM   11  C   UNL     1     -10.075  10.492  65.111  1.00  0.00    -0.314 C  
BRANCH  11  12
HETATM   12  N   UNL     1     -11.087  11.448  65.486  1.00  0.00    -0.194 N  
HETATM   13  C   UNL     1     -11.594  12.320  64.553  1.00  0.00    -0.353 C  
HETATM   14  H   UNL     1     -11.427  11.477  66.447  1.00  0.00     0.000 HD 
HETATM   15  O   UNL     1     -11.235  12.337  63.380  1.00  0.00    -0.438 OA 
BRANCH  13  16
HETATM   16  C   UNL     1     -12.630  13.279  65.107  1.00  0.00    -0.512 C  
BRANCH  16  17
HETATM   17  C   UNL     1     -11.995  14.488  65.794  1.00  0.00    -0.309 C  
BRANCH  17  18
HETATM   18  C   UNL     1     -11.954  14.330  67.318  1.00  0.00    -0.439 C  
BRANCH  18  19
HETATM   19  C   UNL     1     -10.548  14.569  67.868  1.00  0.00    -0.243 C  
BRANCH  19  20
HETATM   20  C   UNL     1      -9.995  15.877  67.378  1.00  0.00    -0.239 C  
HETATM   21  C   UNL     1     -10.114  17.036  68.041  1.00  0.00    -0.305 C  
HETATM   22  C   UNL     1      -9.562  18.349  67.545  1.00  0.00    -0.293 C  
HETATM   23  C   UNL     1      -8.503  18.874  68.513  1.00  0.00    -0.384 C  
HETATM   24  C   UNL     1     -10.693  19.365  67.381  1.00  0.00    -0.594 C  
ENDBRANCH  19  20
ENDBRANCH  18  19
ENDBRANCH  17  18
ENDBRANCH  16  17
ENDBRANCH  13  16
ENDBRANCH  11  12
ENDBRANCH   9  11
ENDBRANCH   2   3
TORSDOF 8
ENDMDL
MODEL      231
REMARK 921   NORMALIZED FREE ENERGY PREDICTED BY IDOCK:   -3.97 KCAL/MOL
REMARK 922        TOTAL FREE ENERGY PREDICTED BY IDOCK:   -7.04 KCAL/MOL
REMARK 923 INTER-LIGAND FREE ENERGY PREDICTED BY IDOCK:   -6.26 KCAL/MOL
REMARK 924 INTRA-LIGAND FREE ENERGY PREDICTED BY IDOCK:   -0.78 KCAL/MOL
REMARK 927      BINDING AFFINITY PREDICTED BY RF-SCORE:    0.00 PKD
ROOT
HETATM    1  C   UNL     1     -13.612   7.395  71.534  1.00  0.00    -0.370 C  
HETATM    2  O   UNL     1     -12.537   6.525  71.866  1.00  0.00    -0.341 OA 
ENDROOT
BRANCH   2   3
HETATM    3  C   UNL     1     -11.273   6.981  71.592  1.00  0.00    -0.245 A  
HETATM    4  C   UNL     1     -10.558   7.444  72.702  1.00  0.00    -0.275 A  
HETATM    5  O   UNL     1     -11.132   7.441  73.943  1.00  0.00    -0.488 OA 
HETATM    6  C   UNL     1      -9.264   7.931  72.582  1.00  0.00    -0.269 A  
HETATM    7  C   UNL     1      -8.675   7.994  71.318  1.00  0.00    -0.159 A  
HETATM    8  H   UNL     1     -10.647   7.755  74.697  1.00  0.00     0.000 HD 
HETATM    9  C   UNL     1      -9.386   7.580  70.180  1.00  0.00    -0.157 A  
HETATM   10  C   UNL     1     -10.676   7.041  70.332  1.00  0.00    -0.259 A  
BRANCH   9  11
HETATM   11  C   UNL     1      -8.781   7.748  68.810  1.00  0.00    -0.128 C  
BRANCH  11  12
HETATM   12  N   UNL     1      -9.110   9.024  68.224  1.00  0.00    -0.133 N  
HETATM   13  C   UNL     1     -10.103   9.115  67.278  1.00  0.00    -0.233 C  
HETATM   14  H   UNL     1      -8.605   9.862  68.513  1.00  0.00     0.000 HD 
HETATM   15  O   UNL     1     -10.754   8.151  66.889  1.00  0.00    -0.309 OA 
BRANCH  13  16
HETATM   16  C   UNL     1     -10.313  10.517  66.740  1.00  0.00    -0.301 C  
BRANCH  16  17
HETATM   17  C   UNL     1     -10.387  11.562  67.853  1.00  0.00    -0.203 C  
BRANCH  17  18
HETATM   18  C   UNL     1     -11.832  11.882  68.250  1.00  0.00    -0.343 C  
BRANCH  18  19
HETATM   19  C   UNL     1     -11.940  13.253  68.917  1.00  0.00    -0.336 C  
BRANCH  19  20
HETATM   20  C   UNL     1     -11.763  14.355  67.912  1.00  0.00    -0.388 C  
HETATM   21  C   UNL     1     -10.707  15.180  67.884  1.00  0.00    -0.268 C  
HETATM   22  C   UNL     1     -10.533  16.289  66.876  1.00  0.00    -0.302 C  
HETATM   23  C   UNL     1      -9.293  16.034  66.021  1.00  0.00    -0.380 C  
HETATM   24  C   UNL     1     -10.426  17.635  67.593  1.00  0.00    -0.372 C  
ENDBRANCH  19  20
ENDBRANCH  18  19
ENDBRANCH  17  18
ENDBRANCH  16  17
ENDBRANCH  13  16
ENDBRANCH  11  12
ENDBRANCH   9  11
ENDBRANCH   2   3
TORSDOF 8
ENDMDL
MODEL      232
REMARK 921   NORMALIZED FREE ENERGY PREDICTED BY IDOCK:   -3.97 KCAL/MOL
REMARK 922        TOTAL FREE ENERGY PREDICTED BY IDOCK:   -7.03 KCAL/MOL
REMARK 923 INTER-LIGAND FREE ENERGY PREDICTED BY IDOCK:   -6.31 KCAL/MOL
REMARK 924 INTRA-LIGAND FREE ENERGY PREDICTED BY IDOCK:   -0.72 KCAL/MOL
REMARK 927      BINDING AFFINITY PREDICTED BY RF-SCORE:    0.00 PKD
ROOT
HETATM    1  C   UNL     1     -10.393  14.999  69.375  1.00  0.00    -0.235 C  
HETATM    2  O   UNL     1     -11.769  14.692  69.182  1.00  0.00    -0.278 OA 
ENDROOT
BRANCH   2   3
HETATM    3  C   UNL     1     -12.356  13.891  70.128  1.00  0.00    -0.334 A  
HETATM    4  C   UNL     1     -13.089  14.571  71.106  1.00  0.00    -0.359 A  
HETATM    5  O   UNL     1     -13.165  15.937  71.087  1.00  0.00    -0.580 OA 
HETATM    6  C   UNL     1     -13.744  13.895  72.126  1.00  0.00    -0.619 A  
HETATM    7  C   UNL     1     -13.638  12.506  72.198  1.00  0.00    -0.458 A  
HETATM    8  H   UNL     1     -13.663  16.399  71.750  1.00  0.00     0.000 HD 
HETATM    9  C   UNL     1     -12.871  11.800  71.258  1.00  0.00    -0.409 A  
HETATM   10  C   UNL     1     -12.259  12.500  70.202  1.00  0.00    -0.307 A  
BRANCH   9  11
HETATM   11  C   UNL     1     -12.678  10.312  71.404  1.00  0.00    -0.442 C  
BRANCH  11  12
HETATM   12  N   UNL     1     -11.288   9.935  71.332  1.00  0.00    -0.340 N  
HETATM   13  C   UNL     1     -10.822   8.869  72.063  1.00  0.00    -0.334 C  
HETATM   14  H   UNL     1     -10.648  10.461  70.736  1.00  0.00     0.000 HD 
HETATM   15  O   UNL     1     -11.535   8.190  72.794  1.00  0.00    -0.408 OA 
BRANCH  13  16
HETATM   16  C   UNL     1      -9.337   8.614  71.900  1.00  0.00    -0.357 C  
BRANCH  16  17
HETATM   17  C   UNL     1      -8.929   7.220  72.375  1.00  0.00    -0.149 C  
BRANCH  17  18
HETATM   18  C   UNL     1      -7.821   6.614  71.506  1.00  0.00    -0.099 C  
BRANCH  18  19
HETATM   19  C   UNL     1      -8.399   5.784  70.360  1.00  0.00    -0.121 C  
BRANCH  19  20
HETATM   20  C   UNL     1      -8.292   6.520  69.055  1.00  0.00    -0.116 C  
HETATM   21  C   UNL     1      -7.627   7.674  68.899  1.00  0.00    -0.101 C  
HETATM   22  C   UNL     1      -7.524   8.414  67.589  1.00  0.00    -0.094 C  
HETATM   23  C   UNL     1      -6.065   8.487  67.139  1.00  0.00    -0.055 C  
HETATM   24  C   UNL     1      -8.115   9.817  67.733  1.00  0.00    -0.113 C  
ENDBRANCH  19  20
ENDBRANCH  18  19
ENDBRANCH  17  18
ENDBRANCH  16  17
ENDBRANCH  13  16
ENDBRANCH  11  12
ENDBRANCH   9  11
ENDBRANCH   2   3
TORSDOF 8
ENDMDL
MODEL      233
REMARK 921   NORMALIZED FREE ENERGY PREDICTED BY IDOCK:   -3.97 KCAL/MOL
REMARK 922        TOTAL FREE ENERGY PREDICTED BY IDOCK:   -7.03 KCAL/MOL
REMARK 923 INTER-LIGAND FREE ENERGY PREDICTED BY IDOCK:   -5.91 KCAL/MOL
REMARK 924 INTRA-LIGAND FREE ENERGY PREDICTED BY IDOCK:   -1.12 KCAL/MOL
REMARK 927      BINDING AFFINITY PREDICTED BY RF-SCORE:    0.00 PKD
ROOT
HETATM    1  C   UNL     1      -8.271   4.633  72.982  1.00  0.00    -0.100 C  
HETATM    2  O   UNL     1      -9.388   4.041  72.331  1.00  0.00    -0.116 OA 
ENDROOT
BRANCH   2   3
HETATM    3  C   UNL     1     -10.125   4.860  71.512  1.00  0.00    -0.197 A  
HETATM    4  C   UNL     1      -9.950   4.638  70.142  1.00  0.00    -0.233 A  
HETATM    5  O   UNL     1      -9.081   3.678  69.704  1.00  0.00    -0.100 OA 
HETATM    6  C   UNL     1     -10.632   5.385  69.192  1.00  0.00    -0.241 A  
HETATM    7  C   UNL     1     -11.484   6.406  69.613  1.00  0.00    -0.446 A  
HETATM    8  H   UNL     1      -8.962   3.526  68.773  1.00  0.00     0.000 HD 
HETATM    9  C   UNL     1     -11.643   6.683  70.980  1.00  0.00    -0.399 A  
HETATM   10  C   UNL     1     -10.983   5.879  71.927  1.00  0.00    -0.321 A  
BRANCH   9  11
HETATM   11  C   UNL     1     -12.485   7.853  71.421  1.00  0.00    -0.309 C  
BRANCH  11  12
HETATM   12  N   UNL     1     -12.076   9.084  70.790  1.00  0.00    -0.466 N  
HETATM   13  C   UNL     1     -12.556  10.288  71.248  1.00  0.00    -0.418 C  
HETATM   14  H   UNL     1     -11.427   9.062  70.003  1.00  0.00     0.000 HD 
HETATM   15  O   UNL     1     -13.333  10.390  72.191  1.00  0.00    -0.441 OA 
BRANCH  13  16
HETATM   16  C   UNL     1     -12.054  11.486  70.467  1.00  0.00    -0.472 C  
BRANCH  16  17
HETATM   17  C   UNL     1     -12.133  11.271  68.955  1.00  0.00    -0.325 C  
BRANCH  17  18
HETATM   18  C   UNL     1     -10.857  11.730  68.240  1.00  0.00    -0.259 C  
BRANCH  18  19
HETATM   19  C   UNL     1     -10.802  11.208  66.804  1.00  0.00    -0.322 C  
BRANCH  19  20
HETATM   20  C   UNL     1     -10.133   9.864  66.746  1.00  0.00    -0.292 C  
HETATM   21  C   UNL     1      -8.889   9.628  67.185  1.00  0.00    -0.141 C  
HETATM   22  C   UNL     1      -8.216   8.279  67.122  1.00  0.00    -0.119 C  
HETATM   23  C   UNL     1      -7.905   7.779  68.532  1.00  0.00    -0.120 C  
HETATM   24  C   UNL     1      -6.938   8.369  66.288  1.00  0.00    -0.073 C  
ENDBRANCH  19  20
ENDBRANCH  18  19
ENDBRANCH  17  18
ENDBRANCH  16  17
ENDBRANCH  13  16
ENDBRANCH  11  12
ENDBRANCH   9  11
ENDBRANCH   2   3
TORSDOF 8
ENDMDL
MODEL      234
REMARK 921   NORMALIZED FREE ENERGY PREDICTED BY IDOCK:   -3.97 KCAL/MOL
REMARK 922        TOTAL FREE ENERGY PREDICTED BY IDOCK:   -7.03 KCAL/MOL
REMARK 923 INTER-LIGAND FREE ENERGY PREDICTED BY IDOCK:   -6.64 KCAL/MOL
REMARK 924 INTRA-LIGAND FREE ENERGY PREDICTED BY IDOCK:   -0.39 KCAL/MOL
REMARK 927      BINDING AFFINITY PREDICTED BY RF-SCORE:    0.00 PKD
ROOT
HETATM    1  C   UNL     1      -6.896  17.867  68.407  1.00  0.00    -0.227 C  
HETATM    2  O   UNL     1      -7.026  17.652  67.007  1.00  0.00    -0.164 OA 
ENDROOT
BRANCH   2   3
HETATM    3  C   UNL     1      -8.210  17.106  66.578  1.00  0.00    -0.273 A  
HETATM    4  C   UNL     1      -9.174  18.034  66.170  1.00  0.00    -0.113 A  
HETATM    5  O   UNL     1      -8.913  19.375  66.233  1.00  0.00    -0.346 OA 
HETATM    6  C   UNL     1     -10.419  17.632  65.706  1.00  0.00    -0.208 A  
HETATM    7  C   UNL     1     -10.729  16.272  65.681  1.00  0.00    -0.297 A  
HETATM    8  H   UNL     1      -9.567  20.005  65.956  1.00  0.00     0.000 HD 
HETATM    9  C   UNL     1      -9.798  15.321  66.129  1.00  0.00    -0.333 A  
HETATM   10  C   UNL     1      -8.523  15.747  66.545  1.00  0.00    -0.335 A  
BRANCH   9  11
HETATM   11  C   UNL     1     -10.179  13.864  66.195  1.00  0.00    -0.301 C  
BRANCH  11  12
HETATM   12  N   UNL     1     -10.490  13.445  67.540  1.00  0.00    -0.235 N  
HETATM   13  C   UNL     1     -11.478  12.516  67.764  1.00  0.00    -0.321 C  
HETATM   14  H   UNL     1      -9.974  13.838  68.327  1.00  0.00     0.000 HD 
HETATM   15  O   UNL     1     -12.133  11.999  66.865  1.00  0.00    -0.608 OA 
BRANCH  13  16
HETATM   16  C   UNL     1     -11.702  12.199  69.229  1.00  0.00    -0.386 C  
BRANCH  16  17
HETATM   17  C   UNL     1     -11.302  10.766  69.582  1.00  0.00    -0.362 C  
BRANCH  17  18
HETATM   18  C   UNL     1     -12.093  10.225  70.778  1.00  0.00    -0.451 C  
BRANCH  18  19
HETATM   19  C   UNL     1     -11.219   9.352  71.679  1.00  0.00    -0.431 C  
BRANCH  19  20
HETATM   20  C   UNL     1     -11.312   7.907  71.281  1.00  0.00    -0.289 C  
HETATM   21  C   UNL     1     -10.253   7.145  70.973  1.00  0.00    -0.205 C  
HETATM   22  C   UNL     1     -10.348   5.695  70.569  1.00  0.00    -0.327 C  
HETATM   23  C   UNL     1      -9.624   4.816  71.588  1.00  0.00    -0.216 C  
HETATM   24  C   UNL     1      -9.758   5.500  69.172  1.00  0.00    -0.208 C  
ENDBRANCH  19  20
ENDBRANCH  18  19
ENDBRANCH  17  18
ENDBRANCH  16  17
ENDBRANCH  13  16
ENDBRANCH  11  12
ENDBRANCH   9  11
ENDBRANCH   2   3
TORSDOF 8
ENDMDL
MODEL      235
REMARK 921   NORMALIZED FREE ENERGY PREDICTED BY IDOCK:   -3.96 KCAL/MOL
REMARK 922        TOTAL FREE ENERGY PREDICTED BY IDOCK:   -7.02 KCAL/MOL
REMARK 923 INTER-LIGAND FREE ENERGY PREDICTED BY IDOCK:   -6.29 KCAL/MOL
REMARK 924 INTRA-LIGAND FREE ENERGY PREDICTED BY IDOCK:   -0.73 KCAL/MOL
REMARK 927      BINDING AFFINITY PREDICTED BY RF-SCORE:    0.00 PKD
ROOT
HETATM    1  C   UNL     1     -12.510  11.848  63.436  1.00  0.00    -0.463 C  
HETATM    2  O   UNL     1     -11.323  12.632  63.446  1.00  0.00    -0.482 OA 
ENDROOT
BRANCH   2   3
HETATM    3  C   UNL     1     -10.935  13.139  64.660  1.00  0.00    -0.356 A  
HETATM    4  C   UNL     1     -11.207  14.499  64.846  1.00  0.00    -0.391 A  
HETATM    5  O   UNL     1     -11.799  15.228  63.852  1.00  0.00    -0.876 OA 
HETATM    6  C   UNL     1     -10.876  15.151  66.026  1.00  0.00    -0.335 A  
HETATM    7  C   UNL     1     -10.224  14.443  67.035  1.00  0.00    -0.263 A  
HETATM    8  H   UNL     1     -11.984  16.151  63.978  1.00  0.00     0.000 HD 
HETATM    9  C   UNL     1      -9.896  13.089  66.858  1.00  0.00    -0.240 A  
HETATM   10  C   UNL     1     -10.288  12.435  65.676  1.00  0.00    -0.284 A  
BRANCH   9  11
HETATM   11  C   UNL     1      -9.101  12.360  67.910  1.00  0.00    -0.191 C  
BRANCH  11  12
HETATM   12  N   UNL     1      -8.821  10.997  67.533  1.00  0.00    -0.130 N  
HETATM   13  C   UNL     1      -9.295   9.957  68.296  1.00  0.00    -0.132 C  
HETATM   14  H   UNL     1      -8.270  10.804  66.696  1.00  0.00     0.000 HD 
HETATM   15  O   UNL     1      -9.967  10.116  69.309  1.00  0.00    -0.195 OA 
BRANCH  13  16
HETATM   16  C   UNL     1      -8.897   8.587  67.783  1.00  0.00    -0.137 C  
BRANCH  16  17
HETATM   17  C   UNL     1      -9.745   8.142  66.592  1.00  0.00    -0.318 C  
BRANCH  17  18
HETATM   18  C   UNL     1     -10.911   7.242  67.017  1.00  0.00    -0.350 C  
BRANCH  18  19
HETATM   19  C   UNL     1     -10.449   5.806  67.262  1.00  0.00    -0.330 C  
BRANCH  19  20
HETATM   20  C   UNL     1      -9.838   5.220  66.021  1.00  0.00    -0.155 C  
HETATM   21  C   UNL     1     -10.313   4.134  65.394  1.00  0.00    -0.166 C  
HETATM   22  C   UNL     1      -9.695   3.544  64.150  1.00  0.00    -0.168 C  
HETATM   23  C   UNL     1     -10.685   3.613  62.988  1.00  0.00    -0.198 C  
HETATM   24  C   UNL     1      -9.271   2.099  64.412  1.00  0.00    -0.127 C  
ENDBRANCH  19  20
ENDBRANCH  18  19
ENDBRANCH  17  18
ENDBRANCH  16  17
ENDBRANCH  13  16
ENDBRANCH  11  12
ENDBRANCH   9  11
ENDBRANCH   2   3
TORSDOF 8
ENDMDL
MODEL      236
REMARK 921   NORMALIZED FREE ENERGY PREDICTED BY IDOCK:   -3.95 KCAL/MOL
REMARK 922        TOTAL FREE ENERGY PREDICTED BY IDOCK:   -7.00 KCAL/MOL
REMARK 923 INTER-LIGAND FREE ENERGY PREDICTED BY IDOCK:   -6.42 KCAL/MOL
REMARK 924 INTRA-LIGAND FREE ENERGY PREDICTED BY IDOCK:   -0.58 KCAL/MOL
REMARK 927      BINDING AFFINITY PREDICTED BY RF-SCORE:    0.00 PKD
ROOT
HETATM    1  C   UNL     1     -11.675   5.784  72.626  1.00  0.00    -0.203 C  
HETATM    2  O   UNL     1     -10.822   6.228  71.579  1.00  0.00    -0.236 OA 
ENDROOT
BRANCH   2   3
HETATM    3  C   UNL     1     -10.919   7.551  71.230  1.00  0.00    -0.242 A  
HETATM    4  C   UNL     1      -9.890   8.023  70.408  1.00  0.00    -0.183 A  
HETATM    5  O   UNL     1      -8.874   7.190  70.028  1.00  0.00    -0.141 OA 
HETATM    6  C   UNL     1      -9.856   9.339  69.968  1.00  0.00    -0.232 A  
HETATM    7  C   UNL     1     -10.852  10.222  70.385  1.00  0.00    -0.320 A  
HETATM    8  H   UNL     1      -8.175   7.510  69.469  1.00  0.00     0.000 HD 
HETATM    9  C   UNL     1     -11.872   9.789  71.248  1.00  0.00    -0.481 A  
HETATM   10  C   UNL     1     -11.917   8.438  71.639  1.00  0.00    -0.357 A  
BRANCH   9  11
HETATM   11  C   UNL     1     -12.884  10.773  71.775  1.00  0.00    -0.423 C  
BRANCH  11  12
HETATM   12  N   UNL     1     -12.487  12.139  71.539  1.00  0.00    -0.133 N  
HETATM   13  C   UNL     1     -13.267  13.175  71.993  1.00  0.00    -0.446 C  
HETATM   14  H   UNL     1     -11.623  12.338  71.032  1.00  0.00     0.000 HD 
HETATM   15  O   UNL     1     -14.313  13.010  72.613  1.00  0.00    -0.565 OA 
BRANCH  13  16
HETATM   16  C   UNL     1     -12.729  14.549  71.645  1.00  0.00    -0.414 C  
BRANCH  16  17
HETATM   17  C   UNL     1     -11.826  14.525  70.411  1.00  0.00    -0.378 C  
BRANCH  17  18
HETATM   18  C   UNL     1     -12.605  14.196  69.132  1.00  0.00     0.219 C  
BRANCH  18  19
HETATM   19  C   UNL     1     -11.982  13.017  68.385  1.00  0.00    -0.309 C  
BRANCH  19  20
HETATM   20  C   UNL     1     -11.097  13.495  67.270  1.00  0.00    -0.302 C  
HETATM   21  C   UNL     1     -10.671  14.760  67.142  1.00  0.00    -0.299 C  
HETATM   22  C   UNL     1      -9.786  15.239  66.018  1.00  0.00    -0.357 C  
HETATM   23  C   UNL     1      -8.452  15.735  66.573  1.00  0.00    -0.335 C  
HETATM   24  C   UNL     1     -10.489  16.348  65.234  1.00  0.00    -0.285 C  
ENDBRANCH  19  20
ENDBRANCH  18  19
ENDBRANCH  17  18
ENDBRANCH  16  17
ENDBRANCH  13  16
ENDBRANCH  11  12
ENDBRANCH   9  11
ENDBRANCH   2   3
TORSDOF 8
ENDMDL
MODEL      237
REMARK 921   NORMALIZED FREE ENERGY PREDICTED BY IDOCK:   -3.91 KCAL/MOL
REMARK 922        TOTAL FREE ENERGY PREDICTED BY IDOCK:   -6.95 KCAL/MOL
REMARK 923 INTER-LIGAND FREE ENERGY PREDICTED BY IDOCK:   -6.08 KCAL/MOL
REMARK 924 INTRA-LIGAND FREE ENERGY PREDICTED BY IDOCK:   -0.87 KCAL/MOL
REMARK 927      BINDING AFFINITY PREDICTED BY RF-SCORE:    0.00 PKD
ROOT
HETATM    1  C   UNL     1      -9.359   8.393  70.045  1.00  0.00    -0.159 C  
HETATM    2  O   UNL     1      -8.341   9.204  69.472  1.00  0.00    -0.115 OA 
ENDROOT
BRANCH   2   3
HETATM    3  C   UNL     1      -8.730  10.432  68.999  1.00  0.00    -0.168 A  
HETATM    4  C   UNL     1      -7.700  11.211  68.459  1.00  0.00    -0.129 A  
HETATM    5  O   UNL     1      -6.415  10.744  68.449  1.00  0.00    -0.054 OA 
HETATM    6  C   UNL     1      -7.942  12.474  67.937  1.00  0.00    -0.157 A  
HETATM    7  C   UNL     1      -9.235  12.994  67.984  1.00  0.00    -0.212 A  
HETATM    8  H   UNL     1      -5.715  11.272  68.083  1.00  0.00     0.000 HD 
HETATM    9  C   UNL     1     -10.280  12.254  68.562  1.00  0.00    -0.213 A  
HETATM   10  C   UNL     1     -10.023  10.955  69.037  1.00  0.00    -0.206 A  
BRANCH   9  11
HETATM   11  C   UNL     1     -11.650  12.866  68.701  1.00  0.00    -0.316 C  
BRANCH  11  12
HETATM   12  N   UNL     1     -11.975  13.729  67.592  1.00  0.00    -0.368 N  
HETATM   13  C   UNL     1     -12.290  13.192  66.367  1.00  0.00    -0.231 C  
HETATM   14  H   UNL     1     -11.972  14.741  67.718  1.00  0.00     0.000 HD 
HETATM   15  O   UNL     1     -12.319  11.986  66.147  1.00  0.00    -0.449 OA 
BRANCH  13  16
HETATM   16  C   UNL     1     -12.583  14.227  65.300  1.00  0.00    -0.405 C  
BRANCH  16  17
HETATM   17  C   UNL     1     -11.345  14.579  64.475  1.00  0.00    -0.323 C  
BRANCH  17  18
HETATM   18  C   UNL     1     -10.723  15.913  64.906  1.00  0.00    -0.365 C  
BRANCH  18  19
HETATM   19  C   UNL     1      -9.439  15.699  65.706  1.00  0.00    -0.338 C  
BRANCH  19  20
HETATM   20  C   UNL     1      -8.933  16.997  66.268  1.00  0.00    -0.282 C  
HETATM   21  C   UNL     1      -9.728  17.993  66.682  1.00  0.00    -0.332 C  
HETATM   22  C   UNL     1      -9.219  19.299  67.241  1.00  0.00    -0.357 C  
HETATM   23  C   UNL     1      -9.672  19.462  68.692  1.00  0.00    -0.504 C  
HETATM   24  C   UNL     1      -9.715  20.464  66.387  1.00  0.00    -0.400 C  
ENDBRANCH  19  20
ENDBRANCH  18  19
ENDBRANCH  17  18
ENDBRANCH  16  17
ENDBRANCH  13  16
ENDBRANCH  11  12
ENDBRANCH   9  11
ENDBRANCH   2   3
TORSDOF 8
ENDMDL
MODEL      238
REMARK 921   NORMALIZED FREE ENERGY PREDICTED BY IDOCK:   -3.91 KCAL/MOL
REMARK 922        TOTAL FREE ENERGY PREDICTED BY IDOCK:   -6.95 KCAL/MOL
REMARK 923 INTER-LIGAND FREE ENERGY PREDICTED BY IDOCK:   -6.47 KCAL/MOL
REMARK 924 INTRA-LIGAND FREE ENERGY PREDICTED BY IDOCK:   -0.48 KCAL/MOL
REMARK 927      BINDING AFFINITY PREDICTED BY RF-SCORE:    0.00 PKD
ROOT
HETATM    1  C   UNL     1     -13.750   9.078  72.029  1.00  0.00    -0.461 C  
HETATM    2  O   UNL     1     -12.785  10.121  72.082  1.00  0.00    -0.360 OA 
ENDROOT
BRANCH   2   3
HETATM    3  C   UNL     1     -11.891  10.182  71.043  1.00  0.00    -0.383 A  
HETATM    4  C   UNL     1     -10.731   9.420  71.216  1.00  0.00    -0.350 A  
HETATM    5  O   UNL     1     -10.541   8.702  72.364  1.00  0.00    -0.331 OA 
HETATM    6  C   UNL     1      -9.738   9.378  70.247  1.00  0.00    -0.292 A  
HETATM    7  C   UNL     1      -9.883  10.144  69.090  1.00  0.00    -0.225 A  
HETATM    8  H   UNL     1      -9.754   8.184  72.482  1.00  0.00     0.000 HD 
HETATM    9  C   UNL     1     -11.015  10.955  68.910  1.00  0.00    -0.278 A  
HETATM   10  C   UNL     1     -12.034  10.941  69.880  1.00  0.00    -0.430 A  
BRANCH   9  11
HETATM   11  C   UNL     1     -11.115  11.856  67.706  1.00  0.00    -0.239 C  
BRANCH  11  12
HETATM   12  N   UNL     1     -10.701  13.205  68.002  1.00  0.00    -0.227 N  
HETATM   13  C   UNL     1      -9.377  13.560  67.899  1.00  0.00    -0.215 C  
HETATM   14  H   UNL     1     -11.393  13.898  68.287  1.00  0.00     0.000 HD 
HETATM   15  O   UNL     1      -8.495  12.781  67.556  1.00  0.00    -0.159 OA 
BRANCH  13  16
HETATM   16  C   UNL     1      -9.099  15.004  68.266  1.00  0.00    -0.182 C  
BRANCH  16  17
HETATM   17  C   UNL     1      -7.664  15.421  67.943  1.00  0.00    -0.144 C  
BRANCH  17  18
HETATM   18  C   UNL     1      -7.225  16.651  68.746  1.00  0.00    -0.206 C  
BRANCH  18  19
HETATM   19  C   UNL     1      -6.495  17.664  67.865  1.00  0.00    -0.182 C  
BRANCH  19  20
HETATM   20  C   UNL     1      -7.368  18.851  67.575  1.00  0.00    -0.242 C  
HETATM   21  C   UNL     1      -8.696  18.781  67.407  1.00  0.00    -0.289 C  
HETATM   22  C   UNL     1      -9.570  19.975  67.111  1.00  0.00    -0.533 C  
HETATM   23  C   UNL     1     -10.571  20.188  68.246  1.00  0.00    -0.217 C  
HETATM   24  C   UNL     1     -10.298  19.774  65.781  1.00  0.00    -0.522 C  
ENDBRANCH  19  20
ENDBRANCH  18  19
ENDBRANCH  17  18
ENDBRANCH  16  17
ENDBRANCH  13  16
ENDBRANCH  11  12
ENDBRANCH   9  11
ENDBRANCH   2   3
TORSDOF 8
ENDMDL
MODEL      239
REMARK 921   NORMALIZED FREE ENERGY PREDICTED BY IDOCK:   -3.90 KCAL/MOL
REMARK 922        TOTAL FREE ENERGY PREDICTED BY IDOCK:   -6.94 KCAL/MOL
REMARK 923 INTER-LIGAND FREE ENERGY PREDICTED BY IDOCK:   -5.61 KCAL/MOL
REMARK 924 INTRA-LIGAND FREE ENERGY PREDICTED BY IDOCK:   -1.33 KCAL/MOL
REMARK 927      BINDING AFFINITY PREDICTED BY RF-SCORE:    0.00 PKD
ROOT
HETATM    1  C   UNL     1      -7.203   5.333  64.599  1.00  0.00    -0.058 C  
HETATM    2  O   UNL     1      -7.863   5.353  65.860  1.00  0.00    -0.100 OA 
ENDROOT
BRANCH   2   3
HETATM    3  C   UNL     1      -8.643   6.450  66.125  1.00  0.00    -0.144 A  
HETATM    4  C   UNL     1      -9.743   6.206  66.953  1.00  0.00    -0.149 A  
HETATM    5  O   UNL     1      -9.991   4.944  67.419  1.00  0.00    -0.172 OA 
HETATM    6  C   UNL     1     -10.620   7.219  67.315  1.00  0.00    -0.395 A  
HETATM    7  C   UNL     1     -10.420   8.504  66.810  1.00  0.00    -0.308 A  
HETATM    8  H   UNL     1     -10.738   4.777  67.981  1.00  0.00     0.000 HD 
HETATM    9  C   UNL     1      -9.351   8.769  65.939  1.00  0.00    -0.284 A  
HETATM   10  C   UNL     1      -8.444   7.739  65.629  1.00  0.00    -0.153 A  
BRANCH   9  11
HETATM   11  C   UNL     1      -9.203  10.134  65.318  1.00  0.00    -0.209 C  
BRANCH  11  12
HETATM   12  N   UNL     1     -10.169  11.073  65.834  1.00  0.00    -0.247 N  
HETATM   13  C   UNL     1      -9.791  12.012  66.764  1.00  0.00    -0.204 C  
HETATM   14  H   UNL     1     -11.134  11.040  65.508  1.00  0.00     0.000 HD 
HETATM   15  O   UNL     1      -8.647  12.112  67.195  1.00  0.00    -0.171 OA 
BRANCH  13  16
HETATM   16  C   UNL     1     -10.923  12.908  67.226  1.00  0.00    -0.289 C  
BRANCH  16  17
HETATM   17  C   UNL     1     -10.799  13.289  68.701  1.00  0.00    -0.285 C  
BRANCH  17  18
HETATM   18  C   UNL     1     -11.893  12.643  69.558  1.00  0.00    -0.376 C  
BRANCH  18  19
HETATM   19  C   UNL     1     -11.965  11.133  69.329  1.00  0.00    -0.421 C  
BRANCH  19  20
HETATM   20  C   UNL     1     -11.060  10.402  70.279  1.00  0.00    -0.379 C  
HETATM   21  C   UNL     1     -11.223   9.118  70.628  1.00  0.00    -0.322 C  
HETATM   22  C   UNL     1     -10.316   8.386  71.587  1.00  0.00    -0.312 C  
HETATM   23  C   UNL     1      -9.620   7.228  70.872  1.00  0.00    -0.170 C  
HETATM   24  C   UNL     1     -11.120   7.876  72.783  1.00  0.00    -0.462 C  
ENDBRANCH  19  20
ENDBRANCH  18  19
ENDBRANCH  17  18
ENDBRANCH  16  17
ENDBRANCH  13  16
ENDBRANCH  11  12
ENDBRANCH   9  11
ENDBRANCH   2   3
TORSDOF 8
ENDMDL
MODEL      240
REMARK 921   NORMALIZED FREE ENERGY PREDICTED BY IDOCK:   -3.90 KCAL/MOL
REMARK 922        TOTAL FREE ENERGY PREDICTED BY IDOCK:   -6.94 KCAL/MOL
REMARK 923 INTER-LIGAND FREE ENERGY PREDICTED BY IDOCK:   -6.19 KCAL/MOL
REMARK 924 INTRA-LIGAND FREE ENERGY PREDICTED BY IDOCK:   -0.74 KCAL/MOL
REMARK 927      BINDING AFFINITY PREDICTED BY RF-SCORE:    0.00 PKD
ROOT
HETATM    1  C   UNL     1     -12.534  14.303  65.153  1.00  0.00    -0.416 C  
HETATM    2  O   UNL     1     -11.885  13.401  64.264  1.00  0.00    -0.385 OA 
ENDROOT
BRANCH   2   3
HETATM    3  C   UNL     1     -11.220  12.347  64.839  1.00  0.00    -0.311 A  
HETATM    4  C   UNL     1     -10.764  11.376  63.941  1.00  0.00    -0.397 A  
HETATM    5  O   UNL     1     -11.010  11.504  62.602  1.00  0.00    -0.412 OA 
HETATM    6  C   UNL     1     -10.070  10.255  64.374  1.00  0.00    -0.242 A  
HETATM    7  C   UNL     1      -9.853  10.074  65.740  1.00  0.00    -0.345 A  
HETATM    8  H   UNL     1     -10.701  10.845  61.992  1.00  0.00     0.000 HD 
HETATM    9  C   UNL     1     -10.339  11.009  66.668  1.00  0.00    -0.288 A  
HETATM   10  C   UNL     1     -10.994  12.164  66.204  1.00  0.00    -0.335 A  
BRANCH   9  11
HETATM   11  C   UNL     1     -10.190  10.753  68.146  1.00  0.00    -0.172 C  
BRANCH  11  12
HETATM   12  N   UNL     1      -9.567   9.481  68.417  1.00  0.00    -0.141 N  
HETATM   13  C   UNL     1      -8.874   9.286  69.588  1.00  0.00    -0.155 C  
HETATM   14  H   UNL     1      -9.641   8.723  67.738  1.00  0.00     0.000 HD 
HETATM   15  O   UNL     1      -8.750  10.150  70.450  1.00  0.00     0.036 OA 
BRANCH  13  16
HETATM   16  C   UNL     1      -8.257   7.907  69.714  1.00  0.00    -0.121 C  
BRANCH  16  17
HETATM   17  C   UNL     1      -7.617   7.679  71.083  1.00  0.00    -0.080 C  
BRANCH  17  18
HETATM   18  C   UNL     1      -8.494   6.810  71.992  1.00  0.00    -0.112 C  
BRANCH  18  19
HETATM   19  C   UNL     1      -9.814   6.446  71.314  1.00  0.00    -0.200 C  
BRANCH  19  20
HETATM   20  C   UNL     1     -10.976   7.080  72.025  1.00  0.00    -0.264 C  
HETATM   21  C   UNL     1     -11.926   7.799  71.412  1.00  0.00    -0.331 C  
HETATM   22  C   UNL     1     -13.090   8.440  72.127  1.00  0.00    -0.357 C  
HETATM   23  C   UNL     1     -14.406   7.841  71.633  1.00  0.00    -0.607 C  
HETATM   24  C   UNL     1     -13.070   9.953  71.910  1.00  0.00    -0.559 C  
ENDBRANCH  19  20
ENDBRANCH  18  19
ENDBRANCH  17  18
ENDBRANCH  16  17
ENDBRANCH  13  16
ENDBRANCH  11  12
ENDBRANCH   9  11
ENDBRANCH   2   3
TORSDOF 8
ENDMDL
MODEL      241
REMARK 921   NORMALIZED FREE ENERGY PREDICTED BY IDOCK:   -3.89 KCAL/MOL
REMARK 922        TOTAL FREE ENERGY PREDICTED BY IDOCK:   -6.92 KCAL/MOL
REMARK 923 INTER-LIGAND FREE ENERGY PREDICTED BY IDOCK:   -5.91 KCAL/MOL
REMARK 924 INTRA-LIGAND FREE ENERGY PREDICTED BY IDOCK:   -1.01 KCAL/MOL
REMARK 927      BINDING AFFINITY PREDICTED BY RF-SCORE:    0.00 PKD
ROOT
HETATM    1  C   UNL     1     -14.406   8.481  72.018  1.00  0.00    -0.447 C  
HETATM    2  O   UNL     1     -13.407   9.449  72.313  1.00  0.00    -0.430 OA 
ENDROOT
BRANCH   2   3
HETATM    3  C   UNL     1     -12.199   9.295  71.682  1.00  0.00    -0.370 A  
HETATM    4  C   UNL     1     -11.867  10.317  70.785  1.00  0.00    -0.365 A  
HETATM    5  O   UNL     1     -12.729  11.358  70.574  1.00  0.00    -0.229 OA 
HETATM    6  C   UNL     1     -10.674  10.302  70.075  1.00  0.00    -0.345 A  
HETATM    7  C   UNL     1      -9.803   9.224  70.232  1.00  0.00    -0.265 A  
HETATM    8  H   UNL     1     -12.504  12.051  69.965  1.00  0.00     0.000 HD 
HETATM    9  C   UNL     1     -10.131   8.162  71.090  1.00  0.00    -0.222 A  
HETATM   10  C   UNL     1     -11.320   8.223  71.839  1.00  0.00    -0.372 A  
BRANCH   9  11
HETATM   11  C   UNL     1      -9.232   6.955  71.175  1.00  0.00    -0.154 C  
BRANCH  11  12
HETATM   12  N   UNL     1      -8.342   6.860  70.044  1.00  0.00    -0.137 N  
HETATM   13  C   UNL     1      -8.701   6.123  68.942  1.00  0.00    -0.123 C  
HETATM   14  H   UNL     1      -7.443   7.342  70.063  1.00  0.00     0.000 HD 
HETATM   15  O   UNL     1      -9.767   5.523  68.849  1.00  0.00    -0.128 OA 
BRANCH  13  16
HETATM   16  C   UNL     1      -7.650   6.100  67.850  1.00  0.00    -0.101 C  
BRANCH  16  17
HETATM   17  C   UNL     1      -8.106   6.832  66.587  1.00  0.00    -0.110 C  
BRANCH  17  18
HETATM   18  C   UNL     1      -8.318   8.330  66.834  1.00  0.00    -0.114 C  
BRANCH  18  19
HETATM   19  C   UNL     1      -8.895   9.024  65.600  1.00  0.00    -0.224 C  
BRANCH  19  20
HETATM   20  C   UNL     1      -9.895  10.074  65.993  1.00  0.00    -0.321 C  
HETATM   21  C   UNL     1     -10.181  11.151  65.248  1.00  0.00    -0.337 C  
HETATM   22  C   UNL     1     -11.182  12.207  65.647  1.00  0.00    -0.381 C  
HETATM   23  C   UNL     1     -12.331  12.250  64.640  1.00  0.00    -0.449 C  
HETATM   24  C   UNL     1     -10.496  13.570  65.740  1.00  0.00    -0.293 C  
ENDBRANCH  19  20
ENDBRANCH  18  19
ENDBRANCH  17  18
ENDBRANCH  16  17
ENDBRANCH  13  16
ENDBRANCH  11  12
ENDBRANCH   9  11
ENDBRANCH   2   3
TORSDOF 8
ENDMDL
MODEL      242
REMARK 921   NORMALIZED FREE ENERGY PREDICTED BY IDOCK:   -3.89 KCAL/MOL
REMARK 922        TOTAL FREE ENERGY PREDICTED BY IDOCK:   -6.92 KCAL/MOL
REMARK 923 INTER-LIGAND FREE ENERGY PREDICTED BY IDOCK:   -6.11 KCAL/MOL
REMARK 924 INTRA-LIGAND FREE ENERGY PREDICTED BY IDOCK:   -0.81 KCAL/MOL
REMARK 927      BINDING AFFINITY PREDICTED BY RF-SCORE:    0.00 PKD
ROOT
HETATM    1  C   UNL     1     -14.403  15.226  72.004  1.00  0.00    -0.589 C  
HETATM    2  O   UNL     1     -13.010  14.938  72.016  1.00  0.00    -0.304 OA 
ENDROOT
BRANCH   2   3
HETATM    3  C   UNL     1     -12.595  13.887  71.238  1.00  0.00    -0.371 A  
HETATM    4  C   UNL     1     -11.971  14.250  70.040  1.00  0.00    -0.334 A  
HETATM    5  O   UNL     1     -11.829  15.569  69.706  1.00  0.00    -0.316 OA 
HETATM    6  C   UNL     1     -11.493  13.296  69.151  1.00  0.00    -0.357 A  
HETATM    7  C   UNL     1     -11.673  11.944  69.443  1.00  0.00    -0.401 A  
HETATM    8  H   UNL     1     -11.405  15.816  68.893  1.00  0.00     0.000 HD 
HETATM    9  C   UNL     1     -12.337  11.551  70.615  1.00  0.00    -0.457 A  
HETATM   10  C   UNL     1     -12.766  12.533  71.527  1.00  0.00    -0.325 A  
BRANCH   9  11
HETATM   11  C   UNL     1     -12.618  10.092  70.871  1.00  0.00    -0.360 C  
BRANCH  11  12
HETATM   12  N   UNL     1     -11.504   9.428  71.503  1.00  0.00    -0.376 N  
HETATM   13  C   UNL     1     -11.710   8.295  72.253  1.00  0.00    -0.388 C  
HETATM   14  H   UNL     1     -10.560   9.800  71.392  1.00  0.00     0.000 HD 
HETATM   15  O   UNL     1     -12.815   7.791  72.424  1.00  0.00    -0.137 OA 
BRANCH  13  16
HETATM   16  C   UNL     1     -10.446   7.729  72.871  1.00  0.00    -0.412 C  
BRANCH  16  17
HETATM   17  C   UNL     1      -9.195   8.495  72.441  1.00  0.00    -0.328 C  
BRANCH  17  18
HETATM   18  C   UNL     1      -8.218   7.611  71.656  1.00  0.00    -0.115 C  
BRANCH  18  19
HETATM   19  C   UNL     1      -8.827   7.140  70.336  1.00  0.00    -0.151 C  
BRANCH  19  20
HETATM   20  C   UNL     1      -8.439   8.055  69.209  1.00  0.00    -0.136 C  
HETATM   21  C   UNL     1      -7.179   8.230  68.787  1.00  0.00    -0.079 C  
HETATM   22  C   UNL     1      -6.790   9.153  67.658  1.00  0.00    -0.077 C  
HETATM   23  C   UNL     1      -6.171   8.353  66.513  1.00  0.00    -0.054 C  
HETATM   24  C   UNL     1      -5.813  10.215  68.163  1.00  0.00    -0.041 C  
ENDBRANCH  19  20
ENDBRANCH  18  19
ENDBRANCH  17  18
ENDBRANCH  16  17
ENDBRANCH  13  16
ENDBRANCH  11  12
ENDBRANCH   9  11
ENDBRANCH   2   3
TORSDOF 8
ENDMDL
MODEL      243
REMARK 921   NORMALIZED FREE ENERGY PREDICTED BY IDOCK:   -3.88 KCAL/MOL
REMARK 922        TOTAL FREE ENERGY PREDICTED BY IDOCK:   -6.90 KCAL/MOL
REMARK 923 INTER-LIGAND FREE ENERGY PREDICTED BY IDOCK:   -5.77 KCAL/MOL
REMARK 924 INTRA-LIGAND FREE ENERGY PREDICTED BY IDOCK:   -1.13 KCAL/MOL
REMARK 927      BINDING AFFINITY PREDICTED BY RF-SCORE:    0.00 PKD
ROOT
HETATM    1  C   UNL     1     -10.667  15.273  66.868  1.00  0.00    -0.313 C  
HETATM    2  O   UNL     1     -11.776  15.323  67.757  1.00  0.00    -0.319 OA 
ENDROOT
BRANCH   2   3
HETATM    3  C   UNL     1     -11.904  14.276  68.635  1.00  0.00    -0.344 A  
HETATM    4  C   UNL     1     -12.228  14.640  69.946  1.00  0.00    -0.316 A  
HETATM    5  O   UNL     1     -12.375  15.959  70.280  1.00  0.00    -0.362 OA 
HETATM    6  C   UNL     1     -12.397  13.691  70.945  1.00  0.00    -0.450 A  
HETATM    7  C   UNL     1     -12.201  12.343  70.641  1.00  0.00    -0.368 A  
HETATM    8  H   UNL     1     -12.596  16.207  71.170  1.00  0.00     0.000 HD 
HETATM    9  C   UNL     1     -11.828  11.951  69.346  1.00  0.00    -0.389 A  
HETATM   10  C   UNL     1     -11.715  12.926  68.337  1.00  0.00    -0.382 A  
BRANCH   9  11
HETATM   11  C   UNL     1     -11.518  10.506  69.054  1.00  0.00    -0.237 C  
BRANCH  11  12
HETATM   12  N   UNL     1     -10.179  10.328  68.549  1.00  0.00    -0.165 N  
HETATM   13  C   UNL     1      -9.922   9.380  67.588  1.00  0.00    -0.190 C  
HETATM   14  H   UNL     1      -9.420  10.909  68.907  1.00  0.00     0.000 HD 
HETATM   15  O   UNL     1     -10.786   8.653  67.111  1.00  0.00    -0.270 OA 
BRANCH  13  16
HETATM   16  C   UNL     1      -8.464   9.299  67.181  1.00  0.00    -0.124 C  
BRANCH  16  17
HETATM   17  C   UNL     1      -7.533   9.924  68.219  1.00  0.00    -0.080 C  
BRANCH  17  18
HETATM   18  C   UNL     1      -6.814   8.865  69.063  1.00  0.00    -0.059 C  
BRANCH  18  19
HETATM   19  C   UNL     1      -7.381   8.800  70.481  1.00  0.00    -0.066 C  
BRANCH  19  20
HETATM   20  C   UNL     1      -8.247   7.586  70.659  1.00  0.00    -0.111 C  
HETATM   21  C   UNL     1      -9.561   7.635  70.918  1.00  0.00    -0.167 C  
HETATM   22  C   UNL     1     -10.428   6.414  71.101  1.00  0.00    -0.265 C  
HETATM   23  C   UNL     1     -11.500   6.362  70.013  1.00  0.00    -0.496 C  
HETATM   24  C   UNL     1     -11.069   6.430  72.489  1.00  0.00    -0.298 C  
ENDBRANCH  19  20
ENDBRANCH  18  19
ENDBRANCH  17  18
ENDBRANCH  16  17
ENDBRANCH  13  16
ENDBRANCH  11  12
ENDBRANCH   9  11
ENDBRANCH   2   3
TORSDOF 8
ENDMDL
MODEL      244
REMARK 921   NORMALIZED FREE ENERGY PREDICTED BY IDOCK:   -3.88 KCAL/MOL
REMARK 922        TOTAL FREE ENERGY PREDICTED BY IDOCK:   -6.90 KCAL/MOL
REMARK 923 INTER-LIGAND FREE ENERGY PREDICTED BY IDOCK:   -5.01 KCAL/MOL
REMARK 924 INTRA-LIGAND FREE ENERGY PREDICTED BY IDOCK:   -1.89 KCAL/MOL
REMARK 927      BINDING AFFINITY PREDICTED BY RF-SCORE:    0.00 PKD
ROOT
HETATM    1  C   UNL     1      -9.643  11.963  67.642  1.00  0.00    -0.185 C  
HETATM    2  O   UNL     1      -9.956  10.675  67.128  1.00  0.00    -0.184 OA 
ENDROOT
BRANCH   2   3
HETATM    3  C   UNL     1     -10.301   9.716  68.046  1.00  0.00    -0.218 A  
HETATM    4  C   UNL     1     -10.394   8.416  67.537  1.00  0.00    -0.265 A  
HETATM    5  O   UNL     1     -10.168   8.177  66.210  1.00  0.00    -0.475 OA 
HETATM    6  C   UNL     1     -10.729   7.340  68.348  1.00  0.00    -0.165 A  
HETATM    7  C   UNL     1     -11.015   7.567  69.694  1.00  0.00    -0.164 A  
HETATM    8  H   UNL     1     -10.231   7.294  65.864  1.00  0.00     0.000 HD 
HETATM    9  C   UNL     1     -10.976   8.867  70.223  1.00  0.00    -0.266 A  
HETATM   10  C   UNL     1     -10.583   9.935  69.396  1.00  0.00    -0.250 A  
BRANCH   9  11
HETATM   11  C   UNL     1     -11.387   9.114  71.651  1.00  0.00    -0.376 C  
BRANCH  11  12
HETATM   12  N   UNL     1     -11.448   7.894  72.418  1.00  0.00    -0.350 N  
HETATM   13  C   UNL     1     -10.371   7.500  73.176  1.00  0.00    -0.347 C  
HETATM   14  H   UNL     1     -12.292   7.323  72.399  1.00  0.00     0.000 HD 
HETATM   15  O   UNL     1      -9.328   8.140  73.250  1.00  0.00    -0.271 OA 
BRANCH  13  16
HETATM   16  C   UNL     1     -10.580   6.186  73.902  1.00  0.00    -0.230 C  
BRANCH  16  17
HETATM   17  C   UNL     1     -11.101   5.086  72.978  1.00  0.00    -0.378 C  
BRANCH  17  18
HETATM   18  C   UNL     1      -9.974   4.185  72.460  1.00  0.00    -0.222 C  
BRANCH  18  19
HETATM   19  C   UNL     1      -9.871   4.237  70.936  1.00  0.00    -0.259 C  
BRANCH  19  20
HETATM   20  C   UNL     1      -8.547   4.801  70.506  1.00  0.00    -0.114 C  
HETATM   21  C   UNL     1      -8.145   6.052  70.769  1.00  0.00    -0.120 C  
HETATM   22  C   UNL     1      -6.817   6.619  70.333  1.00  0.00    -0.062 C  
HETATM   23  C   UNL     1      -5.976   6.991  71.554  1.00  0.00    -0.037 C  
HETATM   24  C   UNL     1      -7.037   7.839  69.438  1.00  0.00    -0.071 C  
ENDBRANCH  19  20
ENDBRANCH  18  19
ENDBRANCH  17  18
ENDBRANCH  16  17
ENDBRANCH  13  16
ENDBRANCH  11  12
ENDBRANCH   9  11
ENDBRANCH   2   3
TORSDOF 8
ENDMDL
MODEL      245
REMARK 921   NORMALIZED FREE ENERGY PREDICTED BY IDOCK:   -3.86 KCAL/MOL
REMARK 922        TOTAL FREE ENERGY PREDICTED BY IDOCK:   -6.87 KCAL/MOL
REMARK 923 INTER-LIGAND FREE ENERGY PREDICTED BY IDOCK:   -6.16 KCAL/MOL
REMARK 924 INTRA-LIGAND FREE ENERGY PREDICTED BY IDOCK:   -0.70 KCAL/MOL
REMARK 927      BINDING AFFINITY PREDICTED BY RF-SCORE:    0.00 PKD
ROOT
HETATM    1  C   UNL     1      -6.786   4.914  70.533  1.00  0.00    -0.037 C  
HETATM    2  O   UNL     1      -8.041   4.551  71.096  1.00  0.00    -0.082 OA 
ENDROOT
BRANCH   2   3
HETATM    3  C   UNL     1      -9.126   5.295  70.706  1.00  0.00    -0.137 A  
HETATM    4  C   UNL     1      -9.970   5.699  71.745  1.00  0.00    -0.176 A  
HETATM    5  O   UNL     1      -9.699   5.335  73.036  1.00  0.00    -0.145 OA 
HETATM    6  C   UNL     1     -11.104   6.462  71.506  1.00  0.00    -0.322 A  
HETATM    7  C   UNL     1     -11.431   6.802  70.193  1.00  0.00    -0.404 A  
HETATM    8  H   UNL     1     -10.272   5.610  73.742  1.00  0.00     0.000 HD 
HETATM    9  C   UNL     1     -10.628   6.370  69.125  1.00  0.00    -0.305 A  
HETATM   10  C   UNL     1      -9.454   5.643  69.395  1.00  0.00    -0.169 A  
BRANCH   9  11
HETATM   11  C   UNL     1     -11.045   6.654  67.704  1.00  0.00    -0.271 C  
BRANCH  11  12
HETATM   12  N   UNL     1     -10.983   8.060  67.391  1.00  0.00    -0.495 N  
HETATM   13  C   UNL     1      -9.789   8.637  67.031  1.00  0.00    -0.220 C  
HETATM   14  H   UNL     1     -11.829   8.629  67.436  1.00  0.00     0.000 HD 
HETATM   15  O   UNL     1      -8.736   8.013  66.951  1.00  0.00    -0.124 OA 
BRANCH  13  16
HETATM   16  C   UNL     1      -9.883  10.125  66.758  1.00  0.00    -0.247 C  
BRANCH  16  17
HETATM   17  C   UNL     1     -10.717  10.858  67.809  1.00  0.00    -0.279 C  
BRANCH  17  18
HETATM   18  C   UNL     1     -11.638  11.912  67.182  1.00  0.00    -0.363 C  
BRANCH  18  19
HETATM   19  C   UNL     1     -11.391  13.297  67.779  1.00  0.00    -0.327 C  
BRANCH  19  20
HETATM   20  C   UNL     1     -11.389  13.242  69.280  1.00  0.00    -0.311 C  
HETATM   21  C   UNL     1     -12.088  14.077  70.061  1.00  0.00    -0.412 C  
HETATM   22  C   UNL     1     -12.081  14.024  71.569  1.00  0.00    -0.179 C  
HETATM   23  C   UNL     1     -13.482  13.708  72.091  1.00  0.00    -0.606 C  
HETATM   24  C   UNL     1     -11.580  15.352  72.137  1.00  0.00    -0.554 C  
ENDBRANCH  19  20
ENDBRANCH  18  19
ENDBRANCH  17  18
ENDBRANCH  16  17
ENDBRANCH  13  16
ENDBRANCH  11  12
ENDBRANCH   9  11
ENDBRANCH   2   3
TORSDOF 8
ENDMDL
MODEL      246
REMARK 921   NORMALIZED FREE ENERGY PREDICTED BY IDOCK:   -3.84 KCAL/MOL
REMARK 922        TOTAL FREE ENERGY PREDICTED BY IDOCK:   -6.85 KCAL/MOL
REMARK 923 INTER-LIGAND FREE ENERGY PREDICTED BY IDOCK:   -5.90 KCAL/MOL
REMARK 924 INTRA-LIGAND FREE ENERGY PREDICTED BY IDOCK:   -0.95 KCAL/MOL
REMARK 927      BINDING AFFINITY PREDICTED BY RF-SCORE:    0.00 PKD
ROOT
HETATM    1  C   UNL     1     -10.758  14.875  66.208  1.00  0.00    -0.320 C  
HETATM    2  O   UNL     1     -11.952  14.335  66.760  1.00  0.00    -0.414 OA 
ENDROOT
BRANCH   2   3
HETATM    3  C   UNL     1     -11.817  13.201  67.520  1.00  0.00    -0.360 A  
HETATM    4  C   UNL     1     -12.023  13.381  68.892  1.00  0.00    -0.324 A  
HETATM    5  O   UNL     1     -12.315  14.621  69.390  1.00  0.00    -0.510 OA 
HETATM    6  C   UNL     1     -11.926  12.324  69.787  1.00  0.00    -0.365 A  
HETATM    7  C   UNL     1     -11.578  11.060  69.310  1.00  0.00    -0.384 A  
HETATM    8  H   UNL     1     -12.455  14.744  70.321  1.00  0.00     0.000 HD 
HETATM    9  C   UNL     1     -11.319  10.859  67.945  1.00  0.00    -0.380 A  
HETATM   10  C   UNL     1     -11.476  11.932  67.049  1.00  0.00    -0.384 A  
BRANCH   9  11
HETATM   11  C   UNL     1     -10.844   9.515  67.456  1.00  0.00    -0.170 C  
BRANCH  11  12
HETATM   12  N   UNL     1     -10.988   8.490  68.460  1.00  0.00    -0.436 N  
HETATM   13  C   UNL     1     -11.028   7.165  68.096  1.00  0.00    -0.047 C  
HETATM   14  H   UNL     1     -11.060   8.748  69.445  1.00  0.00     0.000 HD 
HETATM   15  O   UNL     1     -10.942   6.783  66.933  1.00  0.00    -0.378 OA 
BRANCH  13  16
HETATM   16  C   UNL     1     -11.208   6.212  69.261  1.00  0.00    -0.438 C  
BRANCH  16  17
HETATM   17  C   UNL     1     -10.042   5.234  69.398  1.00  0.00    -0.311 C  
BRANCH  17  18
HETATM   18  C   UNL     1      -8.833   5.870  70.093  1.00  0.00    -0.144 C  
BRANCH  18  19
HETATM   19  C   UNL     1      -7.615   5.914  69.171  1.00  0.00    -0.090 C  
BRANCH  19  20
HETATM   20  C   UNL     1      -7.593   7.185  68.370  1.00  0.00    -0.118 C  
HETATM   21  C   UNL     1      -7.045   7.292  67.151  1.00  0.00    -0.087 C  
HETATM   22  C   UNL     1      -7.019   8.570  66.350  1.00  0.00    -0.078 C  
HETATM   23  C   UNL     1      -7.813   8.396  65.056  1.00  0.00    -0.118 C  
HETATM   24  C   UNL     1      -5.575   8.970  66.048  1.00  0.00    -0.045 C  
ENDBRANCH  19  20
ENDBRANCH  18  19
ENDBRANCH  17  18
ENDBRANCH  16  17
ENDBRANCH  13  16
ENDBRANCH  11  12
ENDBRANCH   9  11
ENDBRANCH   2   3
TORSDOF 8
ENDMDL
MODEL      247
REMARK 921   NORMALIZED FREE ENERGY PREDICTED BY IDOCK:   -3.84 KCAL/MOL
REMARK 922        TOTAL FREE ENERGY PREDICTED BY IDOCK:   -6.85 KCAL/MOL
REMARK 923 INTER-LIGAND FREE ENERGY PREDICTED BY IDOCK:   -6.21 KCAL/MOL
REMARK 924 INTRA-LIGAND FREE ENERGY PREDICTED BY IDOCK:   -0.64 KCAL/MOL
REMARK 927      BINDING AFFINITY PREDICTED BY RF-SCORE:    0.00 PKD
ROOT
HETATM    1  C   UNL     1      -9.812  11.262  63.251  1.00  0.00    -0.389 C  
HETATM    2  O   UNL     1      -8.605  10.627  63.655  1.00  0.00    -0.167 OA 
ENDROOT
BRANCH   2   3
HETATM    3  C   UNL     1      -8.726   9.593  64.549  1.00  0.00    -0.202 A  
HETATM    4  C   UNL     1      -7.910   8.488  64.287  1.00  0.00    -0.142 A  
HETATM    5  O   UNL     1      -7.086   8.480  63.195  1.00  0.00    -0.089 OA 
HETATM    6  C   UNL     1      -7.918   7.368  65.107  1.00  0.00    -0.128 A  
HETATM    7  C   UNL     1      -8.788   7.329  66.197  1.00  0.00    -0.181 A  
HETATM    8  H   UNL     1      -6.531   7.730  63.017  1.00  0.00     0.000 HD 
HETATM    9  C   UNL     1      -9.653   8.405  66.457  1.00  0.00    -0.304 A  
HETATM   10  C   UNL     1      -9.589   9.551  65.644  1.00  0.00    -0.346 A  
BRANCH   9  11
HETATM   11  C   UNL     1     -10.660   8.311  67.574  1.00  0.00    -0.221 C  
BRANCH  11  12
HETATM   12  N   UNL     1     -11.167   9.605  67.957  1.00  0.00    -0.513 N  
HETATM   13  C   UNL     1     -11.140   9.996  69.275  1.00  0.00    -0.206 C  
HETATM   14  H   UNL     1     -11.547  10.233  67.249  1.00  0.00     0.000 HD 
HETATM   15  O   UNL     1     -10.692   9.295  70.177  1.00  0.00    -0.213 OA 
BRANCH  13  16
HETATM   16  C   UNL     1     -11.731  11.370  69.521  1.00  0.00    -0.417 C  
BRANCH  16  17
HETATM   17  C   UNL     1     -11.213  12.412  68.529  1.00  0.00    -0.321 C  
BRANCH  17  18
HETATM   18  C   UNL     1     -11.879  13.778  68.728  1.00  0.00    -0.398 C  
BRANCH  18  19
HETATM   19  C   UNL     1     -11.734  14.658  67.486  1.00  0.00    -0.403 C  
BRANCH  19  20
HETATM   20  C   UNL     1     -10.588  15.618  67.640  1.00  0.00    -0.294 C  
HETATM   21  C   UNL     1     -10.708  16.949  67.534  1.00  0.00    -0.270 C  
HETATM   22  C   UNL     1      -9.556  17.911  67.684  1.00  0.00    -0.270 C  
HETATM   23  C   UNL     1      -9.789  18.830  68.883  1.00  0.00    -0.415 C  
HETATM   24  C   UNL     1      -9.387  18.729  66.403  1.00  0.00    -0.321 C  
ENDBRANCH  19  20
ENDBRANCH  18  19
ENDBRANCH  17  18
ENDBRANCH  16  17
ENDBRANCH  13  16
ENDBRANCH  11  12
ENDBRANCH   9  11
ENDBRANCH   2   3
TORSDOF 8
ENDMDL
MODEL      248
REMARK 921   NORMALIZED FREE ENERGY PREDICTED BY IDOCK:   -3.84 KCAL/MOL
REMARK 922        TOTAL FREE ENERGY PREDICTED BY IDOCK:   -6.85 KCAL/MOL
REMARK 923 INTER-LIGAND FREE ENERGY PREDICTED BY IDOCK:   -6.07 KCAL/MOL
REMARK 924 INTRA-LIGAND FREE ENERGY PREDICTED BY IDOCK:   -0.78 KCAL/MOL
REMARK 927      BINDING AFFINITY PREDICTED BY RF-SCORE:    0.00 PKD
ROOT
HETATM    1  C   UNL     1      -7.796  19.849  67.332  1.00  0.00    -0.285 C  
HETATM    2  O   UNL     1      -8.321  19.083  68.410  1.00  0.00    -0.322 OA 
ENDROOT
BRANCH   2   3
HETATM    3  C   UNL     1      -8.659  17.784  68.130  1.00  0.00    -0.262 A  
HETATM    4  C   UNL     1      -7.827  16.819  68.708  1.00  0.00    -0.243 A  
HETATM    5  O   UNL     1      -6.756  17.197  69.469  1.00  0.00    -0.232 OA 
HETATM    6  C   UNL     1      -8.048  15.461  68.519  1.00  0.00    -0.142 A  
HETATM    7  C   UNL     1      -9.102  15.051  67.703  1.00  0.00    -0.182 A  
HETATM    8  H   UNL     1      -6.191  16.543  69.862  1.00  0.00     0.000 HD 
HETATM    9  C   UNL     1      -9.925  15.997  67.072  1.00  0.00    -0.257 A  
HETATM   10  C   UNL     1      -9.716  17.366  67.320  1.00  0.00    -0.267 A  
BRANCH   9  11
HETATM   11  C   UNL     1     -10.996  15.546  66.112  1.00  0.00    -0.247 C  
BRANCH  11  12
HETATM   12  N   UNL     1     -10.693  14.265  65.524  1.00  0.00    -0.314 N  
HETATM   13  C   UNL     1     -11.707  13.457  65.068  1.00  0.00    -0.325 C  
HETATM   14  H   UNL     1      -9.724  13.957  65.446  1.00  0.00     0.000 HD 
HETATM   15  O   UNL     1     -12.893  13.765  65.125  1.00  0.00    -0.695 OA 
BRANCH  13  16
HETATM   16  C   UNL     1     -11.231  12.134  64.501  1.00  0.00    -0.385 C  
BRANCH  16  17
HETATM   17  C   UNL     1      -9.766  11.851  64.837  1.00  0.00    -0.158 C  
BRANCH  17  18
HETATM   18  C   UNL     1      -9.617  11.042  66.131  1.00  0.00    -0.240 C  
BRANCH  18  19
HETATM   19  C   UNL     1     -10.142   9.616  65.963  1.00  0.00    -0.318 C  
BRANCH  19  20
HETATM   20  C   UNL     1     -10.551   9.035  67.287  1.00  0.00    -0.301 C  
HETATM   21  C   UNL     1      -9.774   9.044  68.379  1.00  0.00    -0.170 C  
HETATM   22  C   UNL     1     -10.184   8.455  69.707  1.00  0.00    -0.207 C  
HETATM   23  C   UNL     1     -10.247   9.550  70.771  1.00  0.00    -0.363 C  
HETATM   24  C   UNL     1      -9.202   7.359  70.119  1.00  0.00    -0.151 C  
ENDBRANCH  19  20
ENDBRANCH  18  19
ENDBRANCH  17  18
ENDBRANCH  16  17
ENDBRANCH  13  16
ENDBRANCH  11  12
ENDBRANCH   9  11
ENDBRANCH   2   3
TORSDOF 8
ENDMDL
MODEL      249
REMARK 921   NORMALIZED FREE ENERGY PREDICTED BY IDOCK:   -3.84 KCAL/MOL
REMARK 922        TOTAL FREE ENERGY PREDICTED BY IDOCK:   -6.84 KCAL/MOL
REMARK 923 INTER-LIGAND FREE ENERGY PREDICTED BY IDOCK:   -6.15 KCAL/MOL
REMARK 924 INTRA-LIGAND FREE ENERGY PREDICTED BY IDOCK:   -0.69 KCAL/MOL
REMARK 927      BINDING AFFINITY PREDICTED BY RF-SCORE:    0.00 PKD
ROOT
HETATM    1  C   UNL     1      -8.467   2.436  65.685  1.00  0.00    -0.102 C  
HETATM    2  O   UNL     1      -9.000   2.296  66.997  1.00  0.00    -0.129 OA 
ENDROOT
BRANCH   2   3
HETATM    3  C   UNL     1      -9.451   3.442  67.600  1.00  0.00    -0.181 A  
HETATM    4  C   UNL     1      -9.406   3.430  68.999  1.00  0.00    -0.169 A  
HETATM    5  O   UNL     1      -8.958   2.324  69.666  1.00  0.00    -0.078 OA 
HETATM    6  C   UNL     1      -9.824   4.521  69.749  1.00  0.00    -0.295 A  
HETATM    7  C   UNL     1     -10.335   5.642  69.093  1.00  0.00    -0.328 A  
HETATM    8  H   UNL     1      -8.927   2.315  70.615  1.00  0.00     0.000 HD 
HETATM    9  C   UNL     1     -10.435   5.664  67.693  1.00  0.00    -0.284 A  
HETATM   10  C   UNL     1      -9.957   4.569  66.950  1.00  0.00    -0.229 A  
BRANCH   9  11
HETATM   11  C   UNL     1     -11.083   6.835  67.001  1.00  0.00    -0.299 C  
BRANCH  11  12
HETATM   12  N   UNL     1     -10.948   8.056  67.758  1.00  0.00    -0.497 N  
HETATM   13  C   UNL     1     -10.462   9.192  67.157  1.00  0.00    -0.255 C  
HETATM   14  H   UNL     1     -11.215   8.076  68.742  1.00  0.00     0.000 HD 
HETATM   15  O   UNL     1     -10.127   9.241  65.978  1.00  0.00    -0.297 OA 
BRANCH  13  16
HETATM   16  C   UNL     1     -10.356  10.383  68.089  1.00  0.00    -0.202 C  
BRANCH  16  17
HETATM   17  C   UNL     1     -11.712  11.039  68.350  1.00  0.00    -0.329 C  
BRANCH  17  18
HETATM   18  C   UNL     1     -11.769  12.477  67.820  1.00  0.00    -0.419 C  
BRANCH  18  19
HETATM   19  C   UNL     1     -11.823  12.508  66.293  1.00  0.00    -0.453 C  
BRANCH  19  20
HETATM   20  C   UNL     1     -10.944  13.597  65.747  1.00  0.00    -0.281 C  
HETATM   21  C   UNL     1     -10.549  14.665  66.454  1.00  0.00    -0.301 C  
HETATM   22  C   UNL     1      -9.671  15.761  65.902  1.00  0.00    -0.389 C  
HETATM   23  C   UNL     1      -8.352  15.816  66.672  1.00  0.00    -0.319 C  
HETATM   24  C   UNL     1     -10.397  17.104  65.981  1.00  0.00    -0.317 C  
ENDBRANCH  19  20
ENDBRANCH  18  19
ENDBRANCH  17  18
ENDBRANCH  16  17
ENDBRANCH  13  16
ENDBRANCH  11  12
ENDBRANCH   9  11
ENDBRANCH   2   3
TORSDOF 8
ENDMDL
MODEL      250
REMARK 921   NORMALIZED FREE ENERGY PREDICTED BY IDOCK:   -3.83 KCAL/MOL
REMARK 922        TOTAL FREE ENERGY PREDICTED BY IDOCK:   -6.83 KCAL/MOL
REMARK 923 INTER-LIGAND FREE ENERGY PREDICTED BY IDOCK:   -5.97 KCAL/MOL
REMARK 924 INTRA-LIGAND FREE ENERGY PREDICTED BY IDOCK:   -0.86 KCAL/MOL
REMARK 927      BINDING AFFINITY PREDICTED BY RF-SCORE:    0.00 PKD
ROOT
HETATM    1  C   UNL     1     -12.274  11.186  70.888  1.00  0.00    -0.364 C  
HETATM    2  O   UNL     1     -12.302  12.605  70.984  1.00  0.00    -0.351 OA 
ENDROOT
BRANCH   2   3
HETATM    3  C   UNL     1     -12.002  13.302  69.841  1.00  0.00    -0.330 A  
HETATM    4  C   UNL     1     -12.234  14.680  69.912  1.00  0.00    -0.316 A  
HETATM    5  O   UNL     1     -12.744  15.237  71.053  1.00  0.00    -0.356 OA 
HETATM    6  C   UNL     1     -11.973  15.518  68.836  1.00  0.00    -0.306 A  
HETATM    7  C   UNL     1     -11.504  14.967  67.644  1.00  0.00    -0.366 A  
HETATM    8  H   UNL     1     -12.901  16.173  71.102  1.00  0.00     0.000 HD 
HETATM    9  C   UNL     1     -11.306  13.581  67.528  1.00  0.00    -0.335 A  
HETATM   10  C   UNL     1     -11.526  12.758  68.648  1.00  0.00    -0.341 A  
BRANCH   9  11
HETATM   11  C   UNL     1     -10.897  12.985  66.206  1.00  0.00    -0.278 C  
BRANCH  11  12
HETATM   12  N   UNL     1      -9.677  12.222  66.309  1.00  0.00    -0.240 N  
HETATM   13  C   UNL     1      -9.493  11.105  65.530  1.00  0.00    -0.221 C  
HETATM   14  H   UNL     1      -8.948  12.514  66.960  1.00  0.00     0.000 HD 
HETATM   15  O   UNL     1     -10.323  10.700  64.723  1.00  0.00    -0.335 OA 
BRANCH  13  16
HETATM   16  C   UNL     1      -8.173  10.400  65.771  1.00  0.00    -0.156 C  
BRANCH  16  17
HETATM   17  C   UNL     1      -7.917  10.132  67.255  1.00  0.00    -0.110 C  
BRANCH  17  18
HETATM   18  C   UNL     1      -8.941   9.158  67.850  1.00  0.00    -0.131 C  
BRANCH  18  19
HETATM   19  C   UNL     1      -8.301   7.812  68.188  1.00  0.00    -0.124 C  
BRANCH  19  20
HETATM   20  C   UNL     1      -8.727   7.342  69.550  1.00  0.00    -0.134 C  
HETATM   21  C   UNL     1      -9.871   7.708  70.144  1.00  0.00    -0.184 C  
HETATM   22  C   UNL     1     -10.295   7.239  71.514  1.00  0.00    -0.217 C  
HETATM   23  C   UNL     1     -11.587   6.429  71.416  1.00  0.00    -0.368 C  
HETATM   24  C   UNL     1     -10.479   8.437  72.445  1.00  0.00    -0.402 C  
ENDBRANCH  19  20
ENDBRANCH  18  19
ENDBRANCH  17  18
ENDBRANCH  16  17
ENDBRANCH  13  16
ENDBRANCH  11  12
ENDBRANCH   9  11
ENDBRANCH   2   3
TORSDOF 8
ENDMDL
MODEL      251
REMARK 921   NORMALIZED FREE ENERGY PREDICTED BY IDOCK:   -3.83 KCAL/MOL
REMARK 922        TOTAL FREE ENERGY PREDICTED BY IDOCK:   -6.83 KCAL/MOL
REMARK 923 INTER-LIGAND FREE ENERGY PREDICTED BY IDOCK:   -5.56 KCAL/MOL
REMARK 924 INTRA-LIGAND FREE ENERGY PREDICTED BY IDOCK:   -1.27 KCAL/MOL
REMARK 927      BINDING AFFINITY PREDICTED BY RF-SCORE:    0.00 PKD
ROOT
HETATM    1  C   UNL     1      -8.013   9.078  68.084  1.00  0.00    -0.101 C  
HETATM    2  O   UNL     1      -9.216   9.812  67.893  1.00  0.00    -0.125 OA 
ENDROOT
BRANCH   2   3
HETATM    3  C   UNL     1     -10.095   9.831  68.946  1.00  0.00    -0.183 A  
HETATM    4  C   UNL     1     -11.144  10.749  68.823  1.00  0.00    -0.259 A  
HETATM    5  O   UNL     1     -11.228  11.559  67.724  1.00  0.00    -0.238 OA 
HETATM    6  C   UNL     1     -12.115  10.879  69.807  1.00  0.00    -0.409 A  
HETATM    7  C   UNL     1     -12.022  10.102  70.962  1.00  0.00    -0.474 A  
HETATM    8  H   UNL     1     -11.940  12.182  67.640  1.00  0.00     0.000 HD 
HETATM    9  C   UNL     1     -10.954   9.206  71.133  1.00  0.00    -0.390 A  
HETATM   10  C   UNL     1     -10.011   9.052  70.101  1.00  0.00    -0.216 A  
BRANCH   9  11
HETATM   11  C   UNL     1     -10.806   8.448  72.427  1.00  0.00    -0.346 C  
BRANCH  11  12
HETATM   12  N   UNL     1     -11.256   7.082  72.311  1.00  0.00    -0.254 N  
HETATM   13  C   UNL     1     -10.894   6.152  73.255  1.00  0.00    -0.244 C  
HETATM   14  H   UNL     1     -11.845   6.806  71.525  1.00  0.00     0.000 HD 
HETATM   15  O   UNL     1     -10.193   6.415  74.227  1.00  0.00    -0.321 OA 
BRANCH  13  16
HETATM   16  C   UNL     1     -11.424   4.759  72.980  1.00  0.00    -0.297 C  
BRANCH  16  17
HETATM   17  C   UNL     1     -10.439   3.668  73.399  1.00  0.00    -0.262 C  
BRANCH  17  18
HETATM   18  C   UNL     1      -9.579   3.185  72.225  1.00  0.00    -0.204 C  
BRANCH  18  19
HETATM   19  C   UNL     1      -8.400   4.123  71.972  1.00  0.00    -0.106 C  
BRANCH  19  20
HETATM   20  C   UNL     1      -8.615   4.933  70.725  1.00  0.00    -0.127 C  
HETATM   21  C   UNL     1      -9.610   4.715  69.853  1.00  0.00    -0.261 C  
HETATM   22  C   UNL     1      -9.822   5.527  68.599  1.00  0.00    -0.198 C  
HETATM   23  C   UNL     1     -11.166   6.252  68.663  1.00  0.00    -0.328 C  
HETATM   24  C   UNL     1      -9.756   4.619  67.371  1.00  0.00    -0.215 C  
ENDBRANCH  19  20
ENDBRANCH  18  19
ENDBRANCH  17  18
ENDBRANCH  16  17
ENDBRANCH  13  16
ENDBRANCH  11  12
ENDBRANCH   9  11
ENDBRANCH   2   3
TORSDOF 8
ENDMDL
MODEL      252
REMARK 921   NORMALIZED FREE ENERGY PREDICTED BY IDOCK:   -3.82 KCAL/MOL
REMARK 922        TOTAL FREE ENERGY PREDICTED BY IDOCK:   -6.82 KCAL/MOL
REMARK 923 INTER-LIGAND FREE ENERGY PREDICTED BY IDOCK:   -6.24 KCAL/MOL
REMARK 924 INTRA-LIGAND FREE ENERGY PREDICTED BY IDOCK:   -0.58 KCAL/MOL
REMARK 927      BINDING AFFINITY PREDICTED BY RF-SCORE:    0.00 PKD
ROOT
HETATM    1  C   UNL     1      -7.238   6.114  71.389  1.00  0.00    -0.079 C  
HETATM    2  O   UNL     1      -8.660   6.132  71.400  1.00  0.00    -0.127 OA 
ENDROOT
BRANCH   2   3
HETATM    3  C   UNL     1      -9.263   7.233  70.845  1.00  0.00    -0.155 A  
HETATM    4  C   UNL     1      -9.735   8.174  71.766  1.00  0.00    -0.191 A  
HETATM    5  O   UNL     1      -9.600   7.954  73.109  1.00  0.00    -0.248 OA 
HETATM    6  C   UNL     1     -10.363   9.342  71.355  1.00  0.00    -0.392 A  
HETATM    7  C   UNL     1     -10.560   9.564  69.992  1.00  0.00    -0.280 A  
HETATM    8  H   UNL     1      -9.920   8.593  73.735  1.00  0.00     0.000 HD 
HETATM    9  C   UNL     1     -10.139   8.615  69.047  1.00  0.00    -0.207 A  
HETATM   10  C   UNL     1      -9.458   7.464  69.483  1.00  0.00    -0.155 A  
BRANCH   9  11
HETATM   11  C   UNL     1     -10.448   8.816  67.586  1.00  0.00    -0.244 C  
BRANCH  11  12
HETATM   12  N   UNL     1      -9.757   9.956  67.036  1.00  0.00    -0.174 N  
HETATM   13  C   UNL     1     -10.447  11.109  66.745  1.00  0.00    -0.252 C  
HETATM   14  H   UNL     1      -8.753   9.908  66.863  1.00  0.00     0.000 HD 
HETATM   15  O   UNL     1     -11.652  11.239  66.932  1.00  0.00    -0.464 OA 
BRANCH  13  16
HETATM   16  C   UNL     1      -9.586  12.206  66.151  1.00  0.00    -0.250 C  
BRANCH  16  17
HETATM   17  C   UNL     1     -10.245  13.582  66.253  1.00  0.00    -0.299 C  
BRANCH  17  18
HETATM   18  C   UNL     1     -10.596  14.158  64.877  1.00  0.00    -0.449 C  
BRANCH  18  19
HETATM   19  C   UNL     1     -10.960  15.640  64.966  1.00  0.00    -0.445 C  
BRANCH  19  20
HETATM   20  C   UNL     1     -10.034  16.365  65.900  1.00  0.00    -0.358 C  
HETATM   21  C   UNL     1     -10.241  17.615  66.338  1.00  0.00    -0.364 C  
HETATM   22  C   UNL     1      -9.307  18.344  67.273  1.00  0.00    -0.271 C  
HETATM   23  C   UNL     1     -10.021  18.664  68.585  1.00  0.00    -0.431 C  
HETATM   24  C   UNL     1      -8.797  19.623  66.610  1.00  0.00    -0.403 C  
ENDBRANCH  19  20
ENDBRANCH  18  19
ENDBRANCH  17  18
ENDBRANCH  16  17
ENDBRANCH  13  16
ENDBRANCH  11  12
ENDBRANCH   9  11
ENDBRANCH   2   3
TORSDOF 8
ENDMDL
MODEL      253
REMARK 921   NORMALIZED FREE ENERGY PREDICTED BY IDOCK:   -3.81 KCAL/MOL
REMARK 922        TOTAL FREE ENERGY PREDICTED BY IDOCK:   -6.79 KCAL/MOL
REMARK 923 INTER-LIGAND FREE ENERGY PREDICTED BY IDOCK:   -5.89 KCAL/MOL
REMARK 924 INTRA-LIGAND FREE ENERGY PREDICTED BY IDOCK:   -0.91 KCAL/MOL
REMARK 927      BINDING AFFINITY PREDICTED BY RF-SCORE:    0.00 PKD
ROOT
HETATM    1  C   UNL     1     -10.373  15.414  67.649  1.00  0.00    -0.262 C  
HETATM    2  O   UNL     1     -11.697  14.930  67.836  1.00  0.00    -0.340 OA 
ENDROOT
BRANCH   2   3
HETATM    3  C   UNL     1     -11.840  13.831  68.645  1.00  0.00    -0.374 A  
HETATM    4  C   UNL     1     -12.420  14.088  69.892  1.00  0.00    -0.246 A  
HETATM    5  O   UNL     1     -12.782  15.361  70.237  1.00  0.00    -0.549 OA 
HETATM    6  C   UNL     1     -12.634  13.075  70.817  1.00  0.00    -0.321 A  
HETATM    7  C   UNL     1     -12.226  11.777  70.510  1.00  0.00    -0.438 A  
HETATM    8  H   UNL     1     -13.176  15.536  71.083  1.00  0.00     0.000 HD 
HETATM    9  C   UNL     1     -11.597  11.498  69.286  1.00  0.00    -0.388 A  
HETATM   10  C   UNL     1     -11.439  12.529  68.342  1.00  0.00    -0.355 A  
BRANCH   9  11
HETATM   11  C   UNL     1     -11.068  10.115  69.006  1.00  0.00    -0.205 C  
BRANCH  11  12
HETATM   12  N   UNL     1     -11.529   9.151  69.974  1.00  0.00    -0.439 N  
HETATM   13  C   UNL     1     -11.276   7.812  69.792  1.00  0.00    -0.007 C  
HETATM   14  H   UNL     1     -12.045   9.463  70.798  1.00  0.00     0.000 HD 
HETATM   15  O   UNL     1     -10.659   7.368  68.830  1.00  0.00    -0.206 OA 
BRANCH  13  16
HETATM   16  C   UNL     1     -11.847   6.925  70.881  1.00  0.00    -0.424 C  
BRANCH  16  17
HETATM   17  C   UNL     1     -10.763   6.140  71.620  1.00  0.00    -0.294 C  
BRANCH  17  18
HETATM   18  C   UNL     1     -10.055   6.991  72.680  1.00  0.00    -0.204 C  
BRANCH  18  19
HETATM   19  C   UNL     1      -8.611   7.295  72.281  1.00  0.00    -0.131 C  
BRANCH  19  20
HETATM   20  C   UNL     1      -8.521   8.603  71.547  1.00  0.00    -0.238 C  
HETATM   21  C   UNL     1      -7.640   8.852  70.568  1.00  0.00    -0.093 C  
HETATM   22  C   UNL     1      -7.547  10.167  69.835  1.00  0.00    -0.174 C  
HETATM   23  C   UNL     1      -7.861   9.967  68.353  1.00  0.00    -0.089 C  
HETATM   24  C   UNL     1      -6.154  10.770  70.014  1.00  0.00    -0.107 C  
ENDBRANCH  19  20
ENDBRANCH  18  19
ENDBRANCH  17  18
ENDBRANCH  16  17
ENDBRANCH  13  16
ENDBRANCH  11  12
ENDBRANCH   9  11
ENDBRANCH   2   3
TORSDOF 8
ENDMDL
MODEL      254
REMARK 921   NORMALIZED FREE ENERGY PREDICTED BY IDOCK:   -3.80 KCAL/MOL
REMARK 922        TOTAL FREE ENERGY PREDICTED BY IDOCK:   -6.78 KCAL/MOL
REMARK 923 INTER-LIGAND FREE ENERGY PREDICTED BY IDOCK:   -5.84 KCAL/MOL
REMARK 924 INTRA-LIGAND FREE ENERGY PREDICTED BY IDOCK:   -0.94 KCAL/MOL
REMARK 927      BINDING AFFINITY PREDICTED BY RF-SCORE:    0.00 PKD
ROOT
HETATM    1  C   UNL     1     -11.945  13.313  66.939  1.00  0.00    -0.375 C  
HETATM    2  O   UNL     1     -12.318  12.439  65.881  1.00  0.00    -0.638 OA 
ENDROOT
BRANCH   2   3
HETATM    3  C   UNL     1     -11.294  11.894  65.147  1.00  0.00    -0.269 A  
HETATM    4  C   UNL     1     -11.162  12.402  63.850  1.00  0.00    -0.422 A  
HETATM    5  O   UNL     1     -12.028  13.355  63.390  1.00  0.00    -0.731 OA 
HETATM    6  C   UNL     1     -10.168  11.952  62.991  1.00  0.00    -0.185 A  
HETATM    7  C   UNL     1      -9.306  10.943  63.419  1.00  0.00    -0.308 A  
HETATM    8  H   UNL     1     -11.938  13.700  62.510  1.00  0.00     0.000 HD 
HETATM    9  C   UNL     1      -9.444  10.381  64.698  1.00  0.00    -0.336 A  
HETATM   10  C   UNL     1     -10.424  10.889  65.571  1.00  0.00    -0.286 A  
BRANCH   9  11
HETATM   11  C   UNL     1      -8.575   9.222  65.112  1.00  0.00    -0.172 C  
BRANCH  11  12
HETATM   12  N   UNL     1      -7.669   9.576  66.177  1.00  0.00    -0.100 N  
HETATM   13  C   UNL     1      -7.579   8.788  67.300  1.00  0.00    -0.089 C  
HETATM   14  H   UNL     1      -7.092  10.414  66.096  1.00  0.00     0.000 HD 
HETATM   15  O   UNL     1      -8.237   7.766  67.460  1.00  0.00    -0.121 OA 
BRANCH  13  16
HETATM   16  C   UNL     1      -6.603   9.306  68.337  1.00  0.00    -0.058 C  
BRANCH  16  17
HETATM   17  C   UNL     1      -7.307   9.994  69.507  1.00  0.00    -0.112 C  
BRANCH  17  18
HETATM   18  C   UNL     1      -6.759   9.531  70.862  1.00  0.00    -0.085 C  
BRANCH  18  19
HETATM   19  C   UNL     1      -7.555   8.348  71.412  1.00  0.00    -0.109 C  
BRANCH  19  20
HETATM   20  C   UNL     1      -8.942   8.318  70.835  1.00  0.00    -0.174 C  
HETATM   21  C   UNL     1      -9.713   7.222  70.797  1.00  0.00    -0.171 C  
HETATM   22  C   UNL     1     -11.104   7.193  70.213  1.00  0.00    -0.303 C  
HETATM   23  C   UNL     1     -12.123   6.847  71.297  1.00  0.00    -0.419 C  
HETATM   24  C   UNL     1     -11.170   6.182  69.068  1.00  0.00    -0.375 C  
ENDBRANCH  19  20
ENDBRANCH  18  19
ENDBRANCH  17  18
ENDBRANCH  16  17
ENDBRANCH  13  16
ENDBRANCH  11  12
ENDBRANCH   9  11
ENDBRANCH   2   3
TORSDOF 8
ENDMDL
MODEL      255
REMARK 921   NORMALIZED FREE ENERGY PREDICTED BY IDOCK:   -3.80 KCAL/MOL
REMARK 922        TOTAL FREE ENERGY PREDICTED BY IDOCK:   -6.78 KCAL/MOL
REMARK 923 INTER-LIGAND FREE ENERGY PREDICTED BY IDOCK:   -5.92 KCAL/MOL
REMARK 924 INTRA-LIGAND FREE ENERGY PREDICTED BY IDOCK:   -0.86 KCAL/MOL
REMARK 927      BINDING AFFINITY PREDICTED BY RF-SCORE:    0.00 PKD
ROOT
HETATM    1  C   UNL     1     -12.375  15.627  70.831  1.00  0.00    -0.429 C  
HETATM    2  O   UNL     1     -13.152  14.550  71.338  1.00  0.00    -0.321 OA 
ENDROOT
BRANCH   2   3
HETATM    3  C   UNL     1     -12.777  13.288  70.949  1.00  0.00    -0.254 A  
HETATM    4  C   UNL     1     -13.284  12.251  71.739  1.00  0.00    -0.326 A  
HETATM    5  O   UNL     1     -14.073  12.530  72.821  1.00  0.00    -0.544 OA 
HETATM    6  C   UNL     1     -12.996  10.921  71.465  1.00  0.00    -0.556 A  
HETATM    7  C   UNL     1     -12.151  10.614  70.399  1.00  0.00    -0.430 A  
HETATM    8  H   UNL     1     -14.418  11.826  73.358  1.00  0.00     0.000 HD 
HETATM    9  C   UNL     1     -11.589  11.636  69.617  1.00  0.00    -0.401 A  
HETATM   10  C   UNL     1     -11.937  12.974  69.880  1.00  0.00    -0.381 A  
BRANCH   9  11
HETATM   11  C   UNL     1     -10.597  11.300  68.534  1.00  0.00    -0.199 C  
BRANCH  11  12
HETATM   12  N   UNL     1      -9.367  12.039  68.676  1.00  0.00    -0.382 N  
HETATM   13  C   UNL     1      -9.080  13.076  67.821  1.00  0.00    -0.200 C  
HETATM   14  H   UNL     1      -8.707  11.791  69.414  1.00  0.00     0.000 HD 
HETATM   15  O   UNL     1      -9.829  13.431  66.917  1.00  0.00    -0.242 OA 
BRANCH  13  16
HETATM   16  C   UNL     1      -7.741  13.736  68.083  1.00  0.00    -0.140 C  
BRANCH  16  17
HETATM   17  C   UNL     1      -6.574  12.937  67.501  1.00  0.00    -0.160 C  
BRANCH  17  18
HETATM   18  C   UNL     1      -6.150  11.783  68.417  1.00  0.00    -0.049 C  
BRANCH  18  19
HETATM   19  C   UNL     1      -5.967  10.484  67.633  1.00  0.00    -0.044 C  
BRANCH  19  20
HETATM   20  C   UNL     1      -6.552  10.602  66.254  1.00  0.00    -0.126 C  
HETATM   21  C   UNL     1      -7.675   9.985  65.863  1.00  0.00    -0.116 C  
HETATM   22  C   UNL     1      -8.259  10.100  64.476  1.00  0.00    -0.162 C  
HETATM   23  C   UNL     1      -9.639  10.753  64.539  1.00  0.00    -0.322 C  
HETATM   24  C   UNL     1      -8.345   8.719  63.828  1.00  0.00    -0.140 C  
ENDBRANCH  19  20
ENDBRANCH  18  19
ENDBRANCH  17  18
ENDBRANCH  16  17
ENDBRANCH  13  16
ENDBRANCH  11  12
ENDBRANCH   9  11
ENDBRANCH   2   3
TORSDOF 8
ENDMDL
MODEL      256
REMARK 921   NORMALIZED FREE ENERGY PREDICTED BY IDOCK:   -3.79 KCAL/MOL
REMARK 922        TOTAL FREE ENERGY PREDICTED BY IDOCK:   -6.77 KCAL/MOL
REMARK 923 INTER-LIGAND FREE ENERGY PREDICTED BY IDOCK:   -6.29 KCAL/MOL
REMARK 924 INTRA-LIGAND FREE ENERGY PREDICTED BY IDOCK:   -0.48 KCAL/MOL
REMARK 927      BINDING AFFINITY PREDICTED BY RF-SCORE:    0.00 PKD
ROOT
HETATM    1  C   UNL     1      -9.766   5.160  68.148  1.00  0.00    -0.144 C  
HETATM    2  O   UNL     1     -10.809   6.126  68.190  1.00  0.00    -0.268 OA 
ENDROOT
BRANCH   2   3
HETATM    3  C   UNL     1     -10.552   7.276  68.892  1.00  0.00    -0.191 A  
HETATM    4  C   UNL     1     -10.899   7.231  70.247  1.00  0.00    -0.245 A  
HETATM    5  O   UNL     1     -11.470   6.107  70.776  1.00  0.00    -0.324 OA 
HETATM    6  C   UNL     1     -10.693   8.318  71.086  1.00  0.00    -0.270 A  
HETATM    7  C   UNL     1     -10.161   9.494  70.558  1.00  0.00    -0.349 A  
HETATM    8  H   UNL     1     -11.705   6.076  71.696  1.00  0.00     0.000 HD 
HETATM    9  C   UNL     1      -9.847   9.584  69.193  1.00  0.00    -0.176 A  
HETATM   10  C   UNL     1     -10.014   8.454  68.371  1.00  0.00    -0.208 A  
BRANCH   9  11
HETATM   11  C   UNL     1      -9.371  10.891  68.612  1.00  0.00    -0.187 C  
BRANCH  11  12
HETATM   12  N   UNL     1     -10.156  11.297  67.472  1.00  0.00    -0.181 N  
HETATM   13  C   UNL     1     -11.280  12.067  67.646  1.00  0.00    -0.282 C  
HETATM   14  H   UNL     1      -9.875  11.012  66.534  1.00  0.00     0.000 HD 
HETATM   15  O   UNL     1     -11.672  12.450  68.744  1.00  0.00    -0.295 OA 
BRANCH  13  16
HETATM   16  C   UNL     1     -12.010  12.390  66.357  1.00  0.00    -0.346 C  
BRANCH  16  17
HETATM   17  C   UNL     1     -12.179  13.894  66.145  1.00  0.00    -0.498 C  
BRANCH  17  18
HETATM   18  C   UNL     1     -11.974  14.296  64.680  1.00  0.00    -0.468 C  
BRANCH  18  19
HETATM   19  C   UNL     1     -11.174  15.594  64.562  1.00  0.00    -0.337 C  
BRANCH  19  20
HETATM   20  C   UNL     1     -10.282  15.785  65.756  1.00  0.00    -0.394 C  
HETATM   21  C   UNL     1     -10.512  16.682  66.725  1.00  0.00    -0.261 C  
HETATM   22  C   UNL     1      -9.612  16.876  67.921  1.00  0.00    -0.244 C  
HETATM   23  C   UNL     1     -10.367  16.545  69.208  1.00  0.00    -0.318 C  
HETATM   24  C   UNL     1      -9.091  18.312  67.956  1.00  0.00    -0.300 C  
ENDBRANCH  19  20
ENDBRANCH  18  19
ENDBRANCH  17  18
ENDBRANCH  16  17
ENDBRANCH  13  16
ENDBRANCH  11  12
ENDBRANCH   9  11
ENDBRANCH   2   3
TORSDOF 8
ENDMDL
MODEL      257
REMARK 921   NORMALIZED FREE ENERGY PREDICTED BY IDOCK:   -3.78 KCAL/MOL
REMARK 922        TOTAL FREE ENERGY PREDICTED BY IDOCK:   -6.76 KCAL/MOL
REMARK 923 INTER-LIGAND FREE ENERGY PREDICTED BY IDOCK:   -6.16 KCAL/MOL
REMARK 924 INTRA-LIGAND FREE ENERGY PREDICTED BY IDOCK:   -0.59 KCAL/MOL
REMARK 927      BINDING AFFINITY PREDICTED BY RF-SCORE:    0.00 PKD
ROOT
HETATM    1  C   UNL     1     -12.558  11.068  70.831  1.00  0.00    -0.391 C  
HETATM    2  O   UNL     1     -12.593  12.410  71.301  1.00  0.00    -0.343 OA 
ENDROOT
BRANCH   2   3
HETATM    3  C   UNL     1     -12.276  13.386  70.391  1.00  0.00    -0.345 A  
HETATM    4  C   UNL     1     -12.006  14.643  70.943  1.00  0.00    -0.326 A  
HETATM    5  O   UNL     1     -12.087  14.836  72.294  1.00  0.00    -0.332 OA 
HETATM    6  C   UNL     1     -11.665  15.728  70.147  1.00  0.00    -0.367 A  
HETATM    7  C   UNL     1     -11.626  15.570  68.761  1.00  0.00    -0.390 A  
HETATM    8  H   UNL     1     -11.904  15.689  72.669  1.00  0.00     0.000 HD 
HETATM    9  C   UNL     1     -11.939  14.333  68.176  1.00  0.00    -0.343 A  
HETATM   10  C   UNL     1     -12.230  13.233  69.005  1.00  0.00    -0.156 A  
BRANCH   9  11
HETATM   11  C   UNL     1     -11.995  14.199  66.676  1.00  0.00    -0.444 C  
BRANCH  11  12
HETATM   12  N   UNL     1     -11.032  13.247  66.179  1.00  0.00    -0.279 N  
HETATM   13  C   UNL     1     -11.423  12.260  65.306  1.00  0.00    -0.351 C  
HETATM   14  H   UNL     1     -10.058  13.307  66.476  1.00  0.00     0.000 HD 
HETATM   15  O   UNL     1     -12.575  12.133  64.904  1.00  0.00    -0.500 OA 
BRANCH  13  16
HETATM   16  C   UNL     1     -10.303  11.325  64.896  1.00  0.00    -0.362 C  
BRANCH  16  17
HETATM   17  C   UNL     1      -9.512  10.802  66.095  1.00  0.00    -0.221 C  
BRANCH  17  18
HETATM   18  C   UNL     1     -10.390   9.995  67.058  1.00  0.00    -0.305 C  
BRANCH  18  19
HETATM   19  C   UNL     1     -10.102   8.497  66.955  1.00  0.00    -0.364 C  
BRANCH  19  20
HETATM   20  C   UNL     1      -8.623   8.234  66.933  1.00  0.00    -0.122 C  
HETATM   21  C   UNL     1      -7.746   8.823  67.759  1.00  0.00    -0.102 C  
HETATM   22  C   UNL     1      -6.260   8.561  67.733  1.00  0.00    -0.052 C  
HETATM   23  C   UNL     1      -5.811   7.944  69.057  1.00  0.00    -0.034 C  
HETATM   24  C   UNL     1      -5.505   9.862  67.461  1.00  0.00    -0.035 C  
ENDBRANCH  19  20
ENDBRANCH  18  19
ENDBRANCH  17  18
ENDBRANCH  16  17
ENDBRANCH  13  16
ENDBRANCH  11  12
ENDBRANCH   9  11
ENDBRANCH   2   3
TORSDOF 8
ENDMDL
MODEL      258
REMARK 921   NORMALIZED FREE ENERGY PREDICTED BY IDOCK:   -3.77 KCAL/MOL
REMARK 922        TOTAL FREE ENERGY PREDICTED BY IDOCK:   -6.74 KCAL/MOL
REMARK 923 INTER-LIGAND FREE ENERGY PREDICTED BY IDOCK:   -5.42 KCAL/MOL
REMARK 924 INTRA-LIGAND FREE ENERGY PREDICTED BY IDOCK:   -1.32 KCAL/MOL
REMARK 927      BINDING AFFINITY PREDICTED BY RF-SCORE:    0.00 PKD
ROOT
HETATM    1  C   UNL     1      -9.851  10.658  63.566  1.00  0.00    -0.326 C  
HETATM    2  O   UNL     1      -9.289   9.533  64.230  1.00  0.00    -0.197 OA 
ENDROOT
BRANCH   2   3
HETATM    3  C   UNL     1      -8.833   9.741  65.508  1.00  0.00    -0.163 A  
HETATM    4  C   UNL     1      -9.301   8.828  66.458  1.00  0.00    -0.203 A  
HETATM    5  O   UNL     1     -10.165   7.833  66.092  1.00  0.00    -0.442 OA 
HETATM    6  C   UNL     1      -8.923   8.907  67.791  1.00  0.00    -0.140 A  
HETATM    7  C   UNL     1      -8.084   9.944  68.199  1.00  0.00    -0.104 A  
HETATM    8  H   UNL     1     -10.484   7.212  66.737  1.00  0.00     0.000 HD 
HETATM    9  C   UNL     1      -7.636  10.903  67.277  1.00  0.00    -0.104 A  
HETATM   10  C   UNL     1      -7.989  10.773  65.921  1.00  0.00    -0.140 A  
BRANCH   9  11
HETATM   11  C   UNL     1      -6.816  12.077  67.746  1.00  0.00    -0.100 C  
BRANCH  11  12
HETATM   12  N   UNL     1      -7.328  13.331  67.249  1.00  0.00    -0.346 N  
HETATM   13  C   UNL     1      -6.709  14.512  67.583  1.00  0.00    -0.173 C  
HETATM   14  H   UNL     1      -8.151  13.341  66.647  1.00  0.00     0.000 HD 
HETATM   15  O   UNL     1      -5.713  14.573  68.297  1.00  0.00    -0.100 OA 
BRANCH  13  16
HETATM   16  C   UNL     1      -7.379  15.742  67.004  1.00  0.00    -0.226 C  
BRANCH  16  17
HETATM   17  C   UNL     1      -7.920  16.675  68.088  1.00  0.00    -0.177 C  
BRANCH  17  18
HETATM   18  C   UNL     1      -9.251  16.179  68.665  1.00  0.00    -0.220 C  
BRANCH  18  19
HETATM   19  C   UNL     1     -10.415  16.475  67.719  1.00  0.00    -0.308 C  
BRANCH  19  20
HETATM   20  C   UNL     1     -11.308  15.276  67.574  1.00  0.00    -0.300 C  
HETATM   21  C   UNL     1     -10.988  14.187  66.862  1.00  0.00    -0.302 C  
HETATM   22  C   UNL     1     -11.888  12.985  66.713  1.00  0.00    -0.451 C  
HETATM   23  C   UNL     1     -11.222  11.751  67.321  1.00  0.00    -0.364 C  
HETATM   24  C   UNL     1     -12.210  12.751  65.237  1.00  0.00    -0.535 C  
ENDBRANCH  19  20
ENDBRANCH  18  19
ENDBRANCH  17  18
ENDBRANCH  16  17
ENDBRANCH  13  16
ENDBRANCH  11  12
ENDBRANCH   9  11
ENDBRANCH   2   3
TORSDOF 8
ENDMDL
MODEL      259
REMARK 921   NORMALIZED FREE ENERGY PREDICTED BY IDOCK:   -3.77 KCAL/MOL
REMARK 922        TOTAL FREE ENERGY PREDICTED BY IDOCK:   -6.74 KCAL/MOL
REMARK 923 INTER-LIGAND FREE ENERGY PREDICTED BY IDOCK:   -5.82 KCAL/MOL
REMARK 924 INTRA-LIGAND FREE ENERGY PREDICTED BY IDOCK:   -0.93 KCAL/MOL
REMARK 927      BINDING AFFINITY PREDICTED BY RF-SCORE:    0.00 PKD
ROOT
HETATM    1  C   UNL     1      -6.844  12.359  67.547  1.00  0.00    -0.143 C  
HETATM    2  O   UNL     1      -6.823  11.122  68.248  1.00  0.00    -0.064 OA 
ENDROOT
BRANCH   2   3
HETATM    3  C   UNL     1      -7.992  10.747  68.862  1.00  0.00    -0.143 A  
HETATM    4  C   UNL     1      -7.848   9.783  69.866  1.00  0.00    -0.161 A  
HETATM    5  O   UNL     1      -6.615   9.270  70.160  1.00  0.00    -0.043 OA 
HETATM    6  C   UNL     1      -8.940   9.309  70.580  1.00  0.00    -0.296 A  
HETATM    7  C   UNL     1     -10.215   9.778  70.263  1.00  0.00    -0.346 A  
HETATM    8  H   UNL     1      -6.517   8.616  70.841  1.00  0.00     0.000 HD 
HETATM    9  C   UNL     1     -10.395  10.710  69.229  1.00  0.00    -0.240 A  
HETATM   10  C   UNL     1      -9.269  11.216  68.554  1.00  0.00    -0.183 A  
BRANCH   9  11
HETATM   11  C   UNL     1     -11.785  11.132  68.826  1.00  0.00    -0.326 C  
BRANCH  11  12
HETATM   12  N   UNL     1     -11.784  11.922  67.619  1.00  0.00    -0.306 N  
HETATM   13  C   UNL     1     -11.981  13.281  67.683  1.00  0.00    -0.322 C  
HETATM   14  H   UNL     1     -11.635  11.472  66.716  1.00  0.00     0.000 HD 
HETATM   15  O   UNL     1     -12.159  13.888  68.733  1.00  0.00    -0.354 OA 
BRANCH  13  16
HETATM   16  C   UNL     1     -11.977  13.966  66.331  1.00  0.00    -0.467 C  
BRANCH  16  17
HETATM   17  C   UNL     1     -10.627  13.849  65.622  1.00  0.00    -0.306 C  
BRANCH  17  18
HETATM   18  C   UNL     1      -9.550  14.714  66.286  1.00  0.00    -0.333 C  
BRANCH  18  19
HETATM   19  C   UNL     1      -9.713  16.189  65.920  1.00  0.00    -0.374 C  
BRANCH  19  20
HETATM   20  C   UNL     1      -8.539  16.995  66.399  1.00  0.00    -0.311 C  
HETATM   21  C   UNL     1      -8.390  17.422  67.661  1.00  0.00    -0.214 C  
HETATM   22  C   UNL     1      -7.213  18.235  68.140  1.00  0.00    -0.255 C  
HETATM   23  C   UNL     1      -6.433  17.458  69.201  1.00  0.00    -0.239 C  
HETATM   24  C   UNL     1      -7.694  19.575  68.697  1.00  0.00    -0.390 C  
ENDBRANCH  19  20
ENDBRANCH  18  19
ENDBRANCH  17  18
ENDBRANCH  16  17
ENDBRANCH  13  16
ENDBRANCH  11  12
ENDBRANCH   9  11
ENDBRANCH   2   3
TORSDOF 8
ENDMDL
MODEL      260
REMARK 921   NORMALIZED FREE ENERGY PREDICTED BY IDOCK:   -3.74 KCAL/MOL
REMARK 922        TOTAL FREE ENERGY PREDICTED BY IDOCK:   -6.69 KCAL/MOL
REMARK 923 INTER-LIGAND FREE ENERGY PREDICTED BY IDOCK:   -6.11 KCAL/MOL
REMARK 924 INTRA-LIGAND FREE ENERGY PREDICTED BY IDOCK:   -0.58 KCAL/MOL
REMARK 927      BINDING AFFINITY PREDICTED BY RF-SCORE:    0.00 PKD
ROOT
HETATM    1  C   UNL     1      -9.309  11.403  63.212  1.00  0.00    -0.251 C  
HETATM    2  O   UNL     1     -10.508  12.168  63.209  1.00  0.00    -0.432 OA 
ENDROOT
BRANCH   2   3
HETATM    3  C   UNL     1     -10.936  12.640  64.424  1.00  0.00    -0.351 A  
HETATM    4  C   UNL     1     -12.020  13.523  64.366  1.00  0.00    -0.422 A  
HETATM    5  O   UNL     1     -12.561  13.873  63.160  1.00  0.00    -1.057 OA 
HETATM    6  C   UNL     1     -12.567  14.078  65.515  1.00  0.00    -0.543 A  
HETATM    7  C   UNL     1     -11.999  13.778  66.753  1.00  0.00    -0.465 A  
HETATM    8  H   UNL     1     -13.297  14.473  63.120  1.00  0.00     0.000 HD 
HETATM    9  C   UNL     1     -10.881  12.932  66.837  1.00  0.00    -0.278 A  
HETATM   10  C   UNL     1     -10.377  12.338  65.666  1.00  0.00    -0.287 A  
BRANCH   9  11
HETATM   11  C   UNL     1     -10.212  12.696  68.167  1.00  0.00    -0.240 C  
BRANCH  11  12
HETATM   12  N   UNL     1     -10.772  11.563  68.863  1.00  0.00    -0.205 N  
HETATM   13  C   UNL     1      -9.969  10.506  69.220  1.00  0.00    -0.213 C  
HETATM   14  H   UNL     1     -11.766  11.546  69.091  1.00  0.00     0.000 HD 
HETATM   15  O   UNL     1      -8.767  10.462  68.983  1.00  0.00    -0.149 OA 
BRANCH  13  16
HETATM   16  C   UNL     1     -10.708   9.383  69.921  1.00  0.00    -0.258 C  
BRANCH  16  17
HETATM   17  C   UNL     1     -10.644   8.069  69.143  1.00  0.00    -0.181 C  
BRANCH  17  18
HETATM   18  C   UNL     1     -10.359   6.871  70.056  1.00  0.00    -0.219 C  
BRANCH  18  19
HETATM   19  C   UNL     1     -10.081   5.604  69.248  1.00  0.00    -0.281 C  
BRANCH  19  20
HETATM   20  C   UNL     1      -8.615   5.469  68.948  1.00  0.00    -0.100 C  
HETATM   21  C   UNL     1      -7.693   6.377  69.297  1.00  0.00    -0.101 C  
HETATM   22  C   UNL     1      -6.222   6.242  68.991  1.00  0.00    -0.033 C  
HETATM   23  C   UNL     1      -5.419   6.166  70.289  1.00  0.00    -0.014 C  
HETATM   24  C   UNL     1      -5.754   7.420  68.136  1.00  0.00    -0.027 C  
ENDBRANCH  19  20
ENDBRANCH  18  19
ENDBRANCH  17  18
ENDBRANCH  16  17
ENDBRANCH  13  16
ENDBRANCH  11  12
ENDBRANCH   9  11
ENDBRANCH   2   3
TORSDOF 8
ENDMDL
MODEL      261
REMARK 921   NORMALIZED FREE ENERGY PREDICTED BY IDOCK:   -3.72 KCAL/MOL
REMARK 922        TOTAL FREE ENERGY PREDICTED BY IDOCK:   -6.67 KCAL/MOL
REMARK 923 INTER-LIGAND FREE ENERGY PREDICTED BY IDOCK:   -5.67 KCAL/MOL
REMARK 924 INTRA-LIGAND FREE ENERGY PREDICTED BY IDOCK:   -1.00 KCAL/MOL
REMARK 927      BINDING AFFINITY PREDICTED BY RF-SCORE:    0.00 PKD
ROOT
HETATM    1  C   UNL     1      -6.592   5.635  70.178  1.00  0.00    -0.043 C  
HETATM    2  O   UNL     1      -7.555   4.801  69.545  1.00  0.00    -0.058 OA 
ENDROOT
BRANCH   2   3
HETATM    3  C   UNL     1      -8.804   5.339  69.362  1.00  0.00    -0.100 A  
HETATM    4  C   UNL     1      -9.091   5.735  68.051  1.00  0.00    -0.110 A  
HETATM    5  O   UNL     1      -8.152   5.593  67.067  1.00  0.00    -0.102 OA 
HETATM    6  C   UNL     1     -10.316   6.291  67.711  1.00  0.00    -0.242 A  
HETATM    7  C   UNL     1     -11.271   6.494  68.708  1.00  0.00    -0.319 A  
HETATM    8  H   UNL     1      -8.346   5.861  66.176  1.00  0.00     0.000 HD 
HETATM    9  C   UNL     1     -10.994   6.151  70.040  1.00  0.00    -0.441 A  
HETATM   10  C   UNL     1      -9.766   5.540  70.354  1.00  0.00    -0.242 A  
BRANCH   9  11
HETATM   11  C   UNL     1     -11.991   6.469  71.125  1.00  0.00    -0.306 C  
BRANCH  11  12
HETATM   12  N   UNL     1     -12.456   7.832  71.053  1.00  0.00    -0.499 N  
HETATM   13  C   UNL     1     -11.777   8.830  71.711  1.00  0.00    -0.346 C  
HETATM   14  H   UNL     1     -13.290   8.057  70.511  1.00  0.00     0.000 HD 
HETATM   15  O   UNL     1     -10.765   8.633  72.375  1.00  0.00    -0.339 OA 
BRANCH  13  16
HETATM   16  C   UNL     1     -12.403  10.202  71.558  1.00  0.00    -0.505 C  
BRANCH  16  17
HETATM   17  C   UNL     1     -12.885  10.467  70.132  1.00  0.00    -0.122 C  
BRANCH  17  18
HETATM   18  C   UNL     1     -11.934  11.392  69.364  1.00  0.00    -0.407 C  
BRANCH  18  19
HETATM   19  C   UNL     1     -10.825  10.602  68.670  1.00  0.00    -0.266 C  
BRANCH  19  20
HETATM   20  C   UNL     1     -10.077  11.468  67.696  1.00  0.00    -0.202 C  
HETATM   21  C   UNL     1     -10.052  12.807  67.751  1.00  0.00    -0.224 C  
HETATM   22  C   UNL     1      -9.304  13.675  66.770  1.00  0.00    -0.269 C  
HETATM   23  C   UNL     1      -8.212  14.464  67.490  1.00  0.00    -0.201 C  
HETATM   24  C   UNL     1     -10.275  14.621  66.062  1.00  0.00    -0.326 C  
ENDBRANCH  19  20
ENDBRANCH  18  19
ENDBRANCH  17  18
ENDBRANCH  16  17
ENDBRANCH  13  16
ENDBRANCH  11  12
ENDBRANCH   9  11
ENDBRANCH   2   3
TORSDOF 8
ENDMDL
MODEL      262
REMARK 921   NORMALIZED FREE ENERGY PREDICTED BY IDOCK:   -3.71 KCAL/MOL
REMARK 922        TOTAL FREE ENERGY PREDICTED BY IDOCK:   -6.66 KCAL/MOL
REMARK 923 INTER-LIGAND FREE ENERGY PREDICTED BY IDOCK:   -5.46 KCAL/MOL
REMARK 924 INTRA-LIGAND FREE ENERGY PREDICTED BY IDOCK:   -1.20 KCAL/MOL
REMARK 927      BINDING AFFINITY PREDICTED BY RF-SCORE:    0.00 PKD
ROOT
HETATM    1  C   UNL     1      -6.806   5.549  69.913  1.00  0.00    -0.060 C  
HETATM    2  O   UNL     1      -7.436   5.018  68.754  1.00  0.00    -0.067 OA 
ENDROOT
BRANCH   2   3
HETATM    3  C   UNL     1      -8.395   5.802  68.164  1.00  0.00    -0.107 A  
HETATM    4  C   UNL     1      -9.708   5.530  68.561  1.00  0.00    -0.134 A  
HETATM    5  O   UNL     1      -9.965   4.530  69.458  1.00  0.00    -0.215 OA 
HETATM    6  C   UNL     1     -10.784   6.245  68.054  1.00  0.00    -0.369 A  
HETATM    7  C   UNL     1     -10.553   7.235  67.098  1.00  0.00    -0.416 A  
HETATM    8  H   UNL     1     -10.857   4.344  69.728  1.00  0.00     0.000 HD 
HETATM    9  C   UNL     1      -9.251   7.498  66.646  1.00  0.00    -0.201 A  
HETATM   10  C   UNL     1      -8.170   6.798  67.212  1.00  0.00    -0.121 A  
BRANCH   9  11
HETATM   11  C   UNL     1      -9.022   8.496  65.540  1.00  0.00    -0.132 C  
BRANCH  11  12
HETATM   12  N   UNL     1      -9.993   9.562  65.562  1.00  0.00    -0.399 N  
HETATM   13  C   UNL     1      -9.624  10.826  65.956  1.00  0.00    -0.201 C  
HETATM   14  H   UNL     1     -10.957   9.378  65.283  1.00  0.00     0.000 HD 
HETATM   15  O   UNL     1      -8.483  11.119  66.299  1.00  0.00    -0.166 OA 
BRANCH  13  16
HETATM   16  C   UNL     1     -10.760  11.829  65.950  1.00  0.00    -0.328 C  
BRANCH  16  17
HETATM   17  C   UNL     1     -11.636  11.725  67.199  1.00  0.00    -0.342 C  
BRANCH  17  18
HETATM   18  C   UNL     1     -10.889  12.162  68.464  1.00  0.00    -0.267 C  
BRANCH  18  19
HETATM   19  C   UNL     1     -10.332  10.961  69.228  1.00  0.00    -0.211 C  
BRANCH  19  20
HETATM   20  C   UNL     1     -11.429  10.005  69.599  1.00  0.00    -0.210 C  
HETATM   21  C   UNL     1     -11.646   9.562  70.845  1.00  0.00    -0.398 C  
HETATM   22  C   UNL     1     -12.746   8.597  71.215  1.00  0.00    -0.244 C  
HETATM   23  C   UNL     1     -13.726   9.260  72.182  1.00  0.00    -0.517 C  
HETATM   24  C   UNL     1     -12.148   7.334  71.836  1.00  0.00    -0.349 C  
ENDBRANCH  19  20
ENDBRANCH  18  19
ENDBRANCH  17  18
ENDBRANCH  16  17
ENDBRANCH  13  16
ENDBRANCH  11  12
ENDBRANCH   9  11
ENDBRANCH   2   3
TORSDOF 8
ENDMDL
MODEL      263
REMARK 921   NORMALIZED FREE ENERGY PREDICTED BY IDOCK:   -3.70 KCAL/MOL
REMARK 922        TOTAL FREE ENERGY PREDICTED BY IDOCK:   -6.64 KCAL/MOL
REMARK 923 INTER-LIGAND FREE ENERGY PREDICTED BY IDOCK:   -5.33 KCAL/MOL
REMARK 924 INTRA-LIGAND FREE ENERGY PREDICTED BY IDOCK:   -1.31 KCAL/MOL
REMARK 927      BINDING AFFINITY PREDICTED BY RF-SCORE:    0.00 PKD
ROOT
HETATM    1  C   UNL     1      -8.172   4.185  72.685  1.00  0.00    -0.096 C  
HETATM    2  O   UNL     1      -9.540   3.880  72.440  1.00  0.00    -0.125 OA 
ENDROOT
BRANCH   2   3
HETATM    3  C   UNL     1     -10.260   4.818  71.744  1.00  0.00    -0.188 A  
HETATM    4  C   UNL     1     -11.202   5.521  72.502  1.00  0.00    -0.274 A  
HETATM    5  O   UNL     1     -11.367   5.242  73.831  1.00  0.00    -0.425 OA 
HETATM    6  C   UNL     1     -12.002   6.505  71.936  1.00  0.00    -0.389 A  
HETATM    7  C   UNL     1     -11.890   6.771  70.572  1.00  0.00    -0.418 A  
HETATM    8  H   UNL     1     -12.006   5.720  74.346  1.00  0.00     0.000 HD 
HETATM    9  C   UNL     1     -10.987   6.048  69.776  1.00  0.00    -0.471 A  
HETATM   10  C   UNL     1     -10.149   5.093  70.380  1.00  0.00    -0.333 A  
BRANCH   9  11
HETATM   11  C   UNL     1     -10.947   6.271  68.286  1.00  0.00    -0.321 C  
BRANCH  11  12
HETATM   12  N   UNL     1     -11.155   7.655  67.939  1.00  0.00    -0.465 N  
HETATM   13  C   UNL     1     -10.256   8.308  67.130  1.00  0.00    -0.295 C  
HETATM   14  H   UNL     1     -11.973   8.151  68.294  1.00  0.00     0.000 HD 
HETATM   15  O   UNL     1      -9.256   7.772  66.664  1.00  0.00    -0.158 OA 
BRANCH  13  16
HETATM   16  C   UNL     1     -10.600   9.762  66.877  1.00  0.00    -0.243 C  
BRANCH  16  17
HETATM   17  C   UNL     1      -9.389  10.577  66.422  1.00  0.00    -0.197 C  
BRANCH  17  18
HETATM   18  C   UNL     1      -8.963  11.611  67.471  1.00  0.00    -0.165 C  
BRANCH  18  19
HETATM   19  C   UNL     1      -7.536  11.360  67.956  1.00  0.00    -0.100 C  
BRANCH  19  20
HETATM   20  C   UNL     1      -7.451  10.082  68.741  1.00  0.00    -0.081 C  
HETATM   21  C   UNL     1      -7.566  10.013  70.074  1.00  0.00    -0.182 C  
HETATM   22  C   UNL     1      -7.476   8.729  70.861  1.00  0.00    -0.094 C  
HETATM   23  C   UNL     1      -8.799   8.456  71.576  1.00  0.00    -0.239 C  
HETATM   24  C   UNL     1      -6.327   8.809  71.866  1.00  0.00    -0.072 C  
ENDBRANCH  19  20
ENDBRANCH  18  19
ENDBRANCH  17  18
ENDBRANCH  16  17
ENDBRANCH  13  16
ENDBRANCH  11  12
ENDBRANCH   9  11
ENDBRANCH   2   3
TORSDOF 8
ENDMDL
MODEL      264
REMARK 921   NORMALIZED FREE ENERGY PREDICTED BY IDOCK:   -3.69 KCAL/MOL
REMARK 922        TOTAL FREE ENERGY PREDICTED BY IDOCK:   -6.62 KCAL/MOL
REMARK 923 INTER-LIGAND FREE ENERGY PREDICTED BY IDOCK:   -5.85 KCAL/MOL
REMARK 924 INTRA-LIGAND FREE ENERGY PREDICTED BY IDOCK:   -0.77 KCAL/MOL
REMARK 927      BINDING AFFINITY PREDICTED BY RF-SCORE:    0.00 PKD
ROOT
HETATM    1  C   UNL     1     -11.617  15.224  71.361  1.00  0.00    -0.391 C  
HETATM    2  O   UNL     1     -12.258  15.915  70.297  1.00  0.00    -0.354 OA 
ENDROOT
BRANCH   2   3
HETATM    3  C   UNL     1     -11.842  15.606  69.026  1.00  0.00    -0.364 A  
HETATM    4  C   UNL     1     -10.934  16.510  68.465  1.00  0.00    -0.350 A  
HETATM    5  O   UNL     1     -10.539  17.617  69.166  1.00  0.00    -0.403 OA 
HETATM    6  C   UNL     1     -10.420  16.327  67.189  1.00  0.00    -0.297 A  
HETATM    7  C   UNL     1     -10.847  15.235  66.434  1.00  0.00    -0.317 A  
HETATM    8  H   UNL     1      -9.923  18.231  68.785  1.00  0.00     0.000 HD 
HETATM    9  C   UNL     1     -11.793  14.336  66.953  1.00  0.00    -0.458 A  
HETATM   10  C   UNL     1     -12.261  14.511  68.269  1.00  0.00    -0.126 A  
BRANCH   9  11
HETATM   11  C   UNL     1     -12.325  13.219  66.093  1.00  0.00    -0.358 C  
BRANCH  11  12
HETATM   12  N   UNL     1     -11.332  12.723  65.172  1.00  0.00    -0.302 N  
HETATM   13  C   UNL     1     -10.518  11.675  65.531  1.00  0.00    -0.273 C  
HETATM   14  H   UNL     1     -11.235  13.150  64.251  1.00  0.00     0.000 HD 
HETATM   15  O   UNL     1     -10.585  11.112  66.618  1.00  0.00    -0.245 OA 
BRANCH  13  16
HETATM   16  C   UNL     1      -9.512  11.287  64.466  1.00  0.00    -0.211 C  
BRANCH  16  17
HETATM   17  C   UNL     1      -9.170   9.797  64.504  1.00  0.00    -0.310 C  
BRANCH  17  18
HETATM   18  C   UNL     1      -7.701   9.551  64.867  1.00  0.00    -0.115 C  
BRANCH  18  19
HETATM   19  C   UNL     1      -7.525   9.330  66.369  1.00  0.00    -0.093 C  
BRANCH  19  20
HETATM   20  C   UNL     1      -7.899   7.927  66.753  1.00  0.00    -0.103 C  
HETATM   21  C   UNL     1      -9.053   7.596  67.349  1.00  0.00    -0.136 C  
HETATM   22  C   UNL     1      -9.424   6.187  67.739  1.00  0.00    -0.115 C  
HETATM   23  C   UNL     1     -10.667   5.739  66.970  1.00  0.00    -0.369 C  
HETATM   24  C   UNL     1      -9.664   6.106  69.246  1.00  0.00    -0.163 C  
ENDBRANCH  19  20
ENDBRANCH  18  19
ENDBRANCH  17  18
ENDBRANCH  16  17
ENDBRANCH  13  16
ENDBRANCH  11  12
ENDBRANCH   9  11
ENDBRANCH   2   3
TORSDOF 8
ENDMDL
MODEL      265
REMARK 921   NORMALIZED FREE ENERGY PREDICTED BY IDOCK:   -3.68 KCAL/MOL
REMARK 922        TOTAL FREE ENERGY PREDICTED BY IDOCK:   -6.60 KCAL/MOL
REMARK 923 INTER-LIGAND FREE ENERGY PREDICTED BY IDOCK:   -6.02 KCAL/MOL
REMARK 924 INTRA-LIGAND FREE ENERGY PREDICTED BY IDOCK:   -0.59 KCAL/MOL
REMARK 927      BINDING AFFINITY PREDICTED BY RF-SCORE:    0.00 PKD
ROOT
HETATM    1  C   UNL     1      -9.546  10.970  62.771  1.00  0.00    -0.306 C  
HETATM    2  O   UNL     1      -8.382  10.692  63.539  1.00  0.00    -0.143 OA 
ENDROOT
BRANCH   2   3
HETATM    3  C   UNL     1      -8.472   9.656  64.434  1.00  0.00    -0.181 A  
HETATM    4  C   UNL     1      -7.492   8.667  64.295  1.00  0.00    -0.109 A  
HETATM    5  O   UNL     1      -6.550   8.764  63.308  1.00  0.00    -0.090 OA 
HETATM    6  C   UNL     1      -7.452   7.560  65.132  1.00  0.00    -0.085 A  
HETATM    7  C   UNL     1      -8.433   7.412  66.111  1.00  0.00    -0.147 A  
HETATM    8  H   UNL     1      -5.884   8.093  63.213  1.00  0.00     0.000 HD 
HETATM    9  C   UNL     1      -9.457   8.364  66.244  1.00  0.00    -0.292 A  
HETATM   10  C   UNL     1      -9.448   9.505  65.420  1.00  0.00    -0.336 A  
BRANCH   9  11
HETATM   11  C   UNL     1     -10.570   8.143  67.236  1.00  0.00    -0.273 C  
BRANCH  11  12
HETATM   12  N   UNL     1     -11.104   9.385  67.739  1.00  0.00    -0.487 N  
HETATM   13  C   UNL     1     -10.387  10.129  68.645  1.00  0.00    -0.188 C  
HETATM   14  H   UNL     1     -12.016   9.712  67.420  1.00  0.00     0.000 HD 
HETATM   15  O   UNL     1      -9.284   9.799  69.066  1.00  0.00    -0.150 OA 
BRANCH  13  16
HETATM   16  C   UNL     1     -11.092  11.393  69.096  1.00  0.00    -0.317 C  
BRANCH  16  17
HETATM   17  C   UNL     1     -11.557  11.313  70.550  1.00  0.00    -0.233 C  
BRANCH  17  18
HETATM   18  C   UNL     1     -13.004  10.819  70.668  1.00  0.00    -0.313 C  
BRANCH  18  19
HETATM   19  C   UNL     1     -13.216  10.007  71.945  1.00  0.00    -0.557 C  
BRANCH  19  20
HETATM   20  C   UNL     1     -13.158   8.533  71.661  1.00  0.00    -0.368 C  
HETATM   21  C   UNL     1     -12.019   7.846  71.500  1.00  0.00    -0.333 C  
HETATM   22  C   UNL     1     -11.963   6.366  71.210  1.00  0.00    -0.288 C  
HETATM   23  C   UNL     1     -11.258   5.633  72.350  1.00  0.00    -0.336 C  
HETATM   24  C   UNL     1     -11.243   6.119  69.884  1.00  0.00    -0.484 C  
ENDBRANCH  19  20
ENDBRANCH  18  19
ENDBRANCH  17  18
ENDBRANCH  16  17
ENDBRANCH  13  16
ENDBRANCH  11  12
ENDBRANCH   9  11
ENDBRANCH   2   3
TORSDOF 8
ENDMDL
MODEL      266
REMARK 921   NORMALIZED FREE ENERGY PREDICTED BY IDOCK:   -3.68 KCAL/MOL
REMARK 922        TOTAL FREE ENERGY PREDICTED BY IDOCK:   -6.60 KCAL/MOL
REMARK 923 INTER-LIGAND FREE ENERGY PREDICTED BY IDOCK:   -5.96 KCAL/MOL
REMARK 924 INTRA-LIGAND FREE ENERGY PREDICTED BY IDOCK:   -0.64 KCAL/MOL
REMARK 927      BINDING AFFINITY PREDICTED BY RF-SCORE:    0.00 PKD
ROOT
HETATM    1  C   UNL     1     -10.946   3.471  73.830  1.00  0.00    -0.221 C  
HETATM    2  O   UNL     1      -9.927   4.195  73.152  1.00  0.00    -0.131 OA 
ENDROOT
BRANCH   2   3
HETATM    3  C   UNL     1     -10.318   4.924  72.058  1.00  0.00    -0.197 A  
HETATM    4  C   UNL     1      -9.988   4.358  70.822  1.00  0.00    -0.177 A  
HETATM    5  O   UNL     1      -9.306   3.174  70.765  1.00  0.00    -0.127 OA 
HETATM    6  C   UNL     1     -10.323   4.978  69.626  1.00  0.00    -0.260 A  
HETATM    7  C   UNL     1     -10.972   6.212  69.657  1.00  0.00    -0.459 A  
HETATM    8  H   UNL     1      -9.082   2.789  69.926  1.00  0.00     0.000 HD 
HETATM    9  C   UNL     1     -11.274   6.827  70.883  1.00  0.00    -0.338 A  
HETATM   10  C   UNL     1     -10.973   6.156  72.083  1.00  0.00    -0.307 A  
BRANCH   9  11
HETATM   11  C   UNL     1     -11.882   8.206  70.907  1.00  0.00    -0.218 C  
BRANCH  11  12
HETATM   12  N   UNL     1     -11.303   9.071  69.909  1.00  0.00    -0.434 N  
HETATM   13  C   UNL     1     -10.040   9.583  70.086  1.00  0.00    -0.249 C  
HETATM   14  H   UNL     1     -11.833   9.304  69.068  1.00  0.00     0.000 HD 
HETATM   15  O   UNL     1      -9.346   9.342  71.068  1.00  0.00    -0.259 OA 
BRANCH  13  16
HETATM   16  C   UNL     1      -9.584  10.494  68.964  1.00  0.00    -0.213 C  
BRANCH  16  17
HETATM   17  C   UNL     1      -8.420   9.900  68.168  1.00  0.00    -0.114 C  
BRANCH  17  18
HETATM   18  C   UNL     1      -8.443  10.337  66.699  1.00  0.00    -0.124 C  
BRANCH  18  19
HETATM   19  C   UNL     1      -9.870  10.391  66.154  1.00  0.00    -0.278 C  
BRANCH  19  20
HETATM   20  C   UNL     1     -10.081  11.622  65.320  1.00  0.00    -0.305 C  
HETATM   21  C   UNL     1     -10.640  12.751  65.780  1.00  0.00    -0.295 C  
HETATM   22  C   UNL     1     -10.855  13.985  64.940  1.00  0.00    -0.421 C  
HETATM   23  C   UNL     1     -10.046  15.153  65.503  1.00  0.00    -0.402 C  
HETATM   24  C   UNL     1     -12.343  14.334  64.893  1.00  0.00    -0.435 C  
ENDBRANCH  19  20
ENDBRANCH  18  19
ENDBRANCH  17  18
ENDBRANCH  16  17
ENDBRANCH  13  16
ENDBRANCH  11  12
ENDBRANCH   9  11
ENDBRANCH   2   3
TORSDOF 8
ENDMDL
MODEL      267
REMARK 921   NORMALIZED FREE ENERGY PREDICTED BY IDOCK:   -3.67 KCAL/MOL
REMARK 922        TOTAL FREE ENERGY PREDICTED BY IDOCK:   -6.59 KCAL/MOL
REMARK 923 INTER-LIGAND FREE ENERGY PREDICTED BY IDOCK:   -4.63 KCAL/MOL
REMARK 924 INTRA-LIGAND FREE ENERGY PREDICTED BY IDOCK:   -1.96 KCAL/MOL
REMARK 927      BINDING AFFINITY PREDICTED BY RF-SCORE:    0.00 PKD
ROOT
HETATM    1  C   UNL     1      -9.644  10.768  62.900  1.00  0.00    -0.338 C  
HETATM    2  O   UNL     1      -8.469  10.699  63.698  1.00  0.00    -0.156 OA 
ENDROOT
BRANCH   2   3
HETATM    3  C   UNL     1      -8.469   9.771  64.709  1.00  0.00    -0.164 A  
HETATM    4  C   UNL     1      -7.436   8.831  64.647  1.00  0.00    -0.104 A  
HETATM    5  O   UNL     1      -6.531   8.865  63.622  1.00  0.00    -0.087 OA 
HETATM    6  C   UNL     1      -7.303   7.833  65.604  1.00  0.00    -0.073 A  
HETATM    7  C   UNL     1      -8.243   7.745  66.630  1.00  0.00    -0.123 A  
HETATM    8  H   UNL     1      -5.829   8.226  63.580  1.00  0.00     0.000 HD 
HETATM    9  C   UNL     1      -9.318   8.647  66.690  1.00  0.00    -0.246 A  
HETATM   10  C   UNL     1      -9.404   9.682  65.741  1.00  0.00    -0.286 A  
BRANCH   9  11
HETATM   11  C   UNL     1     -10.385   8.480  67.742  1.00  0.00    -0.237 C  
BRANCH  11  12
HETATM   12  N   UNL     1     -11.206   9.659  67.874  1.00  0.00    -0.501 N  
HETATM   13  C   UNL     1     -10.999  10.532  68.914  1.00  0.00    -0.246 C  
HETATM   14  H   UNL     1     -11.942   9.845  67.193  1.00  0.00     0.000 HD 
HETATM   15  O   UNL     1     -10.129  10.374  69.765  1.00  0.00    -0.227 OA 
BRANCH  13  16
HETATM   16  C   UNL     1     -11.956  11.707  68.930  1.00  0.00    -0.355 C  
BRANCH  16  17
HETATM   17  C   UNL     1     -11.601  12.762  67.882  1.00  0.00    -0.400 C  
BRANCH  17  18
HETATM   18  C   UNL     1     -10.632  13.816  68.430  1.00  0.00    -0.261 C  
BRANCH  18  19
HETATM   19  C   UNL     1      -9.532  14.142  67.421  1.00  0.00    -0.220 C  
BRANCH  19  20
HETATM   20  C   UNL     1      -8.229  13.512  67.825  1.00  0.00    -0.176 C  
HETATM   21  C   UNL     1      -7.829  12.297  67.423  1.00  0.00    -0.171 C  
HETATM   22  C   UNL     1      -6.522  11.664  67.833  1.00  0.00    -0.061 C  
HETATM   23  C   UNL     1      -5.640  11.435  66.606  1.00  0.00    -0.138 C  
HETATM   24  C   UNL     1      -6.785  10.346  68.561  1.00  0.00    -0.056 C  
ENDBRANCH  19  20
ENDBRANCH  18  19
ENDBRANCH  17  18
ENDBRANCH  16  17
ENDBRANCH  13  16
ENDBRANCH  11  12
ENDBRANCH   9  11
ENDBRANCH   2   3
TORSDOF 8
ENDMDL
MODEL      268
REMARK 921   NORMALIZED FREE ENERGY PREDICTED BY IDOCK:   -3.66 KCAL/MOL
REMARK 922        TOTAL FREE ENERGY PREDICTED BY IDOCK:   -6.58 KCAL/MOL
REMARK 923 INTER-LIGAND FREE ENERGY PREDICTED BY IDOCK:   -5.89 KCAL/MOL
REMARK 924 INTRA-LIGAND FREE ENERGY PREDICTED BY IDOCK:   -0.69 KCAL/MOL
REMARK 927      BINDING AFFINITY PREDICTED BY RF-SCORE:    0.00 PKD
ROOT
HETATM    1  C   UNL     1      -9.576   4.530  67.696  1.00  0.00    -0.165 C  
HETATM    2  O   UNL     1      -9.671   5.287  66.496  1.00  0.00    -0.143 OA 
ENDROOT
BRANCH   2   3
HETATM    3  C   UNL     1      -9.449   6.636  66.604  1.00  0.00    -0.164 A  
HETATM    4  C   UNL     1      -8.160   7.053  66.255  1.00  0.00    -0.115 A  
HETATM    5  O   UNL     1      -7.222   6.139  65.862  1.00  0.00    -0.071 OA 
HETATM    6  C   UNL     1      -7.789   8.390  66.308  1.00  0.00    -0.098 A  
HETATM    7  C   UNL     1      -8.712   9.334  66.756  1.00  0.00    -0.138 A  
HETATM    8  H   UNL     1      -6.346   6.422  65.625  1.00  0.00     0.000 HD 
HETATM    9  C   UNL     1      -9.998   8.939  67.158  1.00  0.00    -0.289 A  
HETATM   10  C   UNL     1     -10.370   7.587  67.045  1.00  0.00    -0.395 A  
BRANCH   9  11
HETATM   11  C   UNL     1     -10.953   9.952  67.737  1.00  0.00    -0.217 C  
BRANCH  11  12
HETATM   12  N   UNL     1     -10.469  11.302  67.587  1.00  0.00    -0.186 N  
HETATM   13  C   UNL     1     -11.131  12.187  66.770  1.00  0.00    -0.300 C  
HETATM   14  H   UNL     1      -9.633  11.602  68.089  1.00  0.00     0.000 HD 
HETATM   15  O   UNL     1     -12.143  11.896  66.141  1.00  0.00    -0.519 OA 
BRANCH  13  16
HETATM   16  C   UNL     1     -10.486  13.557  66.698  1.00  0.00    -0.274 C  
BRANCH  16  17
HETATM   17  C   UNL     1      -9.523  13.809  67.858  1.00  0.00    -0.214 C  
BRANCH  17  18
HETATM   18  C   UNL     1     -10.109  14.772  68.896  1.00  0.00    -0.237 C  
BRANCH  18  19
HETATM   19  C   UNL     1     -11.037  15.798  68.246  1.00  0.00    -0.342 C  
BRANCH  19  20
HETATM   20  C   UNL     1     -10.630  17.198  68.610  1.00  0.00    -0.352 C  
HETATM   21  C   UNL     1      -9.844  17.971  67.849  1.00  0.00    -0.308 C  
HETATM   22  C   UNL     1      -9.432  19.375  68.219  1.00  0.00    -0.433 C  
HETATM   23  C   UNL     1      -9.974  20.369  67.193  1.00  0.00    -0.568 C  
HETATM   24  C   UNL     1      -7.909  19.467  68.307  1.00  0.00    -0.362 C  
ENDBRANCH  19  20
ENDBRANCH  18  19
ENDBRANCH  17  18
ENDBRANCH  16  17
ENDBRANCH  13  16
ENDBRANCH  11  12
ENDBRANCH   9  11
ENDBRANCH   2   3
TORSDOF 8
ENDMDL
MODEL      269
REMARK 921   NORMALIZED FREE ENERGY PREDICTED BY IDOCK:   -3.66 KCAL/MOL
REMARK 922        TOTAL FREE ENERGY PREDICTED BY IDOCK:   -6.58 KCAL/MOL
REMARK 923 INTER-LIGAND FREE ENERGY PREDICTED BY IDOCK:   -5.84 KCAL/MOL
REMARK 924 INTRA-LIGAND FREE ENERGY PREDICTED BY IDOCK:   -0.74 KCAL/MOL
REMARK 927      BINDING AFFINITY PREDICTED BY RF-SCORE:    0.00 PKD
ROOT
HETATM    1  C   UNL     1      -9.292  17.448  66.756  1.00  0.00    -0.268 C  
HETATM    2  O   UNL     1     -10.224  17.233  67.808  1.00  0.00    -0.303 OA 
ENDROOT
BRANCH   2   3
HETATM    3  C   UNL     1     -10.835  16.005  67.846  1.00  0.00    -0.333 A  
HETATM    4  C   UNL     1     -11.033  15.483  69.128  1.00  0.00    -0.259 A  
HETATM    5  O   UNL     1     -10.612  16.177  70.229  1.00  0.00    -0.265 OA 
HETATM    6  C   UNL     1     -11.644  14.252  69.325  1.00  0.00    -0.350 A  
HETATM    7  C   UNL     1     -12.034  13.501  68.216  1.00  0.00    -0.377 A  
HETATM    8  H   UNL     1     -10.747  15.823  71.100  1.00  0.00     0.000 HD 
HETATM    9  C   UNL     1     -11.805  13.978  66.916  1.00  0.00    -0.458 A  
HETATM   10  C   UNL     1     -11.233  15.252  66.740  1.00  0.00    -0.241 A  
BRANCH   9  11
HETATM   11  C   UNL     1     -12.136  13.116  65.725  1.00  0.00    -0.447 C  
BRANCH  11  12
HETATM   12  N   UNL     1     -11.338  11.915  65.686  1.00  0.00    -0.313 N  
HETATM   13  C   UNL     1     -10.487  11.685  64.631  1.00  0.00    -0.302 C  
HETATM   14  H   UNL     1     -11.404  11.235  66.443  1.00  0.00     0.000 HD 
HETATM   15  O   UNL     1     -10.353  12.462  63.691  1.00  0.00    -0.424 OA 
BRANCH  13  16
HETATM   16  C   UNL     1      -9.737  10.371  64.722  1.00  0.00    -0.383 C  
BRANCH  16  17
HETATM   17  C   UNL     1      -8.490  10.472  65.600  1.00  0.00    -0.179 C  
BRANCH  17  18
HETATM   18  C   UNL     1      -8.412   9.333  66.624  1.00  0.00    -0.130 C  
BRANCH  18  19
HETATM   19  C   UNL     1      -7.155   8.487  66.424  1.00  0.00    -0.079 C  
BRANCH  19  20
HETATM   20  C   UNL     1      -7.500   7.028  66.323  1.00  0.00    -0.080 C  
HETATM   21  C   UNL     1      -8.671   6.566  65.864  1.00  0.00    -0.149 C  
HETATM   22  C   UNL     1      -9.018   5.101  65.767  1.00  0.00    -0.152 C  
HETATM   23  C   UNL     1      -9.251   4.710  64.308  1.00  0.00    -0.076 C  
HETATM   24  C   UNL     1     -10.256   4.799  66.611  1.00  0.00    -0.274 C  
ENDBRANCH  19  20
ENDBRANCH  18  19
ENDBRANCH  17  18
ENDBRANCH  16  17
ENDBRANCH  13  16
ENDBRANCH  11  12
ENDBRANCH   9  11
ENDBRANCH   2   3
TORSDOF 8
ENDMDL
MODEL      270
REMARK 921   NORMALIZED FREE ENERGY PREDICTED BY IDOCK:   -3.65 KCAL/MOL
REMARK 922        TOTAL FREE ENERGY PREDICTED BY IDOCK:   -6.56 KCAL/MOL
REMARK 923 INTER-LIGAND FREE ENERGY PREDICTED BY IDOCK:   -5.85 KCAL/MOL
REMARK 924 INTRA-LIGAND FREE ENERGY PREDICTED BY IDOCK:   -0.70 KCAL/MOL
REMARK 927      BINDING AFFINITY PREDICTED BY RF-SCORE:    0.00 PKD
ROOT
HETATM    1  C   UNL     1     -12.460  15.311  70.759  1.00  0.00    -0.402 C  
HETATM    2  O   UNL     1     -11.373  16.210  70.583  1.00  0.00    -0.375 OA 
ENDROOT
BRANCH   2   3
HETATM    3  C   UNL     1     -10.534  15.958  69.527  1.00  0.00    -0.281 A  
HETATM    4  C   UNL     1     -10.150  17.087  68.796  1.00  0.00    -0.307 A  
HETATM    5  O   UNL     1     -10.621  18.325  69.138  1.00  0.00    -0.377 OA 
HETATM    6  C   UNL     1      -9.300  16.991  67.703  1.00  0.00    -0.241 A  
HETATM    7  C   UNL     1      -8.848  15.734  67.302  1.00  0.00    -0.212 A  
HETATM    8  H   UNL     1     -10.360  19.092  68.641  1.00  0.00     0.000 HD 
HETATM    9  C   UNL     1      -9.254  14.578  67.988  1.00  0.00    -0.190 A  
HETATM   10  C   UNL     1     -10.073  14.704  69.125  1.00  0.00    -0.178 A  
BRANCH   9  11
HETATM   11  C   UNL     1      -8.844  13.218  67.485  1.00  0.00    -0.206 C  
BRANCH  11  12
HETATM   12  N   UNL     1      -9.057  12.187  68.472  1.00  0.00    -0.345 N  
HETATM   13  C   UNL     1      -9.902  11.138  68.205  1.00  0.00    -0.180 C  
HETATM   14  H   UNL     1      -8.577  12.238  69.371  1.00  0.00     0.000 HD 
HETATM   15  O   UNL     1     -10.506  11.011  67.144  1.00  0.00    -0.209 OA 
BRANCH  13  16
HETATM   16  C   UNL     1     -10.040  10.153  69.348  1.00  0.00    -0.250 C  
BRANCH  16  17
HETATM   17  C   UNL     1     -11.488  10.000  69.814  1.00  0.00    -0.240 C  
BRANCH  17  18
HETATM   18  C   UNL     1     -11.678   8.772  70.712  1.00  0.00    -0.253 C  
BRANCH  18  19
HETATM   19  C   UNL     1     -10.875   8.895  72.006  1.00  0.00    -0.404 C  
BRANCH  19  20
HETATM   20  C   UNL     1     -10.144   7.617  72.308  1.00  0.00    -0.260 C  
HETATM   21  C   UNL     1     -10.547   6.408  71.893  1.00  0.00    -0.247 C  
HETATM   22  C   UNL     1      -9.815   5.126  72.201  1.00  0.00    -0.222 C  
HETATM   23  C   UNL     1      -9.323   4.477  70.908  1.00  0.00    -0.219 C  
HETATM   24  C   UNL     1     -10.730   4.172  72.969  1.00  0.00    -0.256 C  
ENDBRANCH  19  20
ENDBRANCH  18  19
ENDBRANCH  17  18
ENDBRANCH  16  17
ENDBRANCH  13  16
ENDBRANCH  11  12
ENDBRANCH   9  11
ENDBRANCH   2   3
TORSDOF 8
ENDMDL
MODEL      271
REMARK 921   NORMALIZED FREE ENERGY PREDICTED BY IDOCK:   -3.64 KCAL/MOL
REMARK 922        TOTAL FREE ENERGY PREDICTED BY IDOCK:   -6.55 KCAL/MOL
REMARK 923 INTER-LIGAND FREE ENERGY PREDICTED BY IDOCK:   -5.42 KCAL/MOL
REMARK 924 INTRA-LIGAND FREE ENERGY PREDICTED BY IDOCK:   -1.13 KCAL/MOL
REMARK 927      BINDING AFFINITY PREDICTED BY RF-SCORE:    0.00 PKD
ROOT
HETATM    1  C   UNL     1      -7.826   9.506  70.528  1.00  0.00    -0.157 C  
HETATM    2  O   UNL     1      -9.141   9.931  70.192  1.00  0.00    -0.223 OA 
ENDROOT
BRANCH   2   3
HETATM    3  C   UNL     1     -10.164   9.412  70.945  1.00  0.00    -0.303 A  
HETATM    4  C   UNL     1     -11.292  10.231  71.054  1.00  0.00    -0.226 A  
HETATM    5  O   UNL     1     -11.315  11.459  70.453  1.00  0.00    -0.487 OA 
HETATM    6  C   UNL     1     -12.409   9.838  71.779  1.00  0.00    -0.470 A  
HETATM    7  C   UNL     1     -12.390   8.612  72.445  1.00  0.00    -0.426 A  
HETATM    8  H   UNL     1     -12.081  12.016  70.526  1.00  0.00     0.000 HD 
HETATM    9  C   UNL     1     -11.253   7.790  72.393  1.00  0.00    -0.392 A  
HETATM   10  C   UNL     1     -10.154   8.184  71.609  1.00  0.00    -0.259 A  
BRANCH   9  11
HETATM   11  C   UNL     1     -11.204   6.517  73.199  1.00  0.00    -0.082 C  
BRANCH  11  12
HETATM   12  N   UNL     1     -11.015   5.355  72.366  1.00  0.00    -0.244 N  
HETATM   13  C   UNL     1      -9.770   4.787  72.244  1.00  0.00    -0.159 C  
HETATM   14  H   UNL     1     -11.809   4.952  71.868  1.00  0.00     0.000 HD 
HETATM   15  O   UNL     1      -8.774   5.215  72.818  1.00  0.00    -0.119 OA 
BRANCH  13  16
HETATM   16  C   UNL     1      -9.729   3.589  71.316  1.00  0.00    -0.237 C  
BRANCH  16  17
HETATM   17  C   UNL     1      -8.931   3.866  70.042  1.00  0.00    -0.165 C  
BRANCH  17  18
HETATM   18  C   UNL     1      -9.431   5.116  69.308  1.00  0.00    -0.196 C  
BRANCH  18  19
HETATM   19  C   UNL     1      -9.748   4.815  67.844  1.00  0.00    -0.200 C  
BRANCH  19  20
HETATM   20  C   UNL     1      -9.847   6.084  67.045  1.00  0.00    -0.179 C  
HETATM   21  C   UNL     1      -9.537   7.296  67.524  1.00  0.00    -0.171 C  
HETATM   22  C   UNL     1      -9.641   8.570  66.721  1.00  0.00    -0.273 C  
HETATM   23  C   UNL     1      -8.261   9.206  66.562  1.00  0.00    -0.111 C  
HETATM   24  C   UNL     1     -10.606   9.540  67.402  1.00  0.00    -0.337 C  
ENDBRANCH  19  20
ENDBRANCH  18  19
ENDBRANCH  17  18
ENDBRANCH  16  17
ENDBRANCH  13  16
ENDBRANCH  11  12
ENDBRANCH   9  11
ENDBRANCH   2   3
TORSDOF 8
ENDMDL
MODEL      272
REMARK 921   NORMALIZED FREE ENERGY PREDICTED BY IDOCK:   -3.64 KCAL/MOL
REMARK 922        TOTAL FREE ENERGY PREDICTED BY IDOCK:   -6.55 KCAL/MOL
REMARK 923 INTER-LIGAND FREE ENERGY PREDICTED BY IDOCK:   -5.94 KCAL/MOL
REMARK 924 INTRA-LIGAND FREE ENERGY PREDICTED BY IDOCK:   -0.61 KCAL/MOL
REMARK 927      BINDING AFFINITY PREDICTED BY RF-SCORE:    0.00 PKD
ROOT
HETATM    1  C   UNL     1     -10.843   6.534  68.177  1.00  0.00    -0.295 C  
HETATM    2  O   UNL     1      -9.498   6.613  67.722  1.00  0.00    -0.122 OA 
ENDROOT
BRANCH   2   3
HETATM    3  C   UNL     1      -9.251   7.480  66.687  1.00  0.00    -0.162 A  
HETATM    4  C   UNL     1      -8.174   7.128  65.866  1.00  0.00    -0.132 A  
HETATM    5  O   UNL     1      -7.442   6.004  66.132  1.00  0.00    -0.082 OA 
HETATM    6  C   UNL     1      -7.807   7.905  64.776  1.00  0.00    -0.125 A  
HETATM    7  C   UNL     1      -8.505   9.084  64.516  1.00  0.00    -0.191 A  
HETATM    8  H   UNL     1      -6.711   5.764  65.574  1.00  0.00     0.000 HD 
HETATM    9  C   UNL     1      -9.560   9.487  65.350  1.00  0.00    -0.342 A  
HETATM   10  C   UNL     1      -9.949   8.657  66.418  1.00  0.00    -0.331 A  
BRANCH   9  11
HETATM   11  C   UNL     1     -10.239  10.813  65.122  1.00  0.00    -0.298 C  
BRANCH  11  12
HETATM   12  N   UNL     1     -10.702  11.405  66.353  1.00  0.00    -0.268 N  
HETATM   13  C   UNL     1      -9.866  12.210  67.090  1.00  0.00    -0.197 C  
HETATM   14  H   UNL     1     -11.652  11.227  66.678  1.00  0.00     0.000 HD 
HETATM   15  O   UNL     1      -8.715  12.471  66.756  1.00  0.00    -0.200 OA 
BRANCH  13  16
HETATM   16  C   UNL     1     -10.488  12.735  68.368  1.00  0.00    -0.253 C  
BRANCH  16  17
HETATM   17  C   UNL     1     -11.814  13.455  68.117  1.00  0.00    -0.396 C  
BRANCH  17  18
HETATM   18  C   UNL     1     -11.609  14.924  67.730  1.00  0.00    -0.358 C  
BRANCH  18  19
HETATM   19  C   UNL     1     -11.287  15.072  66.244  1.00  0.00    -0.273 C  
BRANCH  19  20
HETATM   20  C   UNL     1     -10.347  16.220  66.009  1.00  0.00    -0.363 C  
HETATM   21  C   UNL     1     -10.380  17.368  66.700  1.00  0.00    -0.306 C  
HETATM   22  C   UNL     1      -9.438  18.522  66.461  1.00  0.00    -0.322 C  
HETATM   23  C   UNL     1      -8.589  18.776  67.705  1.00  0.00    -0.305 C  
HETATM   24  C   UNL     1     -10.230  19.774  66.083  1.00  0.00    -0.618 C  
ENDBRANCH  19  20
ENDBRANCH  18  19
ENDBRANCH  17  18
ENDBRANCH  16  17
ENDBRANCH  13  16
ENDBRANCH  11  12
ENDBRANCH   9  11
ENDBRANCH   2   3
TORSDOF 8
ENDMDL
MODEL      273
REMARK 921   NORMALIZED FREE ENERGY PREDICTED BY IDOCK:   -3.64 KCAL/MOL
REMARK 922        TOTAL FREE ENERGY PREDICTED BY IDOCK:   -6.55 KCAL/MOL
REMARK 923 INTER-LIGAND FREE ENERGY PREDICTED BY IDOCK:   -5.85 KCAL/MOL
REMARK 924 INTRA-LIGAND FREE ENERGY PREDICTED BY IDOCK:   -0.70 KCAL/MOL
REMARK 927      BINDING AFFINITY PREDICTED BY RF-SCORE:    0.00 PKD
ROOT
HETATM    1  C   UNL     1     -12.194  15.593  70.038  1.00  0.00    -0.327 C  
HETATM    2  O   UNL     1     -10.925  15.594  69.394  1.00  0.00    -0.243 OA 
ENDROOT
BRANCH   2   3
HETATM    3  C   UNL     1     -10.933  15.712  68.027  1.00  0.00    -0.318 A  
HETATM    4  C   UNL     1     -10.452  16.931  67.537  1.00  0.00    -0.328 A  
HETATM    5  O   UNL     1     -10.038  17.908  68.400  1.00  0.00    -0.341 OA 
HETATM    6  C   UNL     1     -10.394  17.194  66.175  1.00  0.00    -0.327 A  
HETATM    7  C   UNL     1     -10.860  16.234  65.276  1.00  0.00    -0.310 A  
HETATM    8  H   UNL     1      -9.712  18.735  68.067  1.00  0.00     0.000 HD 
HETATM    9  C   UNL     1     -11.391  15.021  65.741  1.00  0.00    -0.279 A  
HETATM   10  C   UNL     1     -11.391  14.753  67.123  1.00  0.00    -0.363 A  
BRANCH   9  11
HETATM   11  C   UNL     1     -11.985  14.035  64.769  1.00  0.00    -0.417 C  
BRANCH  11  12
HETATM   12  N   UNL     1     -11.674  12.671  65.120  1.00  0.00    -0.348 N  
HETATM   13  C   UNL     1     -10.699  11.986  64.435  1.00  0.00    -0.323 C  
HETATM   14  H   UNL     1     -12.178  12.213  65.880  1.00  0.00     0.000 HD 
HETATM   15  O   UNL     1     -10.051  12.475  63.516  1.00  0.00    -0.393 OA 
BRANCH  13  16
HETATM   16  C   UNL     1     -10.507  10.557  64.905  1.00  0.00    -0.214 C  
BRANCH  16  17
HETATM   17  C   UNL     1      -9.038  10.135  64.899  1.00  0.00    -0.256 C  
BRANCH  17  18
HETATM   18  C   UNL     1      -8.831   8.755  65.535  1.00  0.00    -0.229 C  
BRANCH  18  19
HETATM   19  C   UNL     1      -9.819   8.511  66.675  1.00  0.00    -0.342 C  
BRANCH  19  20
HETATM   20  C   UNL     1      -9.152   8.686  68.010  1.00  0.00    -0.144 C  
HETATM   21  C   UNL     1      -8.164   7.901  68.461  1.00  0.00    -0.127 C  
HETATM   22  C   UNL     1      -7.498   8.075  69.804  1.00  0.00    -0.089 C  
HETATM   23  C   UNL     1      -6.017   8.402  69.619  1.00  0.00    -0.032 C  
HETATM   24  C   UNL     1      -7.670   6.808  70.642  1.00  0.00    -0.097 C  
ENDBRANCH  19  20
ENDBRANCH  18  19
ENDBRANCH  17  18
ENDBRANCH  16  17
ENDBRANCH  13  16
ENDBRANCH  11  12
ENDBRANCH   9  11
ENDBRANCH   2   3
TORSDOF 8
ENDMDL
MODEL      274
REMARK 921   NORMALIZED FREE ENERGY PREDICTED BY IDOCK:   -3.60 KCAL/MOL
REMARK 922        TOTAL FREE ENERGY PREDICTED BY IDOCK:   -6.50 KCAL/MOL
REMARK 923 INTER-LIGAND FREE ENERGY PREDICTED BY IDOCK:   -6.11 KCAL/MOL
REMARK 924 INTRA-LIGAND FREE ENERGY PREDICTED BY IDOCK:   -0.39 KCAL/MOL
REMARK 927      BINDING AFFINITY PREDICTED BY RF-SCORE:    0.00 PKD
ROOT
HETATM    1  C   UNL     1      -7.917   3.103  66.181  1.00  0.00    -0.085 C  
HETATM    2  O   UNL     1      -9.200   2.916  66.766  1.00  0.00    -0.162 OA 
ENDROOT
BRANCH   2   3
HETATM    3  C   UNL     1      -9.760   4.010  67.375  1.00  0.00    -0.141 A  
HETATM    4  C   UNL     1     -10.442   4.880  66.517  1.00  0.00    -0.252 A  
HETATM    5  O   UNL     1     -10.497   4.623  65.175  1.00  0.00    -0.436 OA 
HETATM    6  C   UNL     1     -11.066   6.026  66.989  1.00  0.00    -0.263 A  
HETATM    7  C   UNL     1     -10.979   6.338  68.346  1.00  0.00    -0.409 A  
HETATM    8  H   UNL     1     -10.960   5.213  64.592  1.00  0.00     0.000 HD 
HETATM    9  C   UNL     1     -10.261   5.509  69.223  1.00  0.00    -0.315 A  
HETATM   10  C   UNL     1      -9.682   4.324  68.733  1.00  0.00    -0.184 A  
BRANCH   9  11
HETATM   11  C   UNL     1     -10.086   5.908  70.666  1.00  0.00    -0.197 C  
BRANCH  11  12
HETATM   12  N   UNL     1     -10.254   7.327  70.861  1.00  0.00    -0.197 N  
HETATM   13  C   UNL     1     -11.258   7.799  71.673  1.00  0.00    -0.248 C  
HETATM   14  H   UNL     1      -9.626   7.982  70.396  1.00  0.00     0.000 HD 
HETATM   15  O   UNL     1     -12.045   7.069  72.267  1.00  0.00    -0.262 OA 
BRANCH  13  16
HETATM   16  C   UNL     1     -11.320   9.311  71.757  1.00  0.00    -0.437 C  
BRANCH  16  17
HETATM   17  C   UNL     1     -12.440   9.896  70.897  1.00  0.00    -0.401 C  
BRANCH  17  18
HETATM   18  C   UNL     1     -11.932  10.998  69.959  1.00  0.00    -0.430 C  
BRANCH  18  19
HETATM   19  C   UNL     1     -12.196  12.389  70.536  1.00  0.00    -0.382 C  
BRANCH  19  20
HETATM   20  C   UNL     1     -11.935  13.454  69.510  1.00  0.00    -0.377 C  
HETATM   21  C   UNL     1     -10.809  14.180  69.454  1.00  0.00    -0.169 C  
HETATM   22  C   UNL     1     -10.551  15.253  68.425  1.00  0.00    -0.246 C  
HETATM   23  C   UNL     1      -9.350  14.874  67.559  1.00  0.00    -0.193 C  
HETATM   24  C   UNL     1     -10.313  16.596  69.117  1.00  0.00    -0.326 C  
ENDBRANCH  19  20
ENDBRANCH  18  19
ENDBRANCH  17  18
ENDBRANCH  16  17
ENDBRANCH  13  16
ENDBRANCH  11  12
ENDBRANCH   9  11
ENDBRANCH   2   3
TORSDOF 8
ENDMDL
MODEL      275
REMARK 921   NORMALIZED FREE ENERGY PREDICTED BY IDOCK:   -3.60 KCAL/MOL
REMARK 922        TOTAL FREE ENERGY PREDICTED BY IDOCK:   -6.49 KCAL/MOL
REMARK 923 INTER-LIGAND FREE ENERGY PREDICTED BY IDOCK:   -5.84 KCAL/MOL
REMARK 924 INTRA-LIGAND FREE ENERGY PREDICTED BY IDOCK:   -0.66 KCAL/MOL
REMARK 927      BINDING AFFINITY PREDICTED BY RF-SCORE:    0.00 PKD
ROOT
HETATM    1  C   UNL     1     -10.100   4.978  70.034  1.00  0.00    -0.272 C  
HETATM    2  O   UNL     1     -11.083   5.491  69.143  1.00  0.00    -0.153 OA 
ENDROOT
BRANCH   2   3
HETATM    3  C   UNL     1     -10.863   6.752  68.648  1.00  0.00    -0.224 A  
HETATM    4  C   UNL     1     -10.833   6.841  67.252  1.00  0.00    -0.373 A  
HETATM    5  O   UNL     1     -10.995   5.721  66.485  1.00  0.00    -0.617 OA 
HETATM    6  C   UNL     1     -10.625   8.052  66.605  1.00  0.00    -0.074 A  
HETATM    7  C   UNL     1     -10.404   9.200  67.366  1.00  0.00    -0.330 A  
HETATM    8  H   UNL     1     -10.975   5.781  65.537  1.00  0.00     0.000 HD 
HETATM    9  C   UNL     1     -10.382   9.132  68.768  1.00  0.00    -0.235 A  
HETATM   10  C   UNL     1     -10.648   7.905  69.403  1.00  0.00    -0.209 A  
BRANCH   9  11
HETATM   11  C   UNL     1     -10.041  10.357  69.578  1.00  0.00    -0.219 C  
BRANCH  11  12
HETATM   12  N   UNL     1      -9.411  11.378  68.779  1.00  0.00    -0.343 N  
HETATM   13  C   UNL     1      -8.058  11.600  68.881  1.00  0.00    -0.004 C  
HETATM   14  H   UNL     1      -9.970  11.938  68.135  1.00  0.00     0.000 HD 
HETATM   15  O   UNL     1      -7.325  10.962  69.630  1.00  0.00    -0.134 OA 
BRANCH  13  16
HETATM   16  C   UNL     1      -7.551  12.722  67.997  1.00  0.00    -0.131 C  
BRANCH  16  17
HETATM   17  C   UNL     1      -8.688  13.505  67.341  1.00  0.00    -0.220 C  
BRANCH  17  18
HETATM   18  C   UNL     1      -8.394  15.009  67.283  1.00  0.00    -0.228 C  
BRANCH  18  19
HETATM   19  C   UNL     1      -9.057  15.663  66.072  1.00  0.00    -0.346 C  
BRANCH  19  20
HETATM   20  C   UNL     1      -8.967  17.160  66.152  1.00  0.00    -0.217 C  
HETATM   21  C   UNL     1      -8.976  17.850  67.302  1.00  0.00    -0.250 C  
HETATM   22  C   UNL     1      -8.890  19.354  67.381  1.00  0.00    -0.349 C  
HETATM   23  C   UNL     1      -7.619  19.770  68.119  1.00  0.00    -0.339 C  
HETATM   24  C   UNL     1     -10.128  19.913  68.081  1.00  0.00    -0.569 C  
ENDBRANCH  19  20
ENDBRANCH  18  19
ENDBRANCH  17  18
ENDBRANCH  16  17
ENDBRANCH  13  16
ENDBRANCH  11  12
ENDBRANCH   9  11
ENDBRANCH   2   3
TORSDOF 8
ENDMDL
MODEL      276
REMARK 921   NORMALIZED FREE ENERGY PREDICTED BY IDOCK:   -3.60 KCAL/MOL
REMARK 922        TOTAL FREE ENERGY PREDICTED BY IDOCK:   -6.49 KCAL/MOL
REMARK 923 INTER-LIGAND FREE ENERGY PREDICTED BY IDOCK:   -5.87 KCAL/MOL
REMARK 924 INTRA-LIGAND FREE ENERGY PREDICTED BY IDOCK:   -0.62 KCAL/MOL
REMARK 927      BINDING AFFINITY PREDICTED BY RF-SCORE:    0.00 PKD
ROOT
HETATM    1  C   UNL     1     -11.012  15.508  69.140  1.00  0.00    -0.259 C  
HETATM    2  O   UNL     1     -12.121  14.657  68.878  1.00  0.00    -0.286 OA 
ENDROOT
BRANCH   2   3
HETATM    3  C   UNL     1     -12.450  13.758  69.862  1.00  0.00    -0.201 A  
HETATM    4  C   UNL     1     -13.329  14.244  70.836  1.00  0.00    -0.208 A  
HETATM    5  O   UNL     1     -13.781  15.533  70.777  1.00  0.00    -0.838 OA 
HETATM    6  C   UNL     1     -13.756  13.449  71.890  1.00  0.00    -0.444 A  
HETATM    7  C   UNL     1     -13.268  12.147  72.002  1.00  0.00    -0.496 A  
HETATM    8  H   UNL     1     -14.379  15.863  71.437  1.00  0.00     0.000 HD 
HETATM    9  C   UNL     1     -12.348  11.648  71.066  1.00  0.00    -0.405 A  
HETATM   10  C   UNL     1     -11.969  12.453  69.976  1.00  0.00    -0.372 A  
BRANCH   9  11
HETATM   11  C   UNL     1     -11.748  10.278  71.253  1.00  0.00    -0.291 C  
BRANCH  11  12
HETATM   12  N   UNL     1     -11.304   9.705  70.006  1.00  0.00    -0.348 N  
HETATM   13  C   UNL     1     -10.989   8.370  69.932  1.00  0.00    -0.166 C  
HETATM   14  H   UNL     1     -11.224  10.293  69.176  1.00  0.00     0.000 HD 
HETATM   15  O   UNL     1     -11.066   7.605  70.888  1.00  0.00    -0.253 OA 
BRANCH  13  16
HETATM   16  C   UNL     1     -10.515   7.925  68.562  1.00  0.00    -0.202 C  
BRANCH  16  17
HETATM   17  C   UNL     1      -9.776   9.034  67.813  1.00  0.00    -0.190 C  
BRANCH  17  18
HETATM   18  C   UNL     1     -10.147   9.072  66.326  1.00  0.00    -0.311 C  
BRANCH  18  19
HETATM   19  C   UNL     1      -9.133   9.881  65.517  1.00  0.00    -0.232 C  
BRANCH  19  20
HETATM   20  C   UNL     1      -7.897   9.073  65.243  1.00  0.00    -0.102 C  
HETATM   21  C   UNL     1      -7.913   7.797  64.831  1.00  0.00    -0.139 C  
HETATM   22  C   UNL     1      -6.670   6.985  64.560  1.00  0.00    -0.046 C  
HETATM   23  C   UNL     1      -6.618   6.579  63.087  1.00  0.00    -0.038 C  
HETATM   24  C   UNL     1      -6.645   5.751  65.461  1.00  0.00    -0.044 C  
ENDBRANCH  19  20
ENDBRANCH  18  19
ENDBRANCH  17  18
ENDBRANCH  16  17
ENDBRANCH  13  16
ENDBRANCH  11  12
ENDBRANCH   9  11
ENDBRANCH   2   3
TORSDOF 8
ENDMDL
MODEL      277
REMARK 921   NORMALIZED FREE ENERGY PREDICTED BY IDOCK:   -3.59 KCAL/MOL
REMARK 922        TOTAL FREE ENERGY PREDICTED BY IDOCK:   -6.48 KCAL/MOL
REMARK 923 INTER-LIGAND FREE ENERGY PREDICTED BY IDOCK:   -4.97 KCAL/MOL
REMARK 924 INTRA-LIGAND FREE ENERGY PREDICTED BY IDOCK:   -1.50 KCAL/MOL
REMARK 927      BINDING AFFINITY PREDICTED BY RF-SCORE:    0.00 PKD
ROOT
HETATM    1  C   UNL     1      -9.846  10.619  64.417  1.00  0.00    -0.334 C  
HETATM    2  O   UNL     1      -8.917   9.664  64.917  1.00  0.00    -0.190 OA 
ENDROOT
BRANCH   2   3
HETATM    3  C   UNL     1      -8.294   9.977  66.099  1.00  0.00    -0.120 A  
HETATM    4  C   UNL     1      -7.796   8.881  66.811  1.00  0.00    -0.097 A  
HETATM    5  O   UNL     1      -7.963   7.611  66.331  1.00  0.00    -0.101 OA 
HETATM    6  C   UNL     1      -7.135   9.040  68.022  1.00  0.00    -0.079 A  
HETATM    7  C   UNL     1      -6.999  10.320  68.558  1.00  0.00    -0.066 A  
HETATM    8  H   UNL     1      -7.624   6.866  66.814  1.00  0.00     0.000 HD 
HETATM    9  C   UNL     1      -7.530  11.434  67.889  1.00  0.00    -0.095 A  
HETATM   10  C   UNL     1      -8.148  11.255  66.638  1.00  0.00    -0.160 A  
BRANCH   9  11
HETATM   11  C   UNL     1      -7.468  12.799  68.526  1.00  0.00    -0.120 C  
BRANCH  11  12
HETATM   12  N   UNL     1      -8.253  13.770  67.805  1.00  0.00    -0.159 N  
HETATM   13  C   UNL     1      -8.445  15.028  68.326  1.00  0.00    -0.147 C  
HETATM   14  H   UNL     1      -8.667  13.524  66.906  1.00  0.00     0.000 HD 
HETATM   15  O   UNL     1      -7.973  15.393  69.397  1.00  0.00    -0.216 OA 
BRANCH  13  16
HETATM   16  C   UNL     1      -9.312  15.924  67.464  1.00  0.00    -0.217 C  
BRANCH  16  17
HETATM   17  C   UNL     1     -10.532  16.455  68.218  1.00  0.00    -0.302 C  
BRANCH  17  18
HETATM   18  C   UNL     1     -11.561  15.354  68.497  1.00  0.00    -0.373 C  
BRANCH  18  19
HETATM   19  C   UNL     1     -11.751  14.445  67.284  1.00  0.00    -0.429 C  
BRANCH  19  20
HETATM   20  C   UNL     1     -12.003  13.026  67.709  1.00  0.00    -0.344 C  
HETATM   21  C   UNL     1     -11.541  12.494  68.849  1.00  0.00    -0.364 C  
HETATM   22  C   UNL     1     -11.791  11.067  69.273  1.00  0.00    -0.411 C  
HETATM   23  C   UNL     1     -12.596  11.037  70.572  1.00  0.00    -0.390 C  
HETATM   24  C   UNL     1     -10.462  10.332  69.446  1.00  0.00    -0.259 C  
ENDBRANCH  19  20
ENDBRANCH  18  19
ENDBRANCH  17  18
ENDBRANCH  16  17
ENDBRANCH  13  16
ENDBRANCH  11  12
ENDBRANCH   9  11
ENDBRANCH   2   3
TORSDOF 8
ENDMDL
MODEL      278
REMARK 921   NORMALIZED FREE ENERGY PREDICTED BY IDOCK:   -3.57 KCAL/MOL
REMARK 922        TOTAL FREE ENERGY PREDICTED BY IDOCK:   -6.45 KCAL/MOL
REMARK 923 INTER-LIGAND FREE ENERGY PREDICTED BY IDOCK:   -5.54 KCAL/MOL
REMARK 924 INTRA-LIGAND FREE ENERGY PREDICTED BY IDOCK:   -0.91 KCAL/MOL
REMARK 927      BINDING AFFINITY PREDICTED BY RF-SCORE:    0.00 PKD
ROOT
HETATM    1  C   UNL     1      -9.974  10.508  65.044  1.00  0.00    -0.322 C  
HETATM    2  O   UNL     1      -9.609  10.005  66.324  1.00  0.00    -0.179 OA 
ENDROOT
BRANCH   2   3
HETATM    3  C   UNL     1      -8.869  10.841  67.122  1.00  0.00    -0.134 A  
HETATM    4  C   UNL     1      -8.347  10.247  68.276  1.00  0.00    -0.116 A  
HETATM    5  O   UNL     1      -8.604   8.932  68.553  1.00  0.00    -0.131 OA 
HETATM    6  C   UNL     1      -7.574  10.966  69.177  1.00  0.00    -0.133 A  
HETATM    7  C   UNL     1      -7.342  12.321  68.945  1.00  0.00    -0.041 A  
HETATM    8  H   UNL     1      -8.250   8.529  69.336  1.00  0.00     0.000 HD 
HETATM    9  C   UNL     1      -7.892  12.955  67.819  1.00  0.00    -0.158 A  
HETATM   10  C   UNL     1      -8.628  12.196  66.892  1.00  0.00    -0.191 A  
BRANCH   9  11
HETATM   11  C   UNL     1      -7.722  14.441  67.631  1.00  0.00    -0.184 C  
BRANCH  11  12
HETATM   12  N   UNL     1      -8.829  15.187  68.176  1.00  0.00    -0.166 N  
HETATM   13  C   UNL     1      -9.681  15.869  67.340  1.00  0.00    -0.227 C  
HETATM   14  H   UNL     1      -8.981  15.209  69.184  1.00  0.00     0.000 HD 
HETATM   15  O   UNL     1      -9.561  15.881  66.119  1.00  0.00    -0.281 OA 
BRANCH  13  16
HETATM   16  C   UNL     1     -10.778  16.624  68.063  1.00  0.00    -0.350 C  
BRANCH  16  17
HETATM   17  C   UNL     1     -10.358  18.046  68.436  1.00  0.00    -0.377 C  
BRANCH  17  18
HETATM   18  C   UNL     1     -10.541  19.025  67.270  1.00  0.00    -0.554 C  
BRANCH  18  19
HETATM   19  C   UNL     1      -9.685  20.278  67.453  1.00  0.00    -0.584 C  
BRANCH  19  20
HETATM   20  C   UNL     1      -8.234  19.979  67.204  1.00  0.00    -0.365 C  
HETATM   21  C   UNL     1      -7.797  19.118  66.274  1.00  0.00    -0.307 C  
HETATM   22  C   UNL     1      -6.339  18.815  66.028  1.00  0.00    -0.245 C  
HETATM   23  C   UNL     1      -5.946  19.237  64.613  1.00  0.00    -0.310 C  
HETATM   24  C   UNL     1      -6.071  17.325  66.241  1.00  0.00    -0.188 C  
ENDBRANCH  19  20
ENDBRANCH  18  19
ENDBRANCH  17  18
ENDBRANCH  16  17
ENDBRANCH  13  16
ENDBRANCH  11  12
ENDBRANCH   9  11
ENDBRANCH   2   3
TORSDOF 8
ENDMDL
MODEL      279
REMARK 921   NORMALIZED FREE ENERGY PREDICTED BY IDOCK:   -3.57 KCAL/MOL
REMARK 922        TOTAL FREE ENERGY PREDICTED BY IDOCK:   -6.44 KCAL/MOL
REMARK 923 INTER-LIGAND FREE ENERGY PREDICTED BY IDOCK:   -5.72 KCAL/MOL
REMARK 924 INTRA-LIGAND FREE ENERGY PREDICTED BY IDOCK:   -0.72 KCAL/MOL
REMARK 927      BINDING AFFINITY PREDICTED BY RF-SCORE:    0.00 PKD
ROOT
HETATM    1  C   UNL     1      -8.387   4.537  63.311  1.00  0.00    -0.104 C  
HETATM    2  O   UNL     1      -8.748   3.506  64.222  1.00  0.00    -0.093 OA 
ENDROOT
BRANCH   2   3
HETATM    3  C   UNL     1      -9.084   3.902  65.492  1.00  0.00    -0.143 A  
HETATM    4  C   UNL     1      -8.671   3.036  66.510  1.00  0.00    -0.133 A  
HETATM    5  O   UNL     1      -8.004   1.881  66.205  1.00  0.00    -0.074 OA 
HETATM    6  C   UNL     1      -8.934   3.306  67.846  1.00  0.00    -0.186 A  
HETATM    7  C   UNL     1      -9.659   4.450  68.179  1.00  0.00    -0.200 A  
HETATM    8  H   UNL     1      -7.723   1.293  66.896  1.00  0.00     0.000 HD 
HETATM    9  C   UNL     1     -10.127   5.314  67.175  1.00  0.00    -0.239 A  
HETATM   10  C   UNL     1      -9.804   5.049  65.832  1.00  0.00    -0.183 A  
BRANCH   9  11
HETATM   11  C   UNL     1     -10.996   6.490  67.537  1.00  0.00    -0.359 C  
BRANCH  11  12
HETATM   12  N   UNL     1     -10.684   7.658  66.751  1.00  0.00    -0.472 N  
HETATM   13  C   UNL     1      -9.823   8.611  67.239  1.00  0.00    -0.197 C  
HETATM   14  H   UNL     1     -11.104   7.777  65.828  1.00  0.00     0.000 HD 
HETATM   15  O   UNL     1      -9.280   8.530  68.336  1.00  0.00    -0.136 OA 
BRANCH  13  16
HETATM   16  C   UNL     1      -9.617   9.788  66.307  1.00  0.00    -0.271 C  
BRANCH  16  17
HETATM   17  C   UNL     1     -10.487  10.988  66.683  1.00  0.00    -0.307 C  
BRANCH  17  18
HETATM   18  C   UNL     1     -10.083  11.594  68.032  1.00  0.00    -0.198 C  
BRANCH  18  19
HETATM   19  C   UNL     1     -11.308  11.952  68.873  1.00  0.00    -0.335 C  
BRANCH  19  20
HETATM   20  C   UNL     1     -11.927  10.721  69.472  1.00  0.00    -0.364 C  
HETATM   21  C   UNL     1     -11.820  10.383  70.765  1.00  0.00    -0.466 C  
HETATM   22  C   UNL     1     -12.439   9.144  71.363  1.00  0.00    -0.396 C  
HETATM   23  C   UNL     1     -13.474   9.530  72.419  1.00  0.00    -0.475 C  
HETATM   24  C   UNL     1     -11.352   8.258  71.973  1.00  0.00    -0.390 C  
ENDBRANCH  19  20
ENDBRANCH  18  19
ENDBRANCH  17  18
ENDBRANCH  16  17
ENDBRANCH  13  16
ENDBRANCH  11  12
ENDBRANCH   9  11
ENDBRANCH   2   3
TORSDOF 8
ENDMDL
MODEL      280
REMARK 921   NORMALIZED FREE ENERGY PREDICTED BY IDOCK:   -3.55 KCAL/MOL
REMARK 922        TOTAL FREE ENERGY PREDICTED BY IDOCK:   -6.41 KCAL/MOL
REMARK 923 INTER-LIGAND FREE ENERGY PREDICTED BY IDOCK:   -5.10 KCAL/MOL
REMARK 924 INTRA-LIGAND FREE ENERGY PREDICTED BY IDOCK:   -1.32 KCAL/MOL
REMARK 927      BINDING AFFINITY PREDICTED BY RF-SCORE:    0.00 PKD
ROOT
HETATM    1  C   UNL     1     -11.437  15.474  71.765  1.00  0.00    -0.426 C  
HETATM    2  O   UNL     1     -12.258  15.722  70.630  1.00  0.00    -0.392 OA 
ENDROOT
BRANCH   2   3
HETATM    3  C   UNL     1     -11.914  15.070  69.472  1.00  0.00    -0.313 A  
HETATM    4  C   UNL     1     -11.410  15.893  68.459  1.00  0.00    -0.374 A  
HETATM    5  O   UNL     1     -11.307  17.243  68.652  1.00  0.00    -0.109 OA 
HETATM    6  C   UNL     1     -11.015  15.377  67.232  1.00  0.00    -0.317 A  
HETATM    7  C   UNL     1     -11.159  14.010  66.991  1.00  0.00    -0.312 A  
HETATM    8  H   UNL     1     -10.965  17.802  67.965  1.00  0.00     0.000 HD 
HETATM    9  C   UNL     1     -11.706  13.168  67.972  1.00  0.00    -0.394 A  
HETATM   10  C   UNL     1     -12.050  13.703  69.227  1.00  0.00    -0.360 A  
BRANCH   9  11
HETATM   11  C   UNL     1     -11.954  11.713  67.666  1.00  0.00    -0.012 C  
BRANCH  11  12
HETATM   12  N   UNL     1     -10.906  11.143  66.855  1.00  0.00    -0.275 N  
HETATM   13  C   UNL     1      -9.781  10.620  67.446  1.00  0.00    -0.167 C  
HETATM   14  H   UNL     1     -11.000  11.128  65.839  1.00  0.00     0.000 HD 
HETATM   15  O   UNL     1      -9.604  10.601  68.660  1.00  0.00    -0.164 OA 
BRANCH  13  16
HETATM   16  C   UNL     1      -8.762  10.083  66.461  1.00  0.00    -0.142 C  
BRANCH  16  17
HETATM   17  C   UNL     1      -7.354  10.026  67.052  1.00  0.00    -0.091 C  
BRANCH  17  18
HETATM   18  C   UNL     1      -6.384  10.963  66.323  1.00  0.00    -0.132 C  
BRANCH  18  19
HETATM   19  C   UNL     1      -5.861  12.058  67.252  1.00  0.00    -0.142 C  
BRANCH  19  20
HETATM   20  C   UNL     1      -6.889  13.136  67.444  1.00  0.00    -0.113 C  
HETATM   21  C   UNL     1      -6.593  14.435  67.596  1.00  0.00    -0.172 C  
HETATM   22  C   UNL     1      -7.627  15.516  67.794  1.00  0.00    -0.162 C  
HETATM   23  C   UNL     1      -7.580  16.507  66.632  1.00  0.00    -0.310 C  
HETATM   24  C   UNL     1      -7.390  16.231  69.123  1.00  0.00    -0.218 C  
ENDBRANCH  19  20
ENDBRANCH  18  19
ENDBRANCH  17  18
ENDBRANCH  16  17
ENDBRANCH  13  16
ENDBRANCH  11  12
ENDBRANCH   9  11
ENDBRANCH   2   3
TORSDOF 8
ENDMDL
MODEL      281
REMARK 921   NORMALIZED FREE ENERGY PREDICTED BY IDOCK:   -3.54 KCAL/MOL
REMARK 922        TOTAL FREE ENERGY PREDICTED BY IDOCK:   -6.41 KCAL/MOL
REMARK 923 INTER-LIGAND FREE ENERGY PREDICTED BY IDOCK:   -5.79 KCAL/MOL
REMARK 924 INTRA-LIGAND FREE ENERGY PREDICTED BY IDOCK:   -0.62 KCAL/MOL
REMARK 927      BINDING AFFINITY PREDICTED BY RF-SCORE:    0.00 PKD
ROOT
HETATM    1  C   UNL     1     -10.934   6.403  68.088  1.00  0.00    -0.307 C  
HETATM    2  O   UNL     1      -9.556   6.145  67.845  1.00  0.00    -0.118 OA 
ENDROOT
BRANCH   2   3
HETATM    3  C   UNL     1      -9.015   6.719  66.723  1.00  0.00    -0.134 A  
HETATM    4  C   UNL     1      -8.200   5.874  65.962  1.00  0.00    -0.123 A  
HETATM    5  O   UNL     1      -7.975   4.586  66.364  1.00  0.00    -0.101 OA 
HETATM    6  C   UNL     1      -7.587   6.311  64.796  1.00  0.00    -0.093 A  
HETATM    7  C   UNL     1      -7.757   7.636  64.394  1.00  0.00    -0.127 A  
HETATM    8  H   UNL     1      -7.422   4.011  65.847  1.00  0.00     0.000 HD 
HETATM    9  C   UNL     1      -8.531   8.520  65.162  1.00  0.00    -0.193 A  
HETATM   10  C   UNL     1      -9.187   8.041  66.311  1.00  0.00    -0.237 A  
BRANCH   9  11
HETATM   11  C   UNL     1      -8.625   9.973  64.775  1.00  0.00    -0.177 C  
BRANCH  11  12
HETATM   12  N   UNL     1      -9.370  10.745  65.739  1.00  0.00    -0.194 N  
HETATM   13  C   UNL     1      -8.717  11.598  66.596  1.00  0.00    -0.187 C  
HETATM   14  H   UNL     1     -10.386  10.657  65.785  1.00  0.00     0.000 HD 
HETATM   15  O   UNL     1      -7.501  11.757  66.592  1.00  0.00    -0.095 OA 
BRANCH  13  16
HETATM   16  C   UNL     1      -9.634  12.318  67.564  1.00  0.00    -0.184 C  
BRANCH  16  17
HETATM   17  C   UNL     1     -10.803  13.005  66.858  1.00  0.00    -0.282 C  
BRANCH  17  18
HETATM   18  C   UNL     1     -11.680  13.800  67.833  1.00  0.00    -0.395 C  
BRANCH  18  19
HETATM   19  C   UNL     1     -11.088  15.179  68.120  1.00  0.00    -0.306 C  
BRANCH  19  20
HETATM   20  C   UNL     1     -11.770  15.823  69.294  1.00  0.00    -0.384 C  
HETATM   21  C   UNL     1     -12.145  15.159  70.397  1.00  0.00    -0.373 C  
HETATM   22  C   UNL     1     -12.834  15.806  71.573  1.00  0.00    -0.512 C  
HETATM   23  C   UNL     1     -11.961  15.693  72.822  1.00  0.00    -0.590 C  
HETATM   24  C   UNL     1     -14.196  15.151  71.807  1.00  0.00    -0.674 C  
ENDBRANCH  19  20
ENDBRANCH  18  19
ENDBRANCH  17  18
ENDBRANCH  16  17
ENDBRANCH  13  16
ENDBRANCH  11  12
ENDBRANCH   9  11
ENDBRANCH   2   3
TORSDOF 8
ENDMDL
MODEL      282
REMARK 921   NORMALIZED FREE ENERGY PREDICTED BY IDOCK:   -3.53 KCAL/MOL
REMARK 922        TOTAL FREE ENERGY PREDICTED BY IDOCK:   -6.39 KCAL/MOL
REMARK 923 INTER-LIGAND FREE ENERGY PREDICTED BY IDOCK:   -5.74 KCAL/MOL
REMARK 924 INTRA-LIGAND FREE ENERGY PREDICTED BY IDOCK:   -0.65 KCAL/MOL
REMARK 927      BINDING AFFINITY PREDICTED BY RF-SCORE:    0.00 PKD
ROOT
HETATM    1  C   UNL     1      -7.762   3.368  70.686  1.00  0.00    -0.040 C  
HETATM    2  O   UNL     1      -8.977   3.145  71.392  1.00  0.00    -0.084 OA 
ENDROOT
BRANCH   2   3
HETATM    3  C   UNL     1      -9.662   4.261  71.801  1.00  0.00    -0.169 A  
HETATM    4  C   UNL     1      -9.653   4.487  73.181  1.00  0.00    -0.130 A  
HETATM    5  O   UNL     1      -9.013   3.616  74.019  1.00  0.00    -0.088 OA 
HETATM    6  C   UNL     1     -10.299   5.580  73.743  1.00  0.00    -0.271 A  
HETATM    7  C   UNL     1     -11.004   6.453  72.915  1.00  0.00    -0.281 A  
HETATM    8  H   UNL     1      -9.007   3.769  74.957  1.00  0.00     0.000 HD 
HETATM    9  C   UNL     1     -11.069   6.226  71.531  1.00  0.00    -0.333 A  
HETATM   10  C   UNL     1     -10.364   5.142  70.976  1.00  0.00    -0.278 A  
BRANCH   9  11
HETATM   11  C   UNL     1     -11.918   7.115  70.658  1.00  0.00    -0.269 C  
BRANCH  11  12
HETATM   12  N   UNL     1     -11.150   8.176  70.055  1.00  0.00    -0.392 N  
HETATM   13  C   UNL     1     -11.378   9.484  70.412  1.00  0.00    -0.264 C  
HETATM   14  H   UNL     1     -10.434   7.956  69.362  1.00  0.00     0.000 HD 
HETATM   15  O   UNL     1     -12.217   9.820  71.241  1.00  0.00    -0.321 OA 
BRANCH  13  16
HETATM   16  C   UNL     1     -10.509  10.482  69.673  1.00  0.00    -0.257 C  
BRANCH  16  17
HETATM   17  C   UNL     1     -11.016  10.760  68.258  1.00  0.00    -0.307 C  
BRANCH  17  18
HETATM   18  C   UNL     1     -11.781  12.085  68.168  1.00  0.00    -0.398 C  
BRANCH  18  19
HETATM   19  C   UNL     1     -12.018  12.497  66.715  1.00  0.00    -0.327 C  
BRANCH  19  20
HETATM   20  C   UNL     1     -11.479  13.875  66.453  1.00  0.00    -0.354 C  
HETATM   21  C   UNL     1     -10.700  14.550  67.310  1.00  0.00    -0.287 C  
HETATM   22  C   UNL     1     -10.164  15.935  67.048  1.00  0.00    -0.283 C  
HETATM   23  C   UNL     1      -8.637  15.908  66.993  1.00  0.00    -0.245 C  
HETATM   24  C   UNL     1     -10.647  16.898  68.132  1.00  0.00    -0.360 C  
ENDBRANCH  19  20
ENDBRANCH  18  19
ENDBRANCH  17  18
ENDBRANCH  16  17
ENDBRANCH  13  16
ENDBRANCH  11  12
ENDBRANCH   9  11
ENDBRANCH   2   3
TORSDOF 8
ENDMDL
MODEL      283
REMARK 921   NORMALIZED FREE ENERGY PREDICTED BY IDOCK:   -3.53 KCAL/MOL
REMARK 922        TOTAL FREE ENERGY PREDICTED BY IDOCK:   -6.39 KCAL/MOL
REMARK 923 INTER-LIGAND FREE ENERGY PREDICTED BY IDOCK:   -5.33 KCAL/MOL
REMARK 924 INTRA-LIGAND FREE ENERGY PREDICTED BY IDOCK:   -1.06 KCAL/MOL
REMARK 927      BINDING AFFINITY PREDICTED BY RF-SCORE:    0.00 PKD
ROOT
HETATM    1  C   UNL     1     -12.211  12.423  63.774  1.00  0.00    -0.533 C  
HETATM    2  O   UNL     1     -11.112  12.805  64.592  1.00  0.00    -0.294 OA 
ENDROOT
BRANCH   2   3
HETATM    3  C   UNL     1     -11.373  12.976  65.928  1.00  0.00    -0.313 A  
HETATM    4  C   UNL     1     -11.312  14.299  66.378  1.00  0.00    -0.343 A  
HETATM    5  O   UNL     1     -10.990  15.308  65.513  1.00  0.00    -0.336 OA 
HETATM    6  C   UNL     1     -11.558  14.628  67.704  1.00  0.00    -0.383 A  
HETATM    7  C   UNL     1     -11.836  13.610  68.617  1.00  0.00    -0.409 A  
HETATM    8  H   UNL     1     -10.949  16.207  65.818  1.00  0.00     0.000 HD 
HETATM    9  C   UNL     1     -11.857  12.269  68.203  1.00  0.00    -0.372 A  
HETATM   10  C   UNL     1     -11.658  11.963  66.845  1.00  0.00    -0.358 A  
BRANCH   9  11
HETATM   11  C   UNL     1     -12.056  11.170  69.215  1.00  0.00    -0.308 C  
BRANCH  11  12
HETATM   12  N   UNL     1     -10.808  10.717  69.778  1.00  0.00    -0.374 N  
HETATM   13  C   UNL     1     -10.204   9.581  69.296  1.00  0.00    -0.203 C  
HETATM   14  H   UNL     1     -10.371  11.243  70.536  1.00  0.00     0.000 HD 
HETATM   15  O   UNL     1     -10.670   8.904  68.385  1.00  0.00    -0.176 OA 
BRANCH  13  16
HETATM   16  C   UNL     1      -8.914   9.222  70.006  1.00  0.00    -0.216 C  
BRANCH  16  17
HETATM   17  C   UNL     1      -7.845  10.306  69.854  1.00  0.00    -0.119 C  
BRANCH  17  18
HETATM   18  C   UNL     1      -6.825   9.960  68.764  1.00  0.00    -0.054 C  
BRANCH  18  19
HETATM   19  C   UNL     1      -6.338   8.517  68.890  1.00  0.00    -0.045 C  
BRANCH  19  20
HETATM   20  C   UNL     1      -6.392   7.814  67.563  1.00  0.00    -0.055 C  
HETATM   21  C   UNL     1      -7.527   7.563  66.895  1.00  0.00    -0.098 C  
HETATM   22  C   UNL     1      -7.580   6.853  65.565  1.00  0.00    -0.091 C  
HETATM   23  C   UNL     1      -8.145   7.784  64.493  1.00  0.00    -0.108 C  
HETATM   24  C   UNL     1      -8.429   5.587  65.681  1.00  0.00    -0.141 C  
ENDBRANCH  19  20
ENDBRANCH  18  19
ENDBRANCH  17  18
ENDBRANCH  16  17
ENDBRANCH  13  16
ENDBRANCH  11  12
ENDBRANCH   9  11
ENDBRANCH   2   3
TORSDOF 8
ENDMDL
MODEL      284
REMARK 921   NORMALIZED FREE ENERGY PREDICTED BY IDOCK:   -3.50 KCAL/MOL
REMARK 922        TOTAL FREE ENERGY PREDICTED BY IDOCK:   -6.34 KCAL/MOL
REMARK 923 INTER-LIGAND FREE ENERGY PREDICTED BY IDOCK:   -5.53 KCAL/MOL
REMARK 924 INTRA-LIGAND FREE ENERGY PREDICTED BY IDOCK:   -0.81 KCAL/MOL
REMARK 927      BINDING AFFINITY PREDICTED BY RF-SCORE:    0.00 PKD
ROOT
HETATM    1  C   UNL     1      -8.497   4.464  64.049  1.00  0.00    -0.116 C  
HETATM    2  O   UNL     1      -9.405   4.050  65.063  1.00  0.00    -0.142 OA 
ENDROOT
BRANCH   2   3
HETATM    3  C   UNL     1      -9.513   4.867  66.160  1.00  0.00    -0.161 A  
HETATM    4  C   UNL     1      -9.587   4.200  67.388  1.00  0.00    -0.180 A  
HETATM    5  O   UNL     1      -9.571   2.833  67.434  1.00  0.00    -0.385 OA 
HETATM    6  C   UNL     1      -9.693   4.893  68.586  1.00  0.00    -0.225 A  
HETATM    7  C   UNL     1      -9.765   6.286  68.562  1.00  0.00    -0.137 A  
HETATM    8  H   UNL     1      -9.621   2.380  68.267  1.00  0.00     0.000 HD 
HETATM    9  C   UNL     1      -9.740   6.980  67.342  1.00  0.00    -0.177 A  
HETATM   10  C   UNL     1      -9.579   6.261  66.143  1.00  0.00    -0.059 A  
BRANCH   9  11
HETATM   11  C   UNL     1      -9.922   8.476  67.320  1.00  0.00    -0.225 C  
BRANCH  11  12
HETATM   12  N   UNL     1      -9.742   9.025  65.998  1.00  0.00    -0.334 N  
HETATM   13  C   UNL     1      -8.901  10.094  65.802  1.00  0.00    -0.158 C  
HETATM   14  H   UNL     1     -10.241   8.619  65.207  1.00  0.00     0.000 HD 
HETATM   15  O   UNL     1      -8.266  10.627  66.706  1.00  0.00    -0.123 OA 
BRANCH  13  16
HETATM   16  C   UNL     1      -8.839  10.571  64.365  1.00  0.00    -0.210 C  
BRANCH  16  17
HETATM   17  C   UNL     1     -10.202  11.023  63.842  1.00  0.00    -0.425 C  
BRANCH  17  18
HETATM   18  C   UNL     1     -10.665  12.331  64.494  1.00  0.00    -0.358 C  
BRANCH  18  19
HETATM   19  C   UNL     1     -12.140  12.268  64.888  1.00  0.00    -0.422 C  
BRANCH  19  20
HETATM   20  C   UNL     1     -12.398  13.069  66.133  1.00  0.00    -0.335 C  
HETATM   21  C   UNL     1     -11.622  13.026  67.224  1.00  0.00    -0.409 C  
HETATM   22  C   UNL     1     -11.885  13.828  68.476  1.00  0.00    -0.406 C  
HETATM   23  C   UNL     1     -10.736  14.804  68.726  1.00  0.00    -0.253 C  
HETATM   24  C   UNL     1     -12.065  12.890  69.669  1.00  0.00    -0.290 C  
ENDBRANCH  19  20
ENDBRANCH  18  19
ENDBRANCH  17  18
ENDBRANCH  16  17
ENDBRANCH  13  16
ENDBRANCH  11  12
ENDBRANCH   9  11
ENDBRANCH   2   3
TORSDOF 8
ENDMDL
MODEL      285
REMARK 921   NORMALIZED FREE ENERGY PREDICTED BY IDOCK:   -3.49 KCAL/MOL
REMARK 922        TOTAL FREE ENERGY PREDICTED BY IDOCK:   -6.34 KCAL/MOL
REMARK 923 INTER-LIGAND FREE ENERGY PREDICTED BY IDOCK:   -4.98 KCAL/MOL
REMARK 924 INTRA-LIGAND FREE ENERGY PREDICTED BY IDOCK:   -1.36 KCAL/MOL
REMARK 927      BINDING AFFINITY PREDICTED BY RF-SCORE:    0.00 PKD
ROOT
HETATM    1  C   UNL     1     -12.062  13.277  66.462  1.00  0.00    -0.375 C  
HETATM    2  O   UNL     1     -12.078  11.857  66.537  1.00  0.00    -0.568 OA 
ENDROOT
BRANCH   2   3
HETATM    3  C   UNL     1     -11.042  11.268  67.218  1.00  0.00    -0.305 A  
HETATM    4  C   UNL     1     -11.370  10.784  68.489  1.00  0.00    -0.295 A  
HETATM    5  O   UNL     1     -12.639  10.932  68.978  1.00  0.00    -0.683 OA 
HETATM    6  C   UNL     1     -10.428  10.159  69.294  1.00  0.00    -0.246 A  
HETATM    7  C   UNL     1      -9.114  10.043  68.840  1.00  0.00    -0.159 A  
HETATM    8  H   UNL     1     -12.862  10.604  69.841  1.00  0.00     0.000 HD 
HETATM    9  C   UNL     1      -8.745  10.561  67.588  1.00  0.00    -0.121 A  
HETATM   10  C   UNL     1      -9.728  11.143  66.766  1.00  0.00    -0.220 A  
BRANCH   9  11
HETATM   11  C   UNL     1      -7.304  10.523  67.150  1.00  0.00    -0.093 C  
BRANCH  11  12
HETATM   12  N   UNL     1      -6.631   9.329  67.600  1.00  0.00    -0.063 N  
HETATM   13  C   UNL     1      -6.603   8.210  66.803  1.00  0.00    -0.057 C  
HETATM   14  H   UNL     1      -6.174   9.316  68.512  1.00  0.00     0.000 HD 
HETATM   15  O   UNL     1      -7.126   8.158  65.695  1.00  0.00    -0.065 OA 
BRANCH  13  16
HETATM   16  C   UNL     1      -5.881   7.031  67.425  1.00  0.00    -0.024 C  
BRANCH  16  17
HETATM   17  C   UNL     1      -6.422   6.682  68.811  1.00  0.00    -0.046 C  
BRANCH  17  18
HETATM   18  C   UNL     1      -7.953   6.615  68.833  1.00  0.00    -0.112 C  
BRANCH  18  19
HETATM   19  C   UNL     1      -8.446   5.262  69.347  1.00  0.00    -0.094 C  
BRANCH  19  20
HETATM   20  C   UNL     1      -9.533   5.440  70.368  1.00  0.00    -0.215 C  
HETATM   21  C   UNL     1     -10.114   6.616  70.647  1.00  0.00    -0.205 C  
HETATM   22  C   UNL     1     -11.203   6.793  71.676  1.00  0.00    -0.293 C  
HETATM   23  C   UNL     1     -12.489   7.273  71.005  1.00  0.00    -0.323 C  
HETATM   24  C   UNL     1     -10.752   7.785  72.749  1.00  0.00    -0.417 C  
ENDBRANCH  19  20
ENDBRANCH  18  19
ENDBRANCH  17  18
ENDBRANCH  16  17
ENDBRANCH  13  16
ENDBRANCH  11  12
ENDBRANCH   9  11
ENDBRANCH   2   3
TORSDOF 8
ENDMDL
MODEL      286
REMARK 921   NORMALIZED FREE ENERGY PREDICTED BY IDOCK:   -3.48 KCAL/MOL
REMARK 922        TOTAL FREE ENERGY PREDICTED BY IDOCK:   -6.31 KCAL/MOL
REMARK 923 INTER-LIGAND FREE ENERGY PREDICTED BY IDOCK:   -5.47 KCAL/MOL
REMARK 924 INTRA-LIGAND FREE ENERGY PREDICTED BY IDOCK:   -0.84 KCAL/MOL
REMARK 927      BINDING AFFINITY PREDICTED BY RF-SCORE:    0.00 PKD
ROOT
HETATM    1  C   UNL     1      -8.646   4.111  70.503  1.00  0.00    -0.077 C  
HETATM    2  O   UNL     1      -9.481   4.085  69.352  1.00  0.00    -0.162 OA 
ENDROOT
BRANCH   2   3
HETATM    3  C   UNL     1      -9.854   5.301  68.838  1.00  0.00    -0.164 A  
HETATM    4  C   UNL     1     -10.168   5.295  67.475  1.00  0.00    -0.178 A  
HETATM    5  O   UNL     1     -10.073   4.140  66.750  1.00  0.00    -0.305 OA 
HETATM    6  C   UNL     1     -10.567   6.450  66.816  1.00  0.00    -0.328 A  
HETATM    7  C   UNL     1     -10.621   7.652  67.522  1.00  0.00    -0.323 A  
HETATM    8  H   UNL     1     -10.287   4.135  65.824  1.00  0.00     0.000 HD 
HETATM    9  C   UNL     1     -10.266   7.697  68.880  1.00  0.00    -0.217 A  
HETATM   10  C   UNL     1      -9.916   6.506  69.540  1.00  0.00    -0.180 A  
BRANCH   9  11
HETATM   11  C   UNL     1     -10.228   9.017  69.606  1.00  0.00    -0.206 C  
BRANCH  11  12
HETATM   12  N   UNL     1     -10.183  10.136  68.698  1.00  0.00    -0.168 N  
HETATM   13  C   UNL     1      -8.986  10.749  68.414  1.00  0.00    -0.153 C  
HETATM   14  H   UNL     1     -11.043  10.474  68.264  1.00  0.00     0.000 HD 
HETATM   15  O   UNL     1      -7.916  10.393  68.895  1.00  0.00    -0.104 OA 
BRANCH  13  16
HETATM   16  C   UNL     1      -9.108  11.924  67.464  1.00  0.00    -0.178 C  
BRANCH  16  17
HETATM   17  C   UNL     1      -9.775  11.537  66.143  1.00  0.00    -0.249 C  
BRANCH  17  18
HETATM   18  C   UNL     1     -11.163  12.170  65.991  1.00  0.00    -0.382 C  
BRANCH  18  19
HETATM   19  C   UNL     1     -11.171  13.622  66.468  1.00  0.00    -0.321 C  
BRANCH  19  20
HETATM   20  C   UNL     1     -12.077  13.792  67.654  1.00  0.00    -0.333 C  
HETATM   21  C   UNL     1     -11.648  13.839  68.923  1.00  0.00    -0.358 C  
HETATM   22  C   UNL     1     -12.560  14.006  70.114  1.00  0.00    -0.310 C  
HETATM   23  C   UNL     1     -12.241  15.310  70.843  1.00  0.00    -0.409 C  
HETATM   24  C   UNL     1     -12.413  12.811  71.057  1.00  0.00    -0.369 C  
ENDBRANCH  19  20
ENDBRANCH  18  19
ENDBRANCH  17  18
ENDBRANCH  16  17
ENDBRANCH  13  16
ENDBRANCH  11  12
ENDBRANCH   9  11
ENDBRANCH   2   3
TORSDOF 8
ENDMDL
MODEL      287
REMARK 921   NORMALIZED FREE ENERGY PREDICTED BY IDOCK:   -3.47 KCAL/MOL
REMARK 922        TOTAL FREE ENERGY PREDICTED BY IDOCK:   -6.31 KCAL/MOL
REMARK 923 INTER-LIGAND FREE ENERGY PREDICTED BY IDOCK:   -5.53 KCAL/MOL
REMARK 924 INTRA-LIGAND FREE ENERGY PREDICTED BY IDOCK:   -0.78 KCAL/MOL
REMARK 927      BINDING AFFINITY PREDICTED BY RF-SCORE:    0.00 PKD
ROOT
HETATM    1  C   UNL     1     -12.097  15.390  69.550  1.00  0.00    -0.305 C  
HETATM    2  O   UNL     1     -11.768  16.248  68.464  1.00  0.00    -0.302 OA 
ENDROOT
BRANCH   2   3
HETATM    3  C   UNL     1     -10.509  16.109  67.934  1.00  0.00    -0.290 A  
HETATM    4  C   UNL     1     -10.042  17.221  67.225  1.00  0.00    -0.300 A  
HETATM    5  O   UNL     1     -10.829  18.330  67.082  1.00  0.00    -0.351 OA 
HETATM    6  C   UNL     1      -8.784  17.231  66.637  1.00  0.00    -0.285 A  
HETATM    7  C   UNL     1      -7.983  16.092  66.724  1.00  0.00    -0.307 A  
HETATM    8  H   UNL     1     -10.511  19.085  66.601  1.00  0.00     0.000 HD 
HETATM    9  C   UNL     1      -8.446  14.945  67.388  1.00  0.00    -0.212 A  
HETATM   10  C   UNL     1      -9.701  14.975  68.023  1.00  0.00    -0.213 A  
BRANCH   9  11
HETATM   11  C   UNL     1      -7.617  13.687  67.388  1.00  0.00    -0.130 C  
BRANCH  11  12
HETATM   12  N   UNL     1      -8.292  12.592  68.040  1.00  0.00    -0.162 N  
HETATM   13  C   UNL     1      -8.522  11.419  67.362  1.00  0.00    -0.143 C  
HETATM   14  H   UNL     1      -8.598  12.688  69.009  1.00  0.00     0.000 HD 
HETATM   15  O   UNL     1      -8.176  11.233  66.200  1.00  0.00    -0.160 OA 
BRANCH  13  16
HETATM   16  C   UNL     1      -9.262  10.375  68.174  1.00  0.00    -0.145 C  
BRANCH  16  17
HETATM   17  C   UNL     1      -8.510   9.045  68.237  1.00  0.00    -0.129 C  
BRANCH  17  18
HETATM   18  C   UNL     1      -8.409   8.508  69.670  1.00  0.00    -0.121 C  
BRANCH  18  19
HETATM   19  C   UNL     1      -8.952   9.513  70.684  1.00  0.00    -0.226 C  
BRANCH  19  20
HETATM   20  C   UNL     1      -9.956   8.867  71.596  1.00  0.00    -0.397 C  
HETATM   21  C   UNL     1     -10.770   7.868  71.225  1.00  0.00    -0.257 C  
HETATM   22  C   UNL     1     -11.781   7.223  72.141  1.00  0.00    -0.323 C  
HETATM   23  C   UNL     1     -11.442   5.747  72.343  1.00  0.00    -0.343 C  
HETATM   24  C   UNL     1     -13.187   7.379  71.561  1.00  0.00    -0.426 C  
ENDBRANCH  19  20
ENDBRANCH  18  19
ENDBRANCH  17  18
ENDBRANCH  16  17
ENDBRANCH  13  16
ENDBRANCH  11  12
ENDBRANCH   9  11
ENDBRANCH   2   3
TORSDOF 8
ENDMDL
MODEL      288
REMARK 921   NORMALIZED FREE ENERGY PREDICTED BY IDOCK:   -3.46 KCAL/MOL
REMARK 922        TOTAL FREE ENERGY PREDICTED BY IDOCK:   -6.28 KCAL/MOL
REMARK 923 INTER-LIGAND FREE ENERGY PREDICTED BY IDOCK:   -5.54 KCAL/MOL
REMARK 924 INTRA-LIGAND FREE ENERGY PREDICTED BY IDOCK:   -0.75 KCAL/MOL
REMARK 927      BINDING AFFINITY PREDICTED BY RF-SCORE:    0.00 PKD
ROOT
HETATM    1  C   UNL     1     -14.345   7.385  71.492  1.00  0.00    -0.440 C  
HETATM    2  O   UNL     1     -13.256   6.506  71.749  1.00  0.00    -0.190 OA 
ENDROOT
BRANCH   2   3
HETATM    3  C   UNL     1     -12.050   6.845  71.189  1.00  0.00    -0.381 A  
HETATM    4  C   UNL     1     -11.173   7.525  72.041  1.00  0.00    -0.257 A  
HETATM    5  O   UNL     1     -11.548   7.824  73.322  1.00  0.00    -0.644 OA 
HETATM    6  C   UNL     1      -9.914   7.928  71.617  1.00  0.00    -0.227 A  
HETATM    7  C   UNL     1      -9.529   7.681  70.299  1.00  0.00    -0.161 A  
HETATM    8  H   UNL     1     -10.953   8.285  73.901  1.00  0.00     0.000 HD 
HETATM    9  C   UNL     1     -10.407   7.043  69.408  1.00  0.00    -0.218 A  
HETATM   10  C   UNL     1     -11.657   6.596  69.873  1.00  0.00    -0.393 A  
BRANCH   9  11
HETATM   11  C   UNL     1     -10.022   6.873  67.961  1.00  0.00    -0.154 C  
BRANCH  11  12
HETATM   12  N   UNL     1      -9.061   7.861  67.535  1.00  0.00    -0.133 N  
HETATM   13  C   UNL     1      -9.473   8.970  66.836  1.00  0.00    -0.167 C  
HETATM   14  H   UNL     1      -8.072   7.736  67.755  1.00  0.00     0.000 HD 
HETATM   15  O   UNL     1     -10.644   9.186  66.543  1.00  0.00    -0.174 OA 
BRANCH  13  16
HETATM   16  C   UNL     1      -8.344   9.900  66.439  1.00  0.00    -0.125 C  
BRANCH  16  17
HETATM   17  C   UNL     1      -7.746  10.636  67.638  1.00  0.00    -0.097 C  
BRANCH  17  18
HETATM   18  C   UNL     1      -8.729  11.646  68.243  1.00  0.00    -0.163 C  
BRANCH  18  19
HETATM   19  C   UNL     1      -8.721  12.965  67.473  1.00  0.00    -0.190 C  
BRANCH  19  20
HETATM   20  C   UNL     1      -8.906  14.131  68.402  1.00  0.00    -0.187 C  
HETATM   21  C   UNL     1     -10.032  14.854  68.481  1.00  0.00    -0.223 C  
HETATM   22  C   UNL     1     -10.214  16.028  69.412  1.00  0.00    -0.270 C  
HETATM   23  C   UNL     1     -11.328  15.736  70.416  1.00  0.00    -0.389 C  
HETATM   24  C   UNL     1     -10.529  17.289  68.608  1.00  0.00    -0.356 C  
ENDBRANCH  19  20
ENDBRANCH  18  19
ENDBRANCH  17  18
ENDBRANCH  16  17
ENDBRANCH  13  16
ENDBRANCH  11  12
ENDBRANCH   9  11
ENDBRANCH   2   3
TORSDOF 8
ENDMDL
MODEL      289
REMARK 921   NORMALIZED FREE ENERGY PREDICTED BY IDOCK:   -3.46 KCAL/MOL
REMARK 922        TOTAL FREE ENERGY PREDICTED BY IDOCK:   -6.28 KCAL/MOL
REMARK 923 INTER-LIGAND FREE ENERGY PREDICTED BY IDOCK:   -4.35 KCAL/MOL
REMARK 924 INTRA-LIGAND FREE ENERGY PREDICTED BY IDOCK:   -1.93 KCAL/MOL
REMARK 927      BINDING AFFINITY PREDICTED BY RF-SCORE:    0.00 PKD
ROOT
HETATM    1  C   UNL     1     -11.108  12.274  67.554  1.00  0.00    -0.275 C  
HETATM    2  O   UNL     1     -11.324  11.502  66.379  1.00  0.00    -0.313 OA 
ENDROOT
BRANCH   2   3
HETATM    3  C   UNL     1     -10.412  10.509  66.123  1.00  0.00    -0.168 A  
HETATM    4  C   UNL     1      -9.428  10.838  65.185  1.00  0.00    -0.226 A  
HETATM    5  O   UNL     1      -9.432  12.066  64.582  1.00  0.00    -0.439 OA 
HETATM    6  C   UNL     1      -8.434   9.938  64.828  1.00  0.00    -0.179 A  
HETATM    7  C   UNL     1      -8.439   8.661  65.389  1.00  0.00    -0.189 A  
HETATM    8  H   UNL     1      -8.764  12.290  63.946  1.00  0.00     0.000 HD 
HETATM    9  C   UNL     1      -9.442   8.286  66.298  1.00  0.00    -0.271 A  
HETATM   10  C   UNL     1     -10.408   9.232  66.686  1.00  0.00    -0.292 A  
BRANCH   9  11
HETATM   11  C   UNL     1      -9.499   6.873  66.820  1.00  0.00    -0.165 C  
BRANCH  11  12
HETATM   12  N   UNL     1      -9.153   6.797  68.218  1.00  0.00    -0.126 N  
HETATM   13  C   UNL     1     -10.111   6.481  69.151  1.00  0.00    -0.168 C  
HETATM   14  H   UNL     1      -8.194   6.977  68.515  1.00  0.00     0.000 HD 
HETATM   15  O   UNL     1     -11.281   6.247  68.864  1.00  0.00    -0.370 OA 
BRANCH  13  16
HETATM   16  C   UNL     1      -9.598   6.464  70.577  1.00  0.00    -0.179 C  
BRANCH  16  17
HETATM   17  C   UNL     1      -9.108   7.838  71.035  1.00  0.00    -0.152 C  
BRANCH  17  18
HETATM   18  C   UNL     1     -10.187   8.916  70.884  1.00  0.00    -0.304 C  
BRANCH  18  19
HETATM   19  C   UNL     1      -9.682  10.102  70.064  1.00  0.00    -0.144 C  
BRANCH  19  20
HETATM   20  C   UNL     1      -8.199  10.010  69.843  1.00  0.00    -0.175 C  
HETATM   21  C   UNL     1      -7.622   9.998  68.633  1.00  0.00    -0.088 C  
HETATM   22  C   UNL     1      -6.133   9.900  68.413  1.00  0.00    -0.046 C  
HETATM   23  C   UNL     1      -5.620  11.160  67.716  1.00  0.00    -0.043 C  
HETATM   24  C   UNL     1      -5.806   8.656  67.586  1.00  0.00    -0.043 C  
ENDBRANCH  19  20
ENDBRANCH  18  19
ENDBRANCH  17  18
ENDBRANCH  16  17
ENDBRANCH  13  16
ENDBRANCH  11  12
ENDBRANCH   9  11
ENDBRANCH   2   3
TORSDOF 8
ENDMDL
MODEL      290
REMARK 921   NORMALIZED FREE ENERGY PREDICTED BY IDOCK:   -3.44 KCAL/MOL
REMARK 922        TOTAL FREE ENERGY PREDICTED BY IDOCK:   -6.26 KCAL/MOL
REMARK 923 INTER-LIGAND FREE ENERGY PREDICTED BY IDOCK:   -5.57 KCAL/MOL
REMARK 924 INTRA-LIGAND FREE ENERGY PREDICTED BY IDOCK:   -0.69 KCAL/MOL
REMARK 927      BINDING AFFINITY PREDICTED BY RF-SCORE:    0.00 PKD
ROOT
HETATM    1  C   UNL     1      -9.783   5.507  68.393  1.00  0.00    -0.130 C  
HETATM    2  O   UNL     1     -10.224   4.968  69.633  1.00  0.00    -0.241 OA 
ENDROOT
BRANCH   2   3
HETATM    3  C   UNL     1     -10.300   5.842  70.688  1.00  0.00    -0.235 A  
HETATM    4  C   UNL     1      -9.377   5.613  71.713  1.00  0.00    -0.145 A  
HETATM    5  O   UNL     1      -8.499   4.568  71.631  1.00  0.00    -0.103 OA 
HETATM    6  C   UNL     1      -9.329   6.419  72.843  1.00  0.00    -0.140 A  
HETATM    7  C   UNL     1     -10.249   7.459  72.975  1.00  0.00    -0.335 A  
HETATM    8  H   UNL     1      -7.871   4.411  72.327  1.00  0.00     0.000 HD 
HETATM    9  C   UNL     1     -11.218   7.684  71.984  1.00  0.00    -0.317 A  
HETATM   10  C   UNL     1     -11.214   6.889  70.823  1.00  0.00    -0.338 A  
BRANCH   9  11
HETATM   11  C   UNL     1     -12.271   8.743  72.184  1.00  0.00    -0.378 C  
BRANCH  11  12
HETATM   12  N   UNL     1     -12.028   9.910  71.373  1.00  0.00    -0.389 N  
HETATM   13  C   UNL     1     -12.880  10.987  71.438  1.00  0.00    -0.443 C  
HETATM   14  H   UNL     1     -11.221   9.937  70.749  1.00  0.00     0.000 HD 
HETATM   15  O   UNL     1     -13.864  11.025  72.169  1.00  0.00    -0.016 OA 
BRANCH  13  16
HETATM   16  C   UNL     1     -12.504  12.124  70.509  1.00  0.00    -0.282 C  
BRANCH  16  17
HETATM   17  C   UNL     1     -11.411  11.728  69.516  1.00  0.00    -0.317 C  
BRANCH  17  18
HETATM   18  C   UNL     1     -11.486  12.543  68.220  1.00  0.00    -0.355 C  
BRANCH  18  19
HETATM   19  C   UNL     1     -12.012  13.955  68.476  1.00  0.00    -0.394 C  
BRANCH  19  20
HETATM   20  C   UNL     1     -10.920  14.973  68.313  1.00  0.00    -0.274 C  
HETATM   21  C   UNL     1      -9.613  14.689  68.397  1.00  0.00    -0.217 C  
HETATM   22  C   UNL     1      -8.518  15.714  68.238  1.00  0.00    -0.156 C  
HETATM   23  C   UNL     1      -7.653  15.377  67.024  1.00  0.00    -0.195 C  
HETATM   24  C   UNL     1      -7.666  15.772  69.507  1.00  0.00    -0.166 C  
ENDBRANCH  19  20
ENDBRANCH  18  19
ENDBRANCH  17  18
ENDBRANCH  16  17
ENDBRANCH  13  16
ENDBRANCH  11  12
ENDBRANCH   9  11
ENDBRANCH   2   3
TORSDOF 8
ENDMDL
MODEL      291
REMARK 921   NORMALIZED FREE ENERGY PREDICTED BY IDOCK:   -3.44 KCAL/MOL
REMARK 922        TOTAL FREE ENERGY PREDICTED BY IDOCK:   -6.26 KCAL/MOL
REMARK 923 INTER-LIGAND FREE ENERGY PREDICTED BY IDOCK:   -5.07 KCAL/MOL
REMARK 924 INTRA-LIGAND FREE ENERGY PREDICTED BY IDOCK:   -1.19 KCAL/MOL
REMARK 927      BINDING AFFINITY PREDICTED BY RF-SCORE:    0.00 PKD
ROOT
HETATM    1  C   UNL     1      -9.752   3.887  69.104  1.00  0.00    -0.073 C  
HETATM    2  O   UNL     1      -9.432   3.802  70.488  1.00  0.00    -0.154 OA 
ENDROOT
BRANCH   2   3
HETATM    3  C   UNL     1      -9.394   4.986  71.180  1.00  0.00    -0.149 A  
HETATM    4  C   UNL     1      -8.111   5.438  71.507  1.00  0.00    -0.117 A  
HETATM    5  O   UNL     1      -7.011   4.706  71.157  1.00  0.00    -0.037 OA 
HETATM    6  C   UNL     1      -7.913   6.623  72.203  1.00  0.00    -0.097 A  
HETATM    7  C   UNL     1      -9.022   7.362  72.617  1.00  0.00    -0.173 A  
HETATM    8  H   UNL     1      -6.139   5.012  71.379  1.00  0.00     0.000 HD 
HETATM    9  C   UNL     1     -10.322   6.909  72.344  1.00  0.00    -0.226 A  
HETATM   10  C   UNL     1     -10.499   5.733  71.593  1.00  0.00    -0.286 A  
BRANCH   9  11
HETATM   11  C   UNL     1     -11.512   7.659  72.885  1.00  0.00    -0.290 C  
BRANCH  11  12
HETATM   12  N   UNL     1     -11.702   8.926  72.223  1.00  0.00    -0.333 N  
HETATM   13  C   UNL     1     -12.969   9.424  72.032  1.00  0.00    -0.423 C  
HETATM   14  H   UNL     1     -10.893   9.455  71.896  1.00  0.00     0.000 HD 
HETATM   15  O   UNL     1     -13.984   8.844  72.404  1.00  0.00    -0.454 OA 
BRANCH  13  16
HETATM   16  C   UNL     1     -13.004  10.751  71.301  1.00  0.00    -0.502 C  
BRANCH  16  17
HETATM   17  C   UNL     1     -11.729  11.006  70.496  1.00  0.00    -0.416 C  
BRANCH  17  18
HETATM   18  C   UNL     1     -12.020  11.688  69.154  1.00  0.00    -0.378 C  
BRANCH  18  19
HETATM   19  C   UNL     1     -10.734  11.968  68.379  1.00  0.00    -0.255 C  
BRANCH  19  20
HETATM   20  C   UNL     1      -9.697  10.919  68.660  1.00  0.00    -0.188 C  
HETATM   21  C   UNL     1      -9.549   9.800  67.937  1.00  0.00    -0.158 C  
HETATM   22  C   UNL     1      -8.510   8.744  68.224  1.00  0.00    -0.130 C  
HETATM   23  C   UNL     1      -7.541   8.626  67.049  1.00  0.00    -0.084 C  
HETATM   24  C   UNL     1      -9.189   7.402  68.498  1.00  0.00    -0.142 C  
ENDBRANCH  19  20
ENDBRANCH  18  19
ENDBRANCH  17  18
ENDBRANCH  16  17
ENDBRANCH  13  16
ENDBRANCH  11  12
ENDBRANCH   9  11
ENDBRANCH   2   3
TORSDOF 8
ENDMDL
MODEL      292
REMARK 921   NORMALIZED FREE ENERGY PREDICTED BY IDOCK:   -3.43 KCAL/MOL
REMARK 922        TOTAL FREE ENERGY PREDICTED BY IDOCK:   -6.24 KCAL/MOL
REMARK 923 INTER-LIGAND FREE ENERGY PREDICTED BY IDOCK:   -5.59 KCAL/MOL
REMARK 924 INTRA-LIGAND FREE ENERGY PREDICTED BY IDOCK:   -0.65 KCAL/MOL
REMARK 927      BINDING AFFINITY PREDICTED BY RF-SCORE:    0.00 PKD
ROOT
HETATM    1  C   UNL     1     -12.335  14.077  66.889  1.00  0.00    -0.286 C  
HETATM    2  O   UNL     1     -12.681  13.401  65.687  1.00  0.00    -0.458 OA 
ENDROOT
BRANCH   2   3
HETATM    3  C   UNL     1     -11.744  12.536  65.179  1.00  0.00    -0.378 A  
HETATM    4  C   UNL     1     -11.424  12.737  63.832  1.00  0.00    -0.444 A  
HETATM    5  O   UNL     1     -12.044  13.722  63.114  1.00  0.00    -0.937 OA 
HETATM    6  C   UNL     1     -10.489  11.944  63.182  1.00  0.00    -0.327 A  
HETATM    7  C   UNL     1      -9.882  10.898  63.878  1.00  0.00    -0.385 A  
HETATM    8  H   UNL     1     -11.826  13.859  62.200  1.00  0.00     0.000 HD 
HETATM    9  C   UNL     1     -10.218  10.644  65.217  1.00  0.00    -0.351 A  
HETATM   10  C   UNL     1     -11.129  11.493  65.872  1.00  0.00    -0.274 A  
BRANCH   9  11
HETATM   11  C   UNL     1      -9.634   9.450  65.928  1.00  0.00    -0.270 C  
BRANCH  11  12
HETATM   12  N   UNL     1      -8.783   9.836  67.027  1.00  0.00    -0.134 N  
HETATM   13  C   UNL     1      -8.308   8.887  67.900  1.00  0.00    -0.118 C  
HETATM   14  H   UNL     1      -8.532  10.816  67.156  1.00  0.00     0.000 HD 
HETATM   15  O   UNL     1      -8.566   7.691  67.802  1.00  0.00    -0.121 OA 
BRANCH  13  16
HETATM   16  C   UNL     1      -7.449   9.451  69.013  1.00  0.00    -0.073 C  
BRANCH  16  17
HETATM   17  C   UNL     1      -8.249   9.716  70.289  1.00  0.00    -0.217 C  
BRANCH  17  18
HETATM   18  C   UNL     1      -8.222   8.519  71.246  1.00  0.00    -0.176 C  
BRANCH  18  19
HETATM   19  C   UNL     1      -6.992   7.643  71.011  1.00  0.00    -0.049 C  
BRANCH  19  20
HETATM   20  C   UNL     1      -7.178   6.281  71.618  1.00  0.00    -0.087 C  
HETATM   21  C   UNL     1      -8.337   5.607  71.603  1.00  0.00    -0.124 C  
HETATM   22  C   UNL     1      -8.524   4.242  72.217  1.00  0.00    -0.106 C  
HETATM   23  C   UNL     1      -8.887   3.224  71.137  1.00  0.00    -0.139 C  
HETATM   24  C   UNL     1      -9.607   4.296  73.294  1.00  0.00    -0.139 C  
ENDBRANCH  19  20
ENDBRANCH  18  19
ENDBRANCH  17  18
ENDBRANCH  16  17
ENDBRANCH  13  16
ENDBRANCH  11  12
ENDBRANCH   9  11
ENDBRANCH   2   3
TORSDOF 8
ENDMDL
MODEL      293
REMARK 921   NORMALIZED FREE ENERGY PREDICTED BY IDOCK:   -3.43 KCAL/MOL
REMARK 922        TOTAL FREE ENERGY PREDICTED BY IDOCK:   -6.24 KCAL/MOL
REMARK 923 INTER-LIGAND FREE ENERGY PREDICTED BY IDOCK:   -5.62 KCAL/MOL
REMARK 924 INTRA-LIGAND FREE ENERGY PREDICTED BY IDOCK:   -0.61 KCAL/MOL
REMARK 927      BINDING AFFINITY PREDICTED BY RF-SCORE:    0.00 PKD
ROOT
HETATM    1  C   UNL     1      -8.709   4.025  67.948  1.00  0.00    -0.101 C  
HETATM    2  O   UNL     1      -9.978   4.616  68.203  1.00  0.00    -0.133 OA 
ENDROOT
BRANCH   2   3
HETATM    3  C   UNL     1     -10.040   5.985  68.135  1.00  0.00    -0.160 A  
HETATM    4  C   UNL     1     -10.487   6.615  69.301  1.00  0.00    -0.214 A  
HETATM    5  O   UNL     1     -10.843   5.873  70.393  1.00  0.00    -0.278 OA 
HETATM    6  C   UNL     1     -10.597   7.996  69.385  1.00  0.00    -0.210 A  
HETATM    7  C   UNL     1     -10.290   8.772  68.267  1.00  0.00    -0.252 A  
HETATM    8  H   UNL     1     -11.146   6.300  71.186  1.00  0.00     0.000 HD 
HETATM    9  C   UNL     1      -9.884   8.165  67.068  1.00  0.00    -0.299 A  
HETATM   10  C   UNL     1      -9.728   6.768  67.022  1.00  0.00    -0.200 A  
BRANCH   9  11
HETATM   11  C   UNL     1      -9.654   9.003  65.837  1.00  0.00    -0.247 C  
BRANCH  11  12
HETATM   12  N   UNL     1     -10.356  10.262  65.898  1.00  0.00    -0.211 N  
HETATM   13  C   UNL     1      -9.661  11.433  66.080  1.00  0.00    -0.221 C  
HETATM   14  H   UNL     1     -11.372  10.283  65.806  1.00  0.00     0.000 HD 
HETATM   15  O   UNL     1      -8.440  11.482  66.193  1.00  0.00    -0.154 OA 
BRANCH  13  16
HETATM   16  C   UNL     1     -10.541  12.666  66.148  1.00  0.00    -0.280 C  
BRANCH  16  17
HETATM   17  C   UNL     1     -10.311  13.475  67.424  1.00  0.00    -0.237 C  
BRANCH  17  18
HETATM   18  C   UNL     1     -11.627  13.823  68.131  1.00  0.00    -0.370 C  
BRANCH  18  19
HETATM   19  C   UNL     1     -11.460  15.021  69.065  1.00  0.00    -0.322 C  
BRANCH  19  20
HETATM   20  C   UNL     1     -11.432  16.307  68.290  1.00  0.00    -0.207 C  
HETATM   21  C   UNL     1     -10.355  17.097  68.190  1.00  0.00    -0.350 C  
HETATM   22  C   UNL     1     -10.330  18.391  67.414  1.00  0.00    -0.415 C  
HETATM   23  C   UNL     1      -9.325  18.298  66.266  1.00  0.00    -0.223 C  
HETATM   24  C   UNL     1      -9.979  19.553  68.344  1.00  0.00    -0.540 C  
ENDBRANCH  19  20
ENDBRANCH  18  19
ENDBRANCH  17  18
ENDBRANCH  16  17
ENDBRANCH  13  16
ENDBRANCH  11  12
ENDBRANCH   9  11
ENDBRANCH   2   3
TORSDOF 8
ENDMDL
MODEL      294
REMARK 921   NORMALIZED FREE ENERGY PREDICTED BY IDOCK:   -3.42 KCAL/MOL
REMARK 922        TOTAL FREE ENERGY PREDICTED BY IDOCK:   -6.23 KCAL/MOL
REMARK 923 INTER-LIGAND FREE ENERGY PREDICTED BY IDOCK:   -5.63 KCAL/MOL
REMARK 924 INTRA-LIGAND FREE ENERGY PREDICTED BY IDOCK:   -0.59 KCAL/MOL
REMARK 927      BINDING AFFINITY PREDICTED BY RF-SCORE:    0.00 PKD
ROOT
HETATM    1  C   UNL     1      -9.664  20.414  67.474  1.00  0.00    -0.431 C  
HETATM    2  O   UNL     1      -8.548  19.607  67.827  1.00  0.00    -0.308 OA 
ENDROOT
BRANCH   2   3
HETATM    3  C   UNL     1      -8.773  18.256  67.918  1.00  0.00    -0.265 A  
HETATM    4  C   UNL     1      -7.702  17.512  68.423  1.00  0.00    -0.260 A  
HETATM    5  O   UNL     1      -6.531  18.130  68.764  1.00  0.00    -0.205 OA 
HETATM    6  C   UNL     1      -7.783  16.134  68.578  1.00  0.00    -0.170 A  
HETATM    7  C   UNL     1      -8.947  15.474  68.186  1.00  0.00    -0.179 A  
HETATM    8  H   UNL     1      -5.803  17.625  69.107  1.00  0.00     0.000 HD 
HETATM    9  C   UNL     1     -10.021  16.189  67.633  1.00  0.00    -0.241 A  
HETATM   10  C   UNL     1      -9.938  17.590  67.535  1.00  0.00    -0.315 A  
BRANCH   9  11
HETATM   11  C   UNL     1     -11.233  15.455  67.119  1.00  0.00    -0.256 C  
BRANCH  11  12
HETATM   12  N   UNL     1     -11.082  14.024  67.216  1.00  0.00    -0.295 N  
HETATM   13  C   UNL     1     -11.594  13.347  68.297  1.00  0.00    -0.344 C  
HETATM   14  H   UNL     1     -10.596  13.513  66.479  1.00  0.00     0.000 HD 
HETATM   15  O   UNL     1     -12.194  13.896  69.214  1.00  0.00    -0.346 OA 
BRANCH  13  16
HETATM   16  C   UNL     1     -11.333  11.854  68.265  1.00  0.00    -0.335 C  
BRANCH  16  17
HETATM   17  C   UNL     1      -9.873  11.511  68.565  1.00  0.00    -0.198 C  
BRANCH  17  18
HETATM   18  C   UNL     1      -9.487  10.123  68.040  1.00  0.00    -0.156 C  
BRANCH  18  19
HETATM   19  C   UNL     1     -10.669   9.434  67.360  1.00  0.00    -0.280 C  
BRANCH  19  20
HETATM   20  C   UNL     1     -10.208   8.262  66.539  1.00  0.00    -0.263 C  
HETATM   21  C   UNL     1      -9.784   7.103  67.062  1.00  0.00    -0.222 C  
HETATM   22  C   UNL     1      -9.317   5.930  66.237  1.00  0.00    -0.168 C  
HETATM   23  C   UNL     1     -10.233   4.728  66.465  1.00  0.00    -0.294 C  
HETATM   24  C   UNL     1      -7.871   5.581  66.594  1.00  0.00    -0.101 C  
ENDBRANCH  19  20
ENDBRANCH  18  19
ENDBRANCH  17  18
ENDBRANCH  16  17
ENDBRANCH  13  16
ENDBRANCH  11  12
ENDBRANCH   9  11
ENDBRANCH   2   3
TORSDOF 8
ENDMDL
MODEL      295
REMARK 921   NORMALIZED FREE ENERGY PREDICTED BY IDOCK:   -3.41 KCAL/MOL
REMARK 922        TOTAL FREE ENERGY PREDICTED BY IDOCK:   -6.22 KCAL/MOL
REMARK 923 INTER-LIGAND FREE ENERGY PREDICTED BY IDOCK:   -5.64 KCAL/MOL
REMARK 924 INTRA-LIGAND FREE ENERGY PREDICTED BY IDOCK:   -0.57 KCAL/MOL
REMARK 927      BINDING AFFINITY PREDICTED BY RF-SCORE:    0.00 PKD
ROOT
HETATM    1  C   UNL     1      -8.143   8.524  64.438  1.00  0.00    -0.163 C  
HETATM    2  O   UNL     1      -8.891   7.901  65.475  1.00  0.00    -0.130 OA 
ENDROOT
BRANCH   2   3
HETATM    3  C   UNL     1      -9.303   8.710  66.504  1.00  0.00    -0.200 A  
HETATM    4  C   UNL     1     -10.460   8.283  67.164  1.00  0.00    -0.316 A  
HETATM    5  O   UNL     1     -11.106   7.148  66.760  1.00  0.00    -0.557 OA 
HETATM    6  C   UNL     1     -10.994   8.996  68.229  1.00  0.00     0.025 A  
HETATM    7  C   UNL     1     -10.383  10.185  68.626  1.00  0.00    -0.208 A  
HETATM    8  H   UNL     1     -11.892   6.857  67.209  1.00  0.00     0.000 HD 
HETATM    9  C   UNL     1      -9.248  10.663  67.951  1.00  0.00    -0.150 A  
HETATM   10  C   UNL     1      -8.693   9.898  66.910  1.00  0.00    -0.135 A  
BRANCH   9  11
HETATM   11  C   UNL     1      -8.657  12.000  68.320  1.00  0.00    -0.174 C  
BRANCH  11  12
HETATM   12  N   UNL     1      -9.659  12.926  68.787  1.00  0.00    -0.412 N  
HETATM   13  C   UNL     1      -9.563  14.262  68.477  1.00  0.00    -0.220 C  
HETATM   14  H   UNL     1     -10.441  12.589  69.348  1.00  0.00     0.000 HD 
HETATM   15  O   UNL     1      -8.654  14.734  67.802  1.00  0.00    -0.154 OA 
BRANCH  13  16
HETATM   16  C   UNL     1     -10.676  15.109  69.060  1.00  0.00    -0.239 C  
BRANCH  16  17
HETATM   17  C   UNL     1     -10.323  16.596  69.087  1.00  0.00    -0.326 C  
BRANCH  17  18
HETATM   18  C   UNL     1     -10.785  17.323  67.819  1.00  0.00    -0.333 C  
BRANCH  18  19
HETATM   19  C   UNL     1     -10.075  18.666  67.653  1.00  0.00    -0.404 C  
BRANCH  19  20
HETATM   20  C   UNL     1      -8.902  18.772  68.586  1.00  0.00    -0.360 C  
HETATM   21  C   UNL     1      -7.664  19.106  68.197  1.00  0.00    -0.328 C  
HETATM   22  C   UNL     1      -6.486  19.208  69.134  1.00  0.00    -0.321 C  
HETATM   23  C   UNL     1      -5.957  20.641  69.161  1.00  0.00    -0.371 C  
HETATM   24  C   UNL     1      -5.388  18.236  68.703  1.00  0.00    -0.169 C  
ENDBRANCH  19  20
ENDBRANCH  18  19
ENDBRANCH  17  18
ENDBRANCH  16  17
ENDBRANCH  13  16
ENDBRANCH  11  12
ENDBRANCH   9  11
ENDBRANCH   2   3
TORSDOF 8
ENDMDL
MODEL      296
REMARK 921   NORMALIZED FREE ENERGY PREDICTED BY IDOCK:   -3.38 KCAL/MOL
REMARK 922        TOTAL FREE ENERGY PREDICTED BY IDOCK:   -6.17 KCAL/MOL
REMARK 923 INTER-LIGAND FREE ENERGY PREDICTED BY IDOCK:   -5.46 KCAL/MOL
REMARK 924 INTRA-LIGAND FREE ENERGY PREDICTED BY IDOCK:   -0.71 KCAL/MOL
REMARK 927      BINDING AFFINITY PREDICTED BY RF-SCORE:    0.00 PKD
ROOT
HETATM    1  C   UNL     1     -14.293   7.549  71.381  1.00  0.00    -0.394 C  
HETATM    2  O   UNL     1     -13.119   7.380  72.167  1.00  0.00    -0.172 OA 
ENDROOT
BRANCH   2   3
HETATM    3  C   UNL     1     -12.011   6.898  71.517  1.00  0.00    -0.344 A  
HETATM    4  C   UNL     1     -11.349   5.854  72.171  1.00  0.00    -0.288 A  
HETATM    5  O   UNL     1     -11.803   5.399  73.379  1.00  0.00    -0.447 OA 
HETATM    6  C   UNL     1     -10.216   5.261  71.633  1.00  0.00    -0.274 A  
HETATM    7  C   UNL     1      -9.703   5.743  70.429  1.00  0.00    -0.224 A  
HETATM    8  H   UNL     1     -11.354   4.689  73.823  1.00  0.00     0.000 HD 
HETATM    9  C   UNL     1     -10.318   6.821  69.773  1.00  0.00    -0.226 A  
HETATM   10  C   UNL     1     -11.496   7.372  70.309  1.00  0.00    -0.206 A  
BRANCH   9  11
HETATM   11  C   UNL     1      -9.698   7.401  68.528  1.00  0.00    -0.151 C  
BRANCH  11  12
HETATM   12  N   UNL     1      -9.305   8.777  68.707  1.00  0.00    -0.141 N  
HETATM   13  C   UNL     1      -7.975   9.112  68.784  1.00  0.00    -0.100 C  
HETATM   14  H   UNL     1     -10.017   9.504  68.775  1.00  0.00     0.000 HD 
HETATM   15  O   UNL     1      -7.067   8.291  68.704  1.00  0.00    -0.069 OA 
BRANCH  13  16
HETATM   16  C   UNL     1      -7.725  10.592  68.998  1.00  0.00    -0.125 C  
BRANCH  16  17
HETATM   17  C   UNL     1      -8.099  11.428  67.773  1.00  0.00    -0.121 C  
BRANCH  17  18
HETATM   18  C   UNL     1      -7.943  12.931  68.032  1.00  0.00    -0.158 C  
BRANCH  18  19
HETATM   19  C   UNL     1      -9.212  13.697  67.659  1.00  0.00    -0.213 C  
BRANCH  19  20
HETATM   20  C   UNL     1     -10.046  12.914  66.685  1.00  0.00    -0.247 C  
HETATM   21  C   UNL     1     -10.261  13.286  65.415  1.00  0.00    -0.304 C  
HETATM   22  C   UNL     1     -11.102  12.500  64.440  1.00  0.00    -0.383 C  
HETATM   23  C   UNL     1     -10.244  12.022  63.270  1.00  0.00    -0.398 C  
HETATM   24  C   UNL     1     -12.264  13.359  63.941  1.00  0.00    -0.478 C  
ENDBRANCH  19  20
ENDBRANCH  18  19
ENDBRANCH  17  18
ENDBRANCH  16  17
ENDBRANCH  13  16
ENDBRANCH  11  12
ENDBRANCH   9  11
ENDBRANCH   2   3
TORSDOF 8
ENDMDL
MODEL      297
REMARK 921   NORMALIZED FREE ENERGY PREDICTED BY IDOCK:   -3.36 KCAL/MOL
REMARK 922        TOTAL FREE ENERGY PREDICTED BY IDOCK:   -6.15 KCAL/MOL
REMARK 923 INTER-LIGAND FREE ENERGY PREDICTED BY IDOCK:   -5.69 KCAL/MOL
REMARK 924 INTRA-LIGAND FREE ENERGY PREDICTED BY IDOCK:   -0.46 KCAL/MOL
REMARK 927      BINDING AFFINITY PREDICTED BY RF-SCORE:    0.00 PKD
ROOT
HETATM    1  C   UNL     1      -7.069   4.357  69.738  1.00  0.00    -0.049 C  
HETATM    2  O   UNL     1      -8.451   4.019  69.743  1.00  0.00    -0.060 OA 
ENDROOT
BRANCH   2   3
HETATM    3  C   UNL     1      -9.337   5.063  69.650  1.00  0.00    -0.127 A  
HETATM    4  C   UNL     1     -10.204   5.201  70.739  1.00  0.00    -0.238 A  
HETATM    5  O   UNL     1     -10.145   4.321  71.785  1.00  0.00    -0.184 OA 
HETATM    6  C   UNL     1     -11.152   6.214  70.790  1.00  0.00    -0.375 A  
HETATM    7  C   UNL     1     -11.267   7.092  69.712  1.00  0.00    -0.257 A  
HETATM    8  H   UNL     1     -10.733   4.415  72.525  1.00  0.00     0.000 HD 
HETATM    9  C   UNL     1     -10.443   6.949  68.585  1.00  0.00    -0.217 A  
HETATM   10  C   UNL     1      -9.453   5.948  68.578  1.00  0.00    -0.134 A  
BRANCH   9  11
HETATM   11  C   UNL     1     -10.644   7.836  67.384  1.00  0.00    -0.275 C  
BRANCH  11  12
HETATM   12  N   UNL     1      -9.911   9.073  67.494  1.00  0.00    -0.193 N  
HETATM   13  C   UNL     1     -10.571  10.245  67.779  1.00  0.00    -0.250 C  
HETATM   14  H   UNL     1      -8.900   9.079  67.360  1.00  0.00     0.000 HD 
HETATM   15  O   UNL     1     -11.783  10.311  67.956  1.00  0.00    -0.293 OA 
BRANCH  13  16
HETATM   16  C   UNL     1      -9.667  11.460  67.836  1.00  0.00    -0.186 C  
BRANCH  16  17
HETATM   17  C   UNL     1     -10.223  12.639  67.036  1.00  0.00    -0.233 C  
BRANCH  17  18
HETATM   18  C   UNL     1     -11.114  13.547  67.891  1.00  0.00    -0.288 C  
BRANCH  18  19
HETATM   19  C   UNL     1     -11.544  14.795  67.121  1.00  0.00    -0.373 C  
BRANCH  19  20
HETATM   20  C   UNL     1     -11.240  16.041  67.903  1.00  0.00    -0.276 C  
HETATM   21  C   UNL     1     -10.440  17.023  67.465  1.00  0.00    -0.334 C  
HETATM   22  C   UNL     1     -10.131  18.271  68.254  1.00  0.00    -0.406 C  
HETATM   23  C   UNL     1     -10.646  19.504  67.511  1.00  0.00    -0.599 C  
HETATM   24  C   UNL     1      -8.626  18.378  68.498  1.00  0.00    -0.341 C  
ENDBRANCH  19  20
ENDBRANCH  18  19
ENDBRANCH  17  18
ENDBRANCH  16  17
ENDBRANCH  13  16
ENDBRANCH  11  12
ENDBRANCH   9  11
ENDBRANCH   2   3
TORSDOF 8
ENDMDL
MODEL      298
REMARK 921   NORMALIZED FREE ENERGY PREDICTED BY IDOCK:   -3.34 KCAL/MOL
REMARK 922        TOTAL FREE ENERGY PREDICTED BY IDOCK:   -6.12 KCAL/MOL
REMARK 923 INTER-LIGAND FREE ENERGY PREDICTED BY IDOCK:   -5.34 KCAL/MOL
REMARK 924 INTRA-LIGAND FREE ENERGY PREDICTED BY IDOCK:   -0.78 KCAL/MOL
REMARK 927      BINDING AFFINITY PREDICTED BY RF-SCORE:    0.00 PKD
ROOT
HETATM    1  C   UNL     1      -7.197   3.882  72.749  1.00  0.00    -0.062 C  
HETATM    2  O   UNL     1      -8.485   3.338  72.491  1.00  0.00    -0.081 OA 
ENDROOT
BRANCH   2   3
HETATM    3  C   UNL     1      -9.495   4.237  72.260  1.00  0.00    -0.132 A  
HETATM    4  C   UNL     1     -10.463   4.310  73.268  1.00  0.00    -0.186 A  
HETATM    5  O   UNL     1     -10.372   3.507  74.371  1.00  0.00    -0.166 OA 
HETATM    6  C   UNL     1     -11.542   5.178  73.178  1.00  0.00    -0.281 A  
HETATM    7  C   UNL     1     -11.685   5.969  72.038  1.00  0.00    -0.315 A  
HETATM    8  H   UNL     1     -11.029   3.556  75.056  1.00  0.00     0.000 HD 
HETATM    9  C   UNL     1     -10.756   5.883  70.989  1.00  0.00    -0.331 A  
HETATM   10  C   UNL     1      -9.641   5.036  71.125  1.00  0.00    -0.226 A  
BRANCH   9  11
HETATM   11  C   UNL     1     -10.975   6.665  69.720  1.00  0.00    -0.313 C  
BRANCH  11  12
HETATM   12  N   UNL     1     -11.381   8.024  69.982  1.00  0.00    -0.453 N  
HETATM   13  C   UNL     1     -10.445   9.029  70.026  1.00  0.00    -0.214 C  
HETATM   14  H   UNL     1     -12.366   8.239  70.135  1.00  0.00     0.000 HD 
HETATM   15  O   UNL     1      -9.246   8.842  69.846  1.00  0.00    -0.154 OA 
BRANCH  13  16
HETATM   16  C   UNL     1     -11.024  10.395  70.336  1.00  0.00    -0.320 C  
BRANCH  16  17
HETATM   17  C   UNL     1     -12.137  10.789  69.365  1.00  0.00    -0.315 C  
BRANCH  17  18
HETATM   18  C   UNL     1     -11.816  12.087  68.616  1.00  0.00    -0.366 C  
BRANCH  18  19
HETATM   19  C   UNL     1     -11.373  11.810  67.180  1.00  0.00    -0.387 C  
BRANCH  19  20
HETATM   20  C   UNL     1     -10.154  10.932  67.154  1.00  0.00    -0.235 C  
HETATM   21  C   UNL     1      -9.913  10.013  66.208  1.00  0.00    -0.310 C  
HETATM   22  C   UNL     1      -8.690   9.129  66.186  1.00  0.00    -0.169 C  
HETATM   23  C   UNL     1      -7.859   9.412  64.936  1.00  0.00    -0.117 C  
HETATM   24  C   UNL     1      -9.106   7.659  66.236  1.00  0.00    -0.204 C  
ENDBRANCH  19  20
ENDBRANCH  18  19
ENDBRANCH  17  18
ENDBRANCH  16  17
ENDBRANCH  13  16
ENDBRANCH  11  12
ENDBRANCH   9  11
ENDBRANCH   2   3
TORSDOF 8
ENDMDL
MODEL      299
REMARK 921   NORMALIZED FREE ENERGY PREDICTED BY IDOCK:   -3.34 KCAL/MOL
REMARK 922        TOTAL FREE ENERGY PREDICTED BY IDOCK:   -6.12 KCAL/MOL
REMARK 923 INTER-LIGAND FREE ENERGY PREDICTED BY IDOCK:   -5.60 KCAL/MOL
REMARK 924 INTRA-LIGAND FREE ENERGY PREDICTED BY IDOCK:   -0.51 KCAL/MOL
REMARK 927      BINDING AFFINITY PREDICTED BY RF-SCORE:    0.00 PKD
ROOT
HETATM    1  C   UNL     1      -8.933   4.358  63.265  1.00  0.00    -0.132 C  
HETATM    2  O   UNL     1      -9.821   3.651  64.121  1.00  0.00    -0.156 OA 
ENDROOT
BRANCH   2   3
HETATM    3  C   UNL     1      -9.854   4.049  65.433  1.00  0.00    -0.192 A  
HETATM    4  C   UNL     1      -9.431   3.084  66.354  1.00  0.00    -0.002 A  
HETATM    5  O   UNL     1      -9.045   1.844  65.926  1.00  0.00    -0.199 OA 
HETATM    6  C   UNL     1      -9.404   3.343  67.718  1.00  0.00    -0.243 A  
HETATM    7  C   UNL     1      -9.844   4.582  68.183  1.00  0.00    -0.152 A  
HETATM    8  H   UNL     1      -8.758   1.188  66.551  1.00  0.00     0.000 HD 
HETATM    9  C   UNL     1     -10.318   5.553  67.287  1.00  0.00    -0.290 A  
HETATM   10  C   UNL     1     -10.286   5.289  65.905  1.00  0.00    -0.101 A  
BRANCH   9  11
HETATM   11  C   UNL     1     -10.886   6.848  67.807  1.00  0.00    -0.241 C  
BRANCH  11  12
HETATM   12  N   UNL     1     -10.774   7.916  66.844  1.00  0.00    -0.449 N  
HETATM   13  C   UNL     1      -9.685   8.755  66.865  1.00  0.00    -0.210 C  
HETATM   14  H   UNL     1     -11.505   8.050  66.145  1.00  0.00     0.000 HD 
HETATM   15  O   UNL     1      -8.768   8.649  67.673  1.00  0.00    -0.134 OA 
BRANCH  13  16
HETATM   16  C   UNL     1      -9.725   9.840  65.808  1.00  0.00    -0.340 C  
BRANCH  16  17
HETATM   17  C   UNL     1     -10.655  10.992  66.190  1.00  0.00    -0.288 C  
BRANCH  17  18
HETATM   18  C   UNL     1     -10.473  11.419  67.651  1.00  0.00    -0.225 C  
BRANCH  18  19
HETATM   19  C   UNL     1     -11.722  11.122  68.481  1.00  0.00    -0.368 C  
BRANCH  19  20
HETATM   20  C   UNL     1     -11.679  11.848  69.795  1.00  0.00    -0.403 C  
HETATM   21  C   UNL     1     -12.379  12.960  70.059  1.00  0.00    -0.199 C  
HETATM   22  C   UNL     1     -12.331  13.691  71.378  1.00  0.00    -0.301 C  
HETATM   23  C   UNL     1     -13.710  13.678  72.037  1.00  0.00    -0.583 C  
HETATM   24  C   UNL     1     -11.849  15.126  71.164  1.00  0.00    -0.393 C  
ENDBRANCH  19  20
ENDBRANCH  18  19
ENDBRANCH  17  18
ENDBRANCH  16  17
ENDBRANCH  13  16
ENDBRANCH  11  12
ENDBRANCH   9  11
ENDBRANCH   2   3
TORSDOF 8
ENDMDL
MODEL      300
REMARK 921   NORMALIZED FREE ENERGY PREDICTED BY IDOCK:   -3.34 KCAL/MOL
REMARK 922        TOTAL FREE ENERGY PREDICTED BY IDOCK:   -6.11 KCAL/MOL
REMARK 923 INTER-LIGAND FREE ENERGY PREDICTED BY IDOCK:   -4.57 KCAL/MOL
REMARK 924 INTRA-LIGAND FREE ENERGY PREDICTED BY IDOCK:   -1.54 KCAL/MOL
REMARK 927      BINDING AFFINITY PREDICTED BY RF-SCORE:    0.00 PKD
ROOT
HETATM    1  C   UNL     1     -12.495  10.972  70.440  1.00  0.00    -0.313 C  
HETATM    2  O   UNL     1     -12.208  12.362  70.357  1.00  0.00    -0.346 OA 
ENDROOT
BRANCH   2   3
HETATM    3  C   UNL     1     -11.413  12.762  69.312  1.00  0.00    -0.289 A  
HETATM    4  C   UNL     1     -11.713  14.025  68.791  1.00  0.00    -0.353 A  
HETATM    5  O   UNL     1     -12.747  14.757  69.307  1.00  0.00    -0.556 OA 
HETATM    6  C   UNL     1     -10.992  14.566  67.736  1.00  0.00    -0.282 A  
HETATM    7  C   UNL     1      -9.967  13.817  67.158  1.00  0.00    -0.243 A  
HETATM    8  H   UNL     1     -12.951  15.615  68.953  1.00  0.00     0.000 HD 
HETATM    9  C   UNL     1      -9.674  12.527  67.629  1.00  0.00    -0.196 A  
HETATM   10  C   UNL     1     -10.382  12.020  68.734  1.00  0.00    -0.181 A  
BRANCH   9  11
HETATM   11  C   UNL     1      -8.635  11.686  66.933  1.00  0.00    -0.174 C  
BRANCH  11  12
HETATM   12  N   UNL     1      -7.478  11.455  67.762  1.00  0.00    -0.095 N  
HETATM   13  C   UNL     1      -6.501  10.577  67.357  1.00  0.00    -0.062 C  
HETATM   14  H   UNL     1      -7.384  11.946  68.651  1.00  0.00     0.000 HD 
HETATM   15  O   UNL     1      -6.547   9.959  66.298  1.00  0.00    -0.073 OA 
BRANCH  13  16
HETATM   16  C   UNL     1      -5.364  10.425  68.347  1.00  0.00    -0.034 C  
BRANCH  16  17
HETATM   17  C   UNL     1      -5.852  10.010  69.735  1.00  0.00    -0.043 C  
BRANCH  17  18
HETATM   18  C   UNL     1      -6.479   8.612  69.733  1.00  0.00    -0.038 C  
BRANCH  18  19
HETATM   19  C   UNL     1      -7.811   8.595  70.481  1.00  0.00    -0.096 C  
BRANCH  19  20
HETATM   20  C   UNL     1      -8.967   8.621  69.522  1.00  0.00    -0.145 C  
HETATM   21  C   UNL     1      -8.986   7.962  68.355  1.00  0.00    -0.133 C  
HETATM   22  C   UNL     1     -10.145   7.994  67.390  1.00  0.00    -0.294 C  
HETATM   23  C   UNL     1     -10.733   6.593  67.227  1.00  0.00    -0.427 C  
HETATM   24  C   UNL     1      -9.688   8.546  66.040  1.00  0.00    -0.195 C  
ENDBRANCH  19  20
ENDBRANCH  18  19
ENDBRANCH  17  18
ENDBRANCH  16  17
ENDBRANCH  13  16
ENDBRANCH  11  12
ENDBRANCH   9  11
ENDBRANCH   2   3
TORSDOF 8
ENDMDL
MODEL      301
REMARK 921   NORMALIZED FREE ENERGY PREDICTED BY IDOCK:   -3.33 KCAL/MOL
REMARK 922        TOTAL FREE ENERGY PREDICTED BY IDOCK:   -6.10 KCAL/MOL
REMARK 923 INTER-LIGAND FREE ENERGY PREDICTED BY IDOCK:   -4.10 KCAL/MOL
REMARK 924 INTRA-LIGAND FREE ENERGY PREDICTED BY IDOCK:   -2.00 KCAL/MOL
REMARK 927      BINDING AFFINITY PREDICTED BY RF-SCORE:    0.00 PKD
ROOT
HETATM    1  C   UNL     1      -8.324   7.577  74.485  1.00  0.00    -0.201 C  
HETATM    2  O   UNL     1      -7.636   8.478  73.626  1.00  0.00    -0.333 OA 
ENDROOT
BRANCH   2   3
HETATM    3  C   UNL     1      -7.667   8.190  72.285  1.00  0.00    -0.120 A  
HETATM    4  C   UNL     1      -6.541   7.519  71.798  1.00  0.00    -0.042 A  
HETATM    5  O   UNL     1      -5.502   7.215  72.635  1.00  0.00    -0.037 OA 
HETATM    6  C   UNL     1      -6.431   7.155  70.463  1.00  0.00    -0.047 A  
HETATM    7  C   UNL     1      -7.453   7.501  69.578  1.00  0.00    -0.093 A  
HETATM    8  H   UNL     1      -4.737   6.759  72.305  1.00  0.00     0.000 HD 
HETATM    9  C   UNL     1      -8.574   8.216  70.029  1.00  0.00    -0.129 A  
HETATM   10  C   UNL     1      -8.689   8.527  71.396  1.00  0.00    -0.237 A  
BRANCH   9  11
HETATM   11  C   UNL     1      -9.623   8.673  69.048  1.00  0.00    -0.163 C  
BRANCH  11  12
HETATM   12  N   UNL     1      -9.725   7.791  67.911  1.00  0.00    -0.149 N  
HETATM   13  C   UNL     1     -10.663   6.787  67.898  1.00  0.00    -0.256 C  
HETATM   14  H   UNL     1      -9.099   7.914  67.115  1.00  0.00     0.000 HD 
HETATM   15  O   UNL     1     -11.449   6.586  68.817  1.00  0.00    -0.241 OA 
BRANCH  13  16
HETATM   16  C   UNL     1     -10.628   5.931  66.647  1.00  0.00    -0.330 C  
BRANCH  16  17
HETATM   17  C   UNL     1      -9.360   5.081  66.558  1.00  0.00    -0.141 C  
BRANCH  17  18
HETATM   18  C   UNL     1      -9.469   3.795  67.384  1.00  0.00    -0.239 C  
BRANCH  18  19
HETATM   19  C   UNL     1      -8.631   3.876  68.659  1.00  0.00    -0.119 C  
BRANCH  19  20
HETATM   20  C   UNL     1      -9.503   3.816  69.881  1.00  0.00    -0.267 C  
HETATM   21  C   UNL     1      -9.411   4.672  70.908  1.00  0.00    -0.233 C  
HETATM   22  C   UNL     1     -10.285   4.607  72.137  1.00  0.00    -0.259 C  
HETATM   23  C   UNL     1     -11.130   5.875  72.249  1.00  0.00    -0.330 C  
HETATM   24  C   UNL     1      -9.421   4.422  73.385  1.00  0.00    -0.132 C  
ENDBRANCH  19  20
ENDBRANCH  18  19
ENDBRANCH  17  18
ENDBRANCH  16  17
ENDBRANCH  13  16
ENDBRANCH  11  12
ENDBRANCH   9  11
ENDBRANCH   2   3
TORSDOF 8
ENDMDL
MODEL      302
REMARK 921   NORMALIZED FREE ENERGY PREDICTED BY IDOCK:   -3.33 KCAL/MOL
REMARK 922        TOTAL FREE ENERGY PREDICTED BY IDOCK:   -6.10 KCAL/MOL
REMARK 923 INTER-LIGAND FREE ENERGY PREDICTED BY IDOCK:   -5.19 KCAL/MOL
REMARK 924 INTRA-LIGAND FREE ENERGY PREDICTED BY IDOCK:   -0.91 KCAL/MOL
REMARK 927      BINDING AFFINITY PREDICTED BY RF-SCORE:    0.00 PKD
ROOT
HETATM    1  C   UNL     1      -7.746   3.234  66.402  1.00  0.00    -0.077 C  
HETATM    2  O   UNL     1      -9.127   3.085  66.712  1.00  0.00    -0.151 OA 
ENDROOT
BRANCH   2   3
HETATM    3  C   UNL     1      -9.738   4.155  67.316  1.00  0.00    -0.170 A  
HETATM    4  C   UNL     1     -10.403   5.024  66.445  1.00  0.00    -0.294 A  
HETATM    5  O   UNL     1     -10.397   4.789  65.097  1.00  0.00    -0.416 OA 
HETATM    6  C   UNL     1     -11.073   6.147  66.910  1.00  0.00    -0.301 A  
HETATM    7  C   UNL     1     -11.049   6.437  68.274  1.00  0.00    -0.359 A  
HETATM    8  H   UNL     1     -10.849   5.379  64.505  1.00  0.00     0.000 HD 
HETATM    9  C   UNL     1     -10.350   5.609  69.166  1.00  0.00    -0.328 A  
HETATM   10  C   UNL     1      -9.723   4.447  68.680  1.00  0.00    -0.190 A  
BRANCH   9  11
HETATM   11  C   UNL     1     -10.244   5.986  70.621  1.00  0.00    -0.205 C  
BRANCH  11  12
HETATM   12  N   UNL     1     -10.204   7.415  70.811  1.00  0.00    -0.197 N  
HETATM   13  C   UNL     1     -11.318   8.085  71.254  1.00  0.00    -0.264 C  
HETATM   14  H   UNL     1      -9.345   7.930  70.615  1.00  0.00     0.000 HD 
HETATM   15  O   UNL     1     -12.381   7.530  71.513  1.00  0.00    -0.311 OA 
BRANCH  13  16
HETATM   16  C   UNL     1     -11.125   9.584  71.378  1.00  0.00    -0.438 C  
BRANCH  16  17
HETATM   17  C   UNL     1     -12.008  10.367  70.406  1.00  0.00    -0.409 C  
BRANCH  17  18
HETATM   18  C   UNL     1     -11.450  10.350  68.979  1.00  0.00    -0.258 C  
BRANCH  18  19
HETATM   19  C   UNL     1     -10.366  11.411  68.789  1.00  0.00    -0.222 C  
BRANCH  19  20
HETATM   20  C   UNL     1      -9.492  11.081  67.613  1.00  0.00    -0.173 C  
HETATM   21  C   UNL     1      -8.253  10.580  67.718  1.00  0.00    -0.107 C  
HETATM   22  C   UNL     1      -7.374  10.254  66.536  1.00  0.00    -0.113 C  
HETATM   23  C   UNL     1      -7.069   8.757  66.504  1.00  0.00    -0.080 C  
HETATM   24  C   UNL     1      -6.081  11.066  66.604  1.00  0.00    -0.124 C  
ENDBRANCH  19  20
ENDBRANCH  18  19
ENDBRANCH  17  18
ENDBRANCH  16  17
ENDBRANCH  13  16
ENDBRANCH  11  12
ENDBRANCH   9  11
ENDBRANCH   2   3
TORSDOF 8
ENDMDL
MODEL      303
REMARK 921   NORMALIZED FREE ENERGY PREDICTED BY IDOCK:   -3.32 KCAL/MOL
REMARK 922        TOTAL FREE ENERGY PREDICTED BY IDOCK:   -6.08 KCAL/MOL
REMARK 923 INTER-LIGAND FREE ENERGY PREDICTED BY IDOCK:   -5.02 KCAL/MOL
REMARK 924 INTRA-LIGAND FREE ENERGY PREDICTED BY IDOCK:   -1.06 KCAL/MOL
REMARK 927      BINDING AFFINITY PREDICTED BY RF-SCORE:    0.00 PKD
ROOT
HETATM    1  C   UNL     1     -11.944  13.592  67.223  1.00  0.00    -0.381 C  
HETATM    2  O   UNL     1     -12.383  12.890  66.067  1.00  0.00    -0.504 OA 
ENDROOT
BRANCH   2   3
HETATM    3  C   UNL     1     -11.433  12.166  65.393  1.00  0.00    -0.336 A  
HETATM    4  C   UNL     1     -11.095  12.665  64.130  1.00  0.00    -0.382 A  
HETATM    5  O   UNL     1     -11.712  13.784  63.642  1.00  0.00    -0.660 OA 
HETATM    6  C   UNL     1     -10.145  12.042  63.333  1.00  0.00    -0.437 A  
HETATM    7  C   UNL     1      -9.540  10.870  63.786  1.00  0.00    -0.331 A  
HETATM    8  H   UNL     1     -11.483  14.123  62.785  1.00  0.00     0.000 HD 
HETATM    9  C   UNL     1      -9.893  10.320  65.028  1.00  0.00    -0.397 A  
HETATM   10  C   UNL     1     -10.819  10.996  65.843  1.00  0.00    -0.183 A  
BRANCH   9  11
HETATM   11  C   UNL     1      -9.310   8.999  65.463  1.00  0.00    -0.187 C  
BRANCH  11  12
HETATM   12  N   UNL     1      -9.105   8.940  66.890  1.00  0.00    -0.129 N  
HETATM   13  C   UNL     1      -9.390   7.787  67.581  1.00  0.00    -0.142 C  
HETATM   14  H   UNL     1      -8.747   9.755  67.387  1.00  0.00     0.000 HD 
HETATM   15  O   UNL     1      -9.818   6.768  67.047  1.00  0.00    -0.148 OA 
BRANCH  13  16
HETATM   16  C   UNL     1      -9.147   7.889  69.074  1.00  0.00    -0.144 C  
BRANCH  16  17
HETATM   17  C   UNL     1      -7.742   7.431  69.467  1.00  0.00    -0.108 C  
BRANCH  17  18
HETATM   18  C   UNL     1      -7.275   8.067  70.782  1.00  0.00    -0.053 C  
BRANCH  18  19
HETATM   19  C   UNL     1      -7.593   9.561  70.825  1.00  0.00    -0.099 C  
BRANCH  19  20
HETATM   20  C   UNL     1      -6.987  10.273  69.650  1.00  0.00    -0.114 C  
HETATM   21  C   UNL     1      -7.322  11.515  69.273  1.00  0.00    -0.009 C  
HETATM   22  C   UNL     1      -6.716  12.228  68.090  1.00  0.00    -0.069 C  
HETATM   23  C   UNL     1      -5.966  13.476  68.554  1.00  0.00    -0.090 C  
HETATM   24  C   UNL     1      -7.807  12.597  67.085  1.00  0.00    -0.110 C  
ENDBRANCH  19  20
ENDBRANCH  18  19
ENDBRANCH  17  18
ENDBRANCH  16  17
ENDBRANCH  13  16
ENDBRANCH  11  12
ENDBRANCH   9  11
ENDBRANCH   2   3
TORSDOF 8
ENDMDL
MODEL      304
REMARK 921   NORMALIZED FREE ENERGY PREDICTED BY IDOCK:   -3.31 KCAL/MOL
REMARK 922        TOTAL FREE ENERGY PREDICTED BY IDOCK:   -6.06 KCAL/MOL
REMARK 923 INTER-LIGAND FREE ENERGY PREDICTED BY IDOCK:   -5.07 KCAL/MOL
REMARK 924 INTRA-LIGAND FREE ENERGY PREDICTED BY IDOCK:   -0.99 KCAL/MOL
REMARK 927      BINDING AFFINITY PREDICTED BY RF-SCORE:    0.00 PKD
ROOT
HETATM    1  C   UNL     1     -10.239  11.680  67.610  1.00  0.00    -0.188 C  
HETATM    2  O   UNL     1     -10.727  11.165  66.377  1.00  0.00    -0.261 OA 
ENDROOT
BRANCH   2   3
HETATM    3  C   UNL     1      -9.903  10.298  65.706  1.00  0.00    -0.257 A  
HETATM    4  C   UNL     1      -9.274  10.834  64.577  1.00  0.00    -0.220 A  
HETATM    5  O   UNL     1      -9.515  12.126  64.201  1.00  0.00    -0.496 OA 
HETATM    6  C   UNL     1      -8.407  10.078  63.800  1.00  0.00    -0.170 A  
HETATM    7  C   UNL     1      -8.186   8.741  64.132  1.00  0.00    -0.163 A  
HETATM    8  H   UNL     1      -9.088  12.491  63.435  1.00  0.00     0.000 HD 
HETATM    9  C   UNL     1      -8.839   8.163  65.232  1.00  0.00    -0.035 A  
HETATM   10  C   UNL     1      -9.673   8.961  66.037  1.00  0.00    -0.308 A  
BRANCH   9  11
HETATM   11  C   UNL     1      -8.674   6.693  65.522  1.00  0.00    -0.039 C  
BRANCH  11  12
HETATM   12  N   UNL     1      -7.946   6.458  66.744  1.00  0.00    -0.107 N  
HETATM   13  C   UNL     1      -8.371   5.496  67.628  1.00  0.00    -0.100 C  
HETATM   14  H   UNL     1      -7.112   7.008  66.952  1.00  0.00     0.000 HD 
HETATM   15  O   UNL     1      -9.360   4.796  67.440  1.00  0.00    -0.124 OA 
BRANCH  13  16
HETATM   16  C   UNL     1      -7.515   5.387  68.875  1.00  0.00    -0.075 C  
BRANCH  16  17
HETATM   17  C   UNL     1      -7.482   6.690  69.674  1.00  0.00    -0.096 C  
BRANCH  17  18
HETATM   18  C   UNL     1      -8.884   7.142  70.099  1.00  0.00    -0.145 C  
BRANCH  18  19
HETATM   19  C   UNL     1      -8.974   8.665  70.200  1.00  0.00    -0.157 C  
BRANCH  19  20
HETATM   20  C   UNL     1     -10.402   9.125  70.118  1.00  0.00    -0.244 C  
HETATM   21  C   UNL     1     -11.059   9.711  71.129  1.00  0.00    -0.444 C  
HETATM   22  C   UNL     1     -12.494  10.169  71.046  1.00  0.00    -0.474 C  
HETATM   23  C   UNL     1     -12.575  11.684  71.225  1.00  0.00    -0.425 C  
HETATM   24  C   UNL     1     -13.333   9.455  72.106  1.00  0.00    -0.545 C  
ENDBRANCH  19  20
ENDBRANCH  18  19
ENDBRANCH  17  18
ENDBRANCH  16  17
ENDBRANCH  13  16
ENDBRANCH  11  12
ENDBRANCH   9  11
ENDBRANCH   2   3
TORSDOF 8
ENDMDL
MODEL      305
REMARK 921   NORMALIZED FREE ENERGY PREDICTED BY IDOCK:   -3.30 KCAL/MOL
REMARK 922        TOTAL FREE ENERGY PREDICTED BY IDOCK:   -6.05 KCAL/MOL
REMARK 923 INTER-LIGAND FREE ENERGY PREDICTED BY IDOCK:   -4.45 KCAL/MOL
REMARK 924 INTRA-LIGAND FREE ENERGY PREDICTED BY IDOCK:   -1.60 KCAL/MOL
REMARK 927      BINDING AFFINITY PREDICTED BY RF-SCORE:    0.00 PKD
ROOT
HETATM    1  C   UNL     1     -10.822  11.576  68.792  1.00  0.00    -0.216 C  
HETATM    2  O   UNL     1     -10.650  10.974  67.515  1.00  0.00    -0.200 OA 
ENDROOT
BRANCH   2   3
HETATM    3  C   UNL     1     -10.381   9.629  67.504  1.00  0.00    -0.241 A  
HETATM    4  C   UNL     1      -9.563   9.199  66.453  1.00  0.00    -0.245 A  
HETATM    5  O   UNL     1      -9.110  10.092  65.521  1.00  0.00    -0.163 OA 
HETATM    6  C   UNL     1      -9.200   7.867  66.313  1.00  0.00    -0.231 A  
HETATM    7  C   UNL     1      -9.692   6.928  67.220  1.00  0.00    -0.184 A  
HETATM    8  H   UNL     1      -8.555   9.800  64.808  1.00  0.00     0.000 HD 
HETATM    9  C   UNL     1     -10.553   7.323  68.257  1.00  0.00    -0.217 A  
HETATM   10  C   UNL     1     -10.865   8.686  68.412  1.00  0.00     0.003 A  
BRANCH   9  11
HETATM   11  C   UNL     1     -11.161   6.289  69.169  1.00  0.00    -0.371 C  
BRANCH  11  12
HETATM   12  N   UNL     1     -10.724   6.444  70.534  1.00  0.00    -0.240 N  
HETATM   13  C   UNL     1     -11.562   7.002  71.470  1.00  0.00    -0.287 C  
HETATM   14  H   UNL     1      -9.789   6.138  70.807  1.00  0.00     0.000 HD 
HETATM   15  O   UNL     1     -12.698   7.386  71.213  1.00  0.00    -0.349 OA 
BRANCH  13  16
HETATM   16  C   UNL     1     -10.949   7.120  72.851  1.00  0.00    -0.359 C  
BRANCH  16  17
HETATM   17  C   UNL     1      -9.421   7.069  72.817  1.00  0.00    -0.170 C  
BRANCH  17  18
HETATM   18  C   UNL     1      -8.804   8.445  72.538  1.00  0.00    -0.296 C  
BRANCH  18  19
HETATM   19  C   UNL     1      -7.716   8.363  71.468  1.00  0.00    -0.125 C  
BRANCH  19  20
HETATM   20  C   UNL     1      -7.903   9.432  70.429  1.00  0.00    -0.179 C  
HETATM   21  C   UNL     1      -6.897  10.130  69.883  1.00  0.00    -0.124 C  
HETATM   22  C   UNL     1      -7.087  11.206  68.843  1.00  0.00    -0.101 C  
HETATM   23  C   UNL     1      -6.401  10.805  67.538  1.00  0.00    -0.057 C  
HETATM   24  C   UNL     1      -6.533  12.535  69.358  1.00  0.00    -0.102 C  
ENDBRANCH  19  20
ENDBRANCH  18  19
ENDBRANCH  17  18
ENDBRANCH  16  17
ENDBRANCH  13  16
ENDBRANCH  11  12
ENDBRANCH   9  11
ENDBRANCH   2   3
TORSDOF 8
ENDMDL
MODEL      306
REMARK 921   NORMALIZED FREE ENERGY PREDICTED BY IDOCK:   -3.29 KCAL/MOL
REMARK 922        TOTAL FREE ENERGY PREDICTED BY IDOCK:   -6.03 KCAL/MOL
REMARK 923 INTER-LIGAND FREE ENERGY PREDICTED BY IDOCK:   -4.62 KCAL/MOL
REMARK 924 INTRA-LIGAND FREE ENERGY PREDICTED BY IDOCK:   -1.41 KCAL/MOL
REMARK 927      BINDING AFFINITY PREDICTED BY RF-SCORE:    0.00 PKD
ROOT
HETATM    1  C   UNL     1     -11.680  12.660  66.925  1.00  0.00    -0.383 C  
HETATM    2  O   UNL     1     -11.967  11.390  67.498  1.00  0.00    -0.626 OA 
ENDROOT
BRANCH   2   3
HETATM    3  C   UNL     1     -10.904  10.539  67.665  1.00  0.00    -0.300 A  
HETATM    4  C   UNL     1     -10.378  10.498  68.961  1.00  0.00    -0.213 A  
HETATM    5  O   UNL     1     -10.907  11.285  69.946  1.00  0.00    -0.463 OA 
HETATM    6  C   UNL     1      -9.304   9.680  69.284  1.00  0.00    -0.184 A  
HETATM    7  C   UNL     1      -8.712   8.908  68.284  1.00  0.00    -0.134 A  
HETATM    8  H   UNL     1     -10.550  11.257  70.826  1.00  0.00     0.000 HD 
HETATM    9  C   UNL     1      -9.189   8.964  66.964  1.00  0.00    -0.171 A  
HETATM   10  C   UNL     1     -10.312   9.760  66.670  1.00  0.00    -0.276 A  
BRANCH   9  11
HETATM   11  C   UNL     1      -8.480   8.206  65.872  1.00  0.00    -0.142 C  
BRANCH  11  12
HETATM   12  N   UNL     1      -7.819   7.025  66.371  1.00  0.00    -0.103 N  
HETATM   13  C   UNL     1      -8.482   5.821  66.399  1.00  0.00    -0.122 C  
HETATM   14  H   UNL     1      -6.857   7.083  66.704  1.00  0.00     0.000 HD 
HETATM   15  O   UNL     1      -9.636   5.678  66.009  1.00  0.00    -0.150 OA 
BRANCH  13  16
HETATM   16  C   UNL     1      -7.664   4.682  66.973  1.00  0.00    -0.091 C  
BRANCH  16  17
HETATM   17  C   UNL     1      -6.908   5.089  68.239  1.00  0.00    -0.056 C  
BRANCH  17  18
HETATM   18  C   UNL     1      -7.844   5.255  69.441  1.00  0.00    -0.088 C  
BRANCH  18  19
HETATM   19  C   UNL     1      -7.134   5.931  70.614  1.00  0.00    -0.074 C  
BRANCH  19  20
HETATM   20  C   UNL     1      -8.107   6.710  71.454  1.00  0.00    -0.111 C  
HETATM   21  C   UNL     1      -9.325   6.266  71.793  1.00  0.00    -0.155 C  
HETATM   22  C   UNL     1     -10.302   7.051  72.633  1.00  0.00    -0.235 C  
HETATM   23  C   UNL     1     -10.591   6.309  73.937  1.00  0.00    -0.231 C  
HETATM   24  C   UNL     1     -11.594   7.288  71.850  1.00  0.00    -0.313 C  
ENDBRANCH  19  20
ENDBRANCH  18  19
ENDBRANCH  17  18
ENDBRANCH  16  17
ENDBRANCH  13  16
ENDBRANCH  11  12
ENDBRANCH   9  11
ENDBRANCH   2   3
TORSDOF 8
ENDMDL
MODEL      307
REMARK 921   NORMALIZED FREE ENERGY PREDICTED BY IDOCK:   -3.29 KCAL/MOL
REMARK 922        TOTAL FREE ENERGY PREDICTED BY IDOCK:   -6.03 KCAL/MOL
REMARK 923 INTER-LIGAND FREE ENERGY PREDICTED BY IDOCK:   -5.58 KCAL/MOL
REMARK 924 INTRA-LIGAND FREE ENERGY PREDICTED BY IDOCK:   -0.46 KCAL/MOL
REMARK 927      BINDING AFFINITY PREDICTED BY RF-SCORE:    0.00 PKD
ROOT
HETATM    1  C   UNL     1     -11.650  13.572  65.281  1.00  0.00    -0.311 C  
HETATM    2  O   UNL     1     -11.161  14.422  66.312  1.00  0.00    -0.319 OA 
ENDROOT
BRANCH   2   3
HETATM    3  C   UNL     1     -11.502  14.085  67.597  1.00  0.00    -0.334 A  
HETATM    4  C   UNL     1     -11.599  15.162  68.485  1.00  0.00    -0.335 A  
HETATM    5  O   UNL     1     -11.341  16.435  68.056  1.00  0.00    -0.288 OA 
HETATM    6  C   UNL     1     -11.941  14.978  69.817  1.00  0.00    -0.366 A  
HETATM    7  C   UNL     1     -12.157  13.684  70.291  1.00  0.00    -0.427 A  
HETATM    8  H   UNL     1     -11.407  17.167  68.658  1.00  0.00     0.000 HD 
HETATM    9  C   UNL     1     -12.021  12.579  69.435  1.00  0.00    -0.315 A  
HETATM   10  C   UNL     1     -11.726  12.793  68.076  1.00  0.00    -0.405 A  
BRANCH   9  11
HETATM   11  C   UNL     1     -12.155  11.180  69.980  1.00  0.00    -0.359 C  
BRANCH  11  12
HETATM   12  N   UNL     1     -11.821  10.180  68.995  1.00  0.00    -0.496 N  
HETATM   13  C   UNL     1     -10.518   9.771  68.840  1.00  0.00    -0.214 C  
HETATM   14  H   UNL     1     -12.554   9.775  68.413  1.00  0.00     0.000 HD 
HETATM   15  O   UNL     1      -9.588  10.211  69.509  1.00  0.00    -0.214 OA 
BRANCH  13  16
HETATM   16  C   UNL     1     -10.325   8.735  67.751  1.00  0.00    -0.297 C  
BRANCH  16  17
HETATM   17  C   UNL     1     -10.578   7.312  68.249  1.00  0.00    -0.217 C  
BRANCH  17  18
HETATM   18  C   UNL     1      -9.553   6.316  67.696  1.00  0.00    -0.118 C  
BRANCH  18  19
HETATM   19  C   UNL     1      -8.132   6.676  68.131  1.00  0.00    -0.111 C  
BRANCH  19  20
HETATM   20  C   UNL     1      -8.089   7.021  69.593  1.00  0.00    -0.130 C  
HETATM   21  C   UNL     1      -7.422   6.309  70.511  1.00  0.00    -0.091 C  
HETATM   22  C   UNL     1      -7.383   6.655  71.979  1.00  0.00    -0.090 C  
HETATM   23  C   UNL     1      -5.951   6.972  72.408  1.00  0.00    -0.041 C  
HETATM   24  C   UNL     1      -7.950   5.499  72.804  1.00  0.00    -0.102 C  
ENDBRANCH  19  20
ENDBRANCH  18  19
ENDBRANCH  17  18
ENDBRANCH  16  17
ENDBRANCH  13  16
ENDBRANCH  11  12
ENDBRANCH   9  11
ENDBRANCH   2   3
TORSDOF 8
ENDMDL
MODEL      308
REMARK 921   NORMALIZED FREE ENERGY PREDICTED BY IDOCK:   -3.28 KCAL/MOL
REMARK 922        TOTAL FREE ENERGY PREDICTED BY IDOCK:   -6.02 KCAL/MOL
REMARK 923 INTER-LIGAND FREE ENERGY PREDICTED BY IDOCK:   -4.80 KCAL/MOL
REMARK 924 INTRA-LIGAND FREE ENERGY PREDICTED BY IDOCK:   -1.22 KCAL/MOL
REMARK 927      BINDING AFFINITY PREDICTED BY RF-SCORE:    0.00 PKD
ROOT
HETATM    1  C   UNL     1     -10.241   3.968  64.750  1.00  0.00    -0.212 C  
HETATM    2  O   UNL     1      -9.381   5.017  65.178  1.00  0.00    -0.140 OA 
ENDROOT
BRANCH   2   3
HETATM    3  C   UNL     1      -9.354   5.275  66.525  1.00  0.00    -0.143 A  
HETATM    4  C   UNL     1      -9.560   6.614  66.875  1.00  0.00    -0.157 A  
HETATM    5  O   UNL     1      -9.748   7.560  65.905  1.00  0.00    -0.417 OA 
HETATM    6  C   UNL     1      -9.565   7.027  68.200  1.00  0.00    -0.131 A  
HETATM    7  C   UNL     1      -9.323   6.091  69.205  1.00  0.00    -0.136 A  
HETATM    8  H   UNL     1      -9.888   8.469  66.141  1.00  0.00     0.000 HD 
HETATM    9  C   UNL     1      -9.066   4.749  68.882  1.00  0.00    -0.156 A  
HETATM   10  C   UNL     1      -9.119   4.342  67.536  1.00  0.00    -0.146 A  
BRANCH   9  11
HETATM   11  C   UNL     1      -8.704   3.767  69.966  1.00  0.00    -0.069 C  
BRANCH  11  12
HETATM   12  N   UNL     1      -9.747   3.640  70.954  1.00  0.00    -0.177 N  
HETATM   13  C   UNL     1      -9.496   3.956  72.268  1.00  0.00    -0.128 C  
HETATM   14  H   UNL     1     -10.674   3.316  70.677  1.00  0.00     0.000 HD 
HETATM   15  O   UNL     1      -8.409   4.356  72.670  1.00  0.00    -0.103 OA 
BRANCH  13  16
HETATM   16  C   UNL     1     -10.683   3.747  73.187  1.00  0.00    -0.267 C  
BRANCH  16  17
HETATM   17  C   UNL     1     -11.769   4.804  72.986  1.00  0.00    -0.190 C  
BRANCH  17  18
HETATM   18  C   UNL     1     -11.181   6.171  72.616  1.00  0.00    -0.312 C  
BRANCH  18  19
HETATM   19  C   UNL     1     -12.209   7.046  71.898  1.00  0.00    -0.362 C  
BRANCH  19  20
HETATM   20  C   UNL     1     -11.690   8.444  71.715  1.00  0.00    -0.371 C  
HETATM   21  C   UNL     1     -11.498   9.020  70.520  1.00  0.00    -0.248 C  
HETATM   22  C   UNL     1     -10.972  10.423  70.338  1.00  0.00    -0.320 C  
HETATM   23  C   UNL     1     -12.022  11.293  69.648  1.00  0.00    -0.423 C  
HETATM   24  C   UNL     1      -9.677  10.396  69.526  1.00  0.00    -0.196 C  
ENDBRANCH  19  20
ENDBRANCH  18  19
ENDBRANCH  17  18
ENDBRANCH  16  17
ENDBRANCH  13  16
ENDBRANCH  11  12
ENDBRANCH   9  11
ENDBRANCH   2   3
TORSDOF 8
ENDMDL
MODEL      309
REMARK 921   NORMALIZED FREE ENERGY PREDICTED BY IDOCK:   -3.25 KCAL/MOL
REMARK 922        TOTAL FREE ENERGY PREDICTED BY IDOCK:   -5.98 KCAL/MOL
REMARK 923 INTER-LIGAND FREE ENERGY PREDICTED BY IDOCK:   -5.20 KCAL/MOL
REMARK 924 INTRA-LIGAND FREE ENERGY PREDICTED BY IDOCK:   -0.78 KCAL/MOL
REMARK 927      BINDING AFFINITY PREDICTED BY RF-SCORE:    0.00 PKD
ROOT
HETATM    1  C   UNL     1      -9.661   5.608  67.258  1.00  0.00    -0.119 C  
HETATM    2  O   UNL     1      -9.402   6.093  68.570  1.00  0.00    -0.118 OA 
ENDROOT
BRANCH   2   3
HETATM    3  C   UNL     1      -9.880   7.345  68.864  1.00  0.00    -0.157 A  
HETATM    4  C   UNL     1      -9.807   7.702  70.215  1.00  0.00    -0.180 A  
HETATM    5  O   UNL     1      -9.309   6.823  71.136  1.00  0.00    -0.159 OA 
HETATM    6  C   UNL     1     -10.247   8.940  70.665  1.00  0.00    -0.267 A  
HETATM    7  C   UNL     1     -10.809   9.834  69.753  1.00  0.00    -0.285 A  
HETATM    8  H   UNL     1      -9.259   7.064  72.053  1.00  0.00     0.000 HD 
HETATM    9  C   UNL     1     -10.937   9.485  68.399  1.00  0.00    -0.117 A  
HETATM   10  C   UNL     1     -10.436   8.247  67.956  1.00  0.00    -0.239 A  
BRANCH   9  11
HETATM   11  C   UNL     1     -11.638  10.415  67.443  1.00  0.00     0.573 C  
BRANCH  11  12
HETATM   12  N   UNL     1     -11.098  11.752  67.492  1.00  0.00    -0.254 N  
HETATM   13  C   UNL     1     -11.511  12.698  66.584  1.00  0.00    -0.351 C  
HETATM   14  H   UNL     1     -10.409  11.996  68.203  1.00  0.00     0.000 HD 
HETATM   15  O   UNL     1     -12.339  12.475  65.707  1.00  0.00    -0.627 OA 
BRANCH  13  16
HETATM   16  C   UNL     1     -10.834  14.044  66.750  1.00  0.00    -0.294 C  
BRANCH  16  17
HETATM   17  C   UNL     1      -9.690  14.000  67.763  1.00  0.00    -0.228 C  
BRANCH  17  18
HETATM   18  C   UNL     1      -9.025  15.370  67.941  1.00  0.00    -0.173 C  
BRANCH  18  19
HETATM   19  C   UNL     1      -9.059  15.822  69.401  1.00  0.00    -0.254 C  
BRANCH  19  20
HETATM   20  C   UNL     1     -10.458  16.173  69.822  1.00  0.00    -0.286 C  
HETATM   21  C   UNL     1     -11.160  15.485  70.733  1.00  0.00    -0.383 C  
HETATM   22  C   UNL     1     -12.566  15.835  71.152  1.00  0.00    -0.487 C  
HETATM   23  C   UNL     1     -12.599  16.200  72.635  1.00  0.00    -0.499 C  
HETATM   24  C   UNL     1     -13.505  14.664  70.864  1.00  0.00    -0.293 C  
ENDBRANCH  19  20
ENDBRANCH  18  19
ENDBRANCH  17  18
ENDBRANCH  16  17
ENDBRANCH  13  16
ENDBRANCH  11  12
ENDBRANCH   9  11
ENDBRANCH   2   3
TORSDOF 8
ENDMDL
MODEL      310
REMARK 921   NORMALIZED FREE ENERGY PREDICTED BY IDOCK:   -3.23 KCAL/MOL
REMARK 922        TOTAL FREE ENERGY PREDICTED BY IDOCK:   -5.95 KCAL/MOL
REMARK 923 INTER-LIGAND FREE ENERGY PREDICTED BY IDOCK:   -4.93 KCAL/MOL
REMARK 924 INTRA-LIGAND FREE ENERGY PREDICTED BY IDOCK:   -1.03 KCAL/MOL
REMARK 927      BINDING AFFINITY PREDICTED BY RF-SCORE:    0.00 PKD
ROOT
HETATM    1  C   UNL     1      -7.725   9.276  69.442  1.00  0.00    -0.082 C  
HETATM    2  O   UNL     1      -8.933   9.997  69.233  1.00  0.00    -0.155 OA 
ENDROOT
BRANCH   2   3
HETATM    3  C   UNL     1      -9.964   9.728  70.099  1.00  0.00    -0.263 A  
HETATM    4  C   UNL     1     -11.090  10.545  69.948  1.00  0.00    -0.307 A  
HETATM    5  O   UNL     1     -11.102  11.537  69.006  1.00  0.00    -0.215 OA 
HETATM    6  C   UNL     1     -12.213  10.389  70.748  1.00  0.00    -0.457 A  
HETATM    7  C   UNL     1     -12.204   9.419  71.751  1.00  0.00    -0.465 A  
HETATM    8  H   UNL     1     -11.867  12.091  68.903  1.00  0.00     0.000 HD 
HETATM    9  C   UNL     1     -11.070   8.617  71.956  1.00  0.00    -0.437 A  
HETATM   10  C   UNL     1      -9.963   8.756  71.099  1.00  0.00    -0.317 A  
BRANCH   9  11
HETATM   11  C   UNL     1     -11.032   7.644  73.107  1.00  0.00    -0.353 C  
BRANCH  11  12
HETATM   12  N   UNL     1     -10.887   6.280  72.660  1.00  0.00    -0.231 N  
HETATM   13  C   UNL     1      -9.708   5.606  72.870  1.00  0.00    -0.155 C  
HETATM   14  H   UNL     1     -11.663   5.815  72.189  1.00  0.00     0.000 HD 
HETATM   15  O   UNL     1      -8.739   6.102  73.434  1.00  0.00    -0.126 OA 
BRANCH  13  16
HETATM   16  C   UNL     1      -9.704   4.193  72.322  1.00  0.00    -0.214 C  
BRANCH  16  17
HETATM   17  C   UNL     1      -8.883   4.069  71.037  1.00  0.00    -0.135 C  
BRANCH  17  18
HETATM   18  C   UNL     1      -9.759   4.163  69.782  1.00  0.00    -0.278 C  
BRANCH  18  19
HETATM   19  C   UNL     1      -9.923   5.611  69.322  1.00  0.00    -0.251 C  
BRANCH  19  20
HETATM   20  C   UNL     1      -9.537   5.762  67.878  1.00  0.00    -0.124 C  
HETATM   21  C   UNL     1      -8.485   5.151  67.316  1.00  0.00    -0.106 C  
HETATM   22  C   UNL     1      -8.096   5.308  65.867  1.00  0.00    -0.110 C  
HETATM   23  C   UNL     1      -8.194   3.964  65.147  1.00  0.00    -0.101 C  
HETATM   24  C   UNL     1      -6.680   5.874  65.763  1.00  0.00    -0.048 C  
ENDBRANCH  19  20
ENDBRANCH  18  19
ENDBRANCH  17  18
ENDBRANCH  16  17
ENDBRANCH  13  16
ENDBRANCH  11  12
ENDBRANCH   9  11
ENDBRANCH   2   3
TORSDOF 8
ENDMDL
MODEL      311
REMARK 921   NORMALIZED FREE ENERGY PREDICTED BY IDOCK:   -3.23 KCAL/MOL
REMARK 922        TOTAL FREE ENERGY PREDICTED BY IDOCK:   -5.94 KCAL/MOL
REMARK 923 INTER-LIGAND FREE ENERGY PREDICTED BY IDOCK:   -5.23 KCAL/MOL
REMARK 924 INTRA-LIGAND FREE ENERGY PREDICTED BY IDOCK:   -0.72 KCAL/MOL
REMARK 927      BINDING AFFINITY PREDICTED BY RF-SCORE:    0.00 PKD
ROOT
HETATM    1  C   UNL     1     -11.147   4.620  73.324  1.00  0.00    -0.321 C  
HETATM    2  O   UNL     1     -10.092   4.222  72.458  1.00  0.00    -0.160 OA 
ENDROOT
BRANCH   2   3
HETATM    3  C   UNL     1      -9.703   5.131  71.507  1.00  0.00    -0.166 A  
HETATM    4  C   UNL     1      -8.450   4.889  70.935  1.00  0.00    -0.111 A  
HETATM    5  O   UNL     1      -7.698   3.823  71.345  1.00  0.00    -0.054 OA 
HETATM    6  C   UNL     1      -7.925   5.721  69.955  1.00  0.00    -0.099 A  
HETATM    7  C   UNL     1      -8.649   6.845  69.558  1.00  0.00    -0.134 A  
HETATM    8  H   UNL     1      -6.846   3.658  70.957  1.00  0.00     0.000 HD 
HETATM    9  C   UNL     1      -9.889   7.139  70.148  1.00  0.00    -0.180 A  
HETATM   10  C   UNL     1     -10.426   6.254  71.101  1.00  0.00    -0.271 A  
BRANCH   9  11
HETATM   11  C   UNL     1     -10.615   8.409  69.786  1.00  0.00    -0.221 C  
BRANCH  11  12
HETATM   12  N   UNL     1     -10.841   8.520  68.366  1.00  0.00    -0.441 N  
HETATM   13  C   UNL     1     -10.076   9.374  67.609  1.00  0.00    -0.211 C  
HETATM   14  H   UNL     1     -11.571   7.963  67.923  1.00  0.00     0.000 HD 
HETATM   15  O   UNL     1      -9.179  10.069  68.075  1.00  0.00    -0.134 OA 
BRANCH  13  16
HETATM   16  C   UNL     1     -10.451   9.397  66.141  1.00  0.00    -0.027 C  
BRANCH  16  17
HETATM   17  C   UNL     1      -9.301   9.870  65.252  1.00  0.00    -0.309 C  
BRANCH  17  18
HETATM   18  C   UNL     1      -9.595  11.227  64.602  1.00  0.00    -0.265 C  
BRANCH  18  19
HETATM   19  C   UNL     1     -11.083  11.389  64.293  1.00  0.00    -0.356 C  
BRANCH  19  20
HETATM   20  C   UNL     1     -11.608  12.684  64.845  1.00  0.00    -0.376 C  
HETATM   21  C   UNL     1     -10.878  13.536  65.577  1.00  0.00    -0.293 C  
HETATM   22  C   UNL     1     -11.408  14.834  66.135  1.00  0.00    -0.330 C  
HETATM   23  C   UNL     1     -10.647  16.015  65.535  1.00  0.00    -0.415 C  
HETATM   24  C   UNL     1     -11.291  14.836  67.659  1.00  0.00    -0.352 C  
ENDBRANCH  19  20
ENDBRANCH  18  19
ENDBRANCH  17  18
ENDBRANCH  16  17
ENDBRANCH  13  16
ENDBRANCH  11  12
ENDBRANCH   9  11
ENDBRANCH   2   3
TORSDOF 8
ENDMDL
MODEL      312
REMARK 921   NORMALIZED FREE ENERGY PREDICTED BY IDOCK:   -3.22 KCAL/MOL
REMARK 922        TOTAL FREE ENERGY PREDICTED BY IDOCK:   -5.94 KCAL/MOL
REMARK 923 INTER-LIGAND FREE ENERGY PREDICTED BY IDOCK:   -5.39 KCAL/MOL
REMARK 924 INTRA-LIGAND FREE ENERGY PREDICTED BY IDOCK:   -0.55 KCAL/MOL
REMARK 927      BINDING AFFINITY PREDICTED BY RF-SCORE:    0.00 PKD
ROOT
HETATM    1  C   UNL     1      -9.840   4.254  68.810  1.00  0.00    -0.050 C  
HETATM    2  O   UNL     1      -9.752   3.488  67.615  1.00  0.00    -0.173 OA 
ENDROOT
BRANCH   2   3
HETATM    3  C   UNL     1      -9.347   4.157  66.488  1.00  0.00    -0.174 A  
HETATM    4  C   UNL     1      -9.299   3.380  65.325  1.00  0.00    -0.155 A  
HETATM    5  O   UNL     1      -9.623   2.052  65.369  1.00  0.00    -0.338 OA 
HETATM    6  C   UNL     1      -8.914   3.919  64.106  1.00  0.00    -0.129 A  
HETATM    7  C   UNL     1      -8.528   5.258  64.046  1.00  0.00    -0.102 A  
HETATM    8  H   UNL     1      -9.591   1.524  64.579  1.00  0.00     0.000 HD 
HETATM    9  C   UNL     1      -8.521   6.050  65.205  1.00  0.00    -0.131 A  
HETATM   10  C   UNL     1      -8.966   5.498  66.420  1.00  0.00    -0.131 A  
BRANCH   9  11
HETATM   11  C   UNL     1      -8.006   7.465  65.150  1.00  0.00    -0.128 C  
BRANCH  11  12
HETATM   12  N   UNL     1      -8.385   8.228  66.314  1.00  0.00    -0.118 N  
HETATM   13  C   UNL     1      -9.271   9.272  66.197  1.00  0.00    -0.196 C  
HETATM   14  H   UNL     1      -7.996   7.990  67.226  1.00  0.00     0.000 HD 
HETATM   15  O   UNL     1      -9.781   9.609  65.134  1.00  0.00    -0.300 OA 
BRANCH  13  16
HETATM   16  C   UNL     1      -9.550   9.989  67.504  1.00  0.00    -0.178 C  
BRANCH  16  17
HETATM   17  C   UNL     1     -11.046  10.158  67.767  1.00  0.00    -0.293 C  
BRANCH  17  18
HETATM   18  C   UNL     1     -11.321  11.050  68.983  1.00  0.00    -0.345 C  
BRANCH  18  19
HETATM   19  C   UNL     1     -11.948  12.381  68.569  1.00  0.00    -0.273 C  
BRANCH  19  20
HETATM   20  C   UNL     1     -11.345  12.885  67.289  1.00  0.00    -0.356 C  
HETATM   21  C   UNL     1     -11.994  12.912  66.116  1.00  0.00    -0.491 C  
HETATM   22  C   UNL     1     -11.385  13.414  64.830  1.00  0.00    -0.356 C  
HETATM   23  C   UNL     1     -12.153  14.635  64.325  1.00  0.00    -0.437 C  
HETATM   24  C   UNL     1     -11.389  12.302  63.780  1.00  0.00    -0.534 C  
ENDBRANCH  19  20
ENDBRANCH  18  19
ENDBRANCH  17  18
ENDBRANCH  16  17
ENDBRANCH  13  16
ENDBRANCH  11  12
ENDBRANCH   9  11
ENDBRANCH   2   3
TORSDOF 8
ENDMDL
MODEL      313
REMARK 921   NORMALIZED FREE ENERGY PREDICTED BY IDOCK:   -3.22 KCAL/MOL
REMARK 922        TOTAL FREE ENERGY PREDICTED BY IDOCK:   -5.93 KCAL/MOL
REMARK 923 INTER-LIGAND FREE ENERGY PREDICTED BY IDOCK:   -4.47 KCAL/MOL
REMARK 924 INTRA-LIGAND FREE ENERGY PREDICTED BY IDOCK:   -1.46 KCAL/MOL
REMARK 927      BINDING AFFINITY PREDICTED BY RF-SCORE:    0.00 PKD
ROOT
HETATM    1  C   UNL     1      -9.600  10.275  64.319  1.00  0.00    -0.313 C  
HETATM    2  O   UNL     1      -8.526   9.484  64.812  1.00  0.00    -0.138 OA 
ENDROOT
BRANCH   2   3
HETATM    3  C   UNL     1      -7.894   9.944  65.940  1.00  0.00    -0.116 A  
HETATM    4  C   UNL     1      -6.660  10.562  65.714  1.00  0.00    -0.123 A  
HETATM    5  O   UNL     1      -6.156  10.656  64.446  1.00  0.00    -0.343 OA 
HETATM    6  C   UNL     1      -5.906  11.083  66.757  1.00  0.00    -0.094 A  
HETATM    7  C   UNL     1      -6.373  10.952  68.065  1.00  0.00    -0.057 A  
HETATM    8  H   UNL     1      -5.318  11.077  64.293  1.00  0.00     0.000 HD 
HETATM    9  C   UNL     1      -7.586  10.294  68.326  1.00  0.00    -0.091 A  
HETATM   10  C   UNL     1      -8.359   9.822  67.250  1.00  0.00    -0.121 A  
BRANCH   9  11
HETATM   11  C   UNL     1      -8.032  10.068  69.748  1.00  0.00    -0.180 C  
BRANCH  11  12
HETATM   12  N   UNL     1      -9.426   9.708  69.830  1.00  0.00    -0.206 N  
HETATM   13  C   UNL     1      -9.962   9.286  71.022  1.00  0.00    -0.293 C  
HETATM   14  H   UNL     1     -10.016   9.767  68.999  1.00  0.00     0.000 HD 
HETATM   15  O   UNL     1      -9.314   9.196  72.059  1.00  0.00    -0.337 OA 
BRANCH  13  16
HETATM   16  C   UNL     1     -11.431   8.920  70.940  1.00  0.00    -0.339 C  
BRANCH  16  17
HETATM   17  C   UNL     1     -11.765   7.665  71.747  1.00  0.00    -0.319 C  
BRANCH  17  18
HETATM   18  C   UNL     1     -11.270   6.388  71.059  1.00  0.00    -0.370 C  
BRANCH  18  19
HETATM   19  C   UNL     1     -11.529   6.427  69.554  1.00  0.00    -0.412 C  
BRANCH  19  20
HETATM   20  C   UNL     1     -10.288   6.071  68.785  1.00  0.00    -0.267 C  
HETATM   21  C   UNL     1      -9.072   5.961  69.338  1.00  0.00    -0.134 C  
HETATM   22  C   UNL     1      -7.826   5.609  68.564  1.00  0.00    -0.096 C  
HETATM   23  C   UNL     1      -7.250   4.286  69.067  1.00  0.00    -0.051 C  
HETATM   24  C   UNL     1      -6.794   6.730  68.693  1.00  0.00    -0.066 C  
ENDBRANCH  19  20
ENDBRANCH  18  19
ENDBRANCH  17  18
ENDBRANCH  16  17
ENDBRANCH  13  16
ENDBRANCH  11  12
ENDBRANCH   9  11
ENDBRANCH   2   3
TORSDOF 8
ENDMDL
MODEL      314
REMARK 921   NORMALIZED FREE ENERGY PREDICTED BY IDOCK:   -3.21 KCAL/MOL
REMARK 922        TOTAL FREE ENERGY PREDICTED BY IDOCK:   -5.92 KCAL/MOL
REMARK 923 INTER-LIGAND FREE ENERGY PREDICTED BY IDOCK:   -5.38 KCAL/MOL
REMARK 924 INTRA-LIGAND FREE ENERGY PREDICTED BY IDOCK:   -0.54 KCAL/MOL
REMARK 927      BINDING AFFINITY PREDICTED BY RF-SCORE:    0.00 PKD
ROOT
HETATM    1  C   UNL     1     -11.577  15.147  71.365  1.00  0.00    -0.373 C  
HETATM    2  O   UNL     1     -12.278  15.720  70.268  1.00  0.00    -0.386 OA 
ENDROOT
BRANCH   2   3
HETATM    3  C   UNL     1     -11.873  15.336  69.015  1.00  0.00    -0.318 A  
HETATM    4  C   UNL     1     -11.037  16.245  68.359  1.00  0.00    -0.362 A  
HETATM    5  O   UNL     1     -10.695  17.426  68.959  1.00  0.00    -0.323 OA 
HETATM    6  C   UNL     1     -10.542  15.991  67.087  1.00  0.00    -0.305 A  
HETATM    7  C   UNL     1     -10.919  14.819  66.432  1.00  0.00    -0.331 A  
HETATM    8  H   UNL     1     -10.127  18.044  68.514  1.00  0.00     0.000 HD 
HETATM    9  C   UNL     1     -11.795  13.910  67.047  1.00  0.00    -0.447 A  
HETATM   10  C   UNL     1     -12.241  14.161  68.357  1.00  0.00    -0.200 A  
BRANCH   9  11
HETATM   11  C   UNL     1     -12.277  12.697  66.292  1.00  0.00    -0.155 C  
BRANCH  11  12
HETATM   12  N   UNL     1     -11.358  12.305  65.252  1.00  0.00    -0.328 N  
HETATM   13  C   UNL     1     -10.378  11.377  65.509  1.00  0.00    -0.266 C  
HETATM   14  H   UNL     1     -11.437  12.717  64.322  1.00  0.00     0.000 HD 
HETATM   15  O   UNL     1     -10.230  10.838  66.601  1.00  0.00    -0.217 OA 
BRANCH  13  16
HETATM   16  C   UNL     1      -9.478  11.089  64.324  1.00  0.00    -0.270 C  
BRANCH  16  17
HETATM   17  C   UNL     1      -8.869   9.687  64.381  1.00  0.00    -0.263 C  
BRANCH  17  18
HETATM   18  C   UNL     1      -7.357   9.705  64.131  1.00  0.00    -0.122 C  
BRANCH  18  19
HETATM   19  C   UNL     1      -6.572   9.646  65.441  1.00  0.00    -0.082 C  
BRANCH  19  20
HETATM   20  C   UNL     1      -7.270  10.422  66.521  1.00  0.00    -0.118 C  
HETATM   21  C   UNL     1      -6.779  11.538  67.078  1.00  0.00    -0.143 C  
HETATM   22  C   UNL     1      -7.479  12.314  68.166  1.00  0.00    -0.112 C  
HETATM   23  C   UNL     1      -7.823  13.719  67.672  1.00  0.00    -0.185 C  
HETATM   24  C   UNL     1      -6.597  12.381  69.412  1.00  0.00    -0.072 C  
ENDBRANCH  19  20
ENDBRANCH  18  19
ENDBRANCH  17  18
ENDBRANCH  16  17
ENDBRANCH  13  16
ENDBRANCH  11  12
ENDBRANCH   9  11
ENDBRANCH   2   3
TORSDOF 8
ENDMDL
MODEL      315
REMARK 921   NORMALIZED FREE ENERGY PREDICTED BY IDOCK:   -3.19 KCAL/MOL
REMARK 922        TOTAL FREE ENERGY PREDICTED BY IDOCK:   -5.90 KCAL/MOL
REMARK 923 INTER-LIGAND FREE ENERGY PREDICTED BY IDOCK:   -5.08 KCAL/MOL
REMARK 924 INTRA-LIGAND FREE ENERGY PREDICTED BY IDOCK:   -0.81 KCAL/MOL
REMARK 927      BINDING AFFINITY PREDICTED BY RF-SCORE:    0.00 PKD
ROOT
HETATM    1  C   UNL     1      -9.286   3.758  71.083  1.00  0.00    -0.149 C  
HETATM    2  O   UNL     1      -9.098   3.147  69.813  1.00  0.00    -0.102 OA 
ENDROOT
BRANCH   2   3
HETATM    3  C   UNL     1      -9.501   3.871  68.719  1.00  0.00    -0.155 A  
HETATM    4  C   UNL     1      -9.274   3.253  67.485  1.00  0.00    -0.193 A  
HETATM    5  O   UNL     1      -8.671   2.026  67.428  1.00  0.00    -0.095 OA 
HETATM    6  C   UNL     1      -9.633   3.861  66.290  1.00  0.00    -0.198 A  
HETATM    7  C   UNL     1     -10.201   5.135  66.319  1.00  0.00    -0.289 A  
HETATM    8  H   UNL     1      -8.517   1.606  66.590  1.00  0.00     0.000 HD 
HETATM    9  C   UNL     1     -10.398   5.799  67.540  1.00  0.00    -0.274 A  
HETATM   10  C   UNL     1     -10.075   5.143  68.742  1.00  0.00    -0.231 A  
BRANCH   9  11
HETATM   11  C   UNL     1     -10.916   7.214  67.555  1.00  0.00    -0.190 C  
BRANCH  11  12
HETATM   12  N   UNL     1     -10.278   8.037  66.556  1.00  0.00    -0.468 N  
HETATM   13  C   UNL     1      -9.114   8.706  66.852  1.00  0.00    -0.144 C  
HETATM   14  H   UNL     1     -10.691   8.121  65.627  1.00  0.00     0.000 HD 
HETATM   15  O   UNL     1      -8.560   8.645  67.945  1.00  0.00    -0.135 OA 
BRANCH  13  16
HETATM   16  C   UNL     1      -8.581   9.546  65.708  1.00  0.00    -0.152 C  
BRANCH  16  17
HETATM   17  C   UNL     1      -8.242   8.706  64.477  1.00  0.00    -0.166 C  
BRANCH  17  18
HETATM   18  C   UNL     1      -8.909   9.247  63.207  1.00  0.00    -0.159 C  
BRANCH  18  19
HETATM   19  C   UNL     1      -8.491  10.691  62.928  1.00  0.00    -0.187 C  
BRANCH  19  20
HETATM   20  C   UNL     1      -9.690  11.593  62.853  1.00  0.00    -0.233 C  
HETATM   21  C   UNL     1     -10.440  11.931  63.912  1.00  0.00    -0.441 C  
HETATM   22  C   UNL     1     -11.647  12.833  63.835  1.00  0.00    -0.518 C  
HETATM   23  C   UNL     1     -11.411  14.098  64.658  1.00  0.00    -0.392 C  
HETATM   24  C   UNL     1     -12.888  12.091  64.329  1.00  0.00    -0.211 C  
ENDBRANCH  19  20
ENDBRANCH  18  19
ENDBRANCH  17  18
ENDBRANCH  16  17
ENDBRANCH  13  16
ENDBRANCH  11  12
ENDBRANCH   9  11
ENDBRANCH   2   3
TORSDOF 8
ENDMDL
MODEL      316
REMARK 921   NORMALIZED FREE ENERGY PREDICTED BY IDOCK:   -3.19 KCAL/MOL
REMARK 922        TOTAL FREE ENERGY PREDICTED BY IDOCK:   -5.89 KCAL/MOL
REMARK 923 INTER-LIGAND FREE ENERGY PREDICTED BY IDOCK:   -4.53 KCAL/MOL
REMARK 924 INTRA-LIGAND FREE ENERGY PREDICTED BY IDOCK:   -1.36 KCAL/MOL
REMARK 927      BINDING AFFINITY PREDICTED BY RF-SCORE:    0.00 PKD
ROOT
HETATM    1  C   UNL     1     -14.166   6.918  72.074  1.00  0.00    -0.095 C  
HETATM    2  O   UNL     1     -12.805   6.509  72.018  1.00  0.00    -0.276 OA 
ENDROOT
BRANCH   2   3
HETATM    3  C   UNL     1     -11.890   7.473  71.678  1.00  0.00    -0.291 A  
HETATM    4  C   UNL     1     -10.894   7.705  72.633  1.00  0.00    -0.340 A  
HETATM    5  O   UNL     1     -10.892   7.010  73.811  1.00  0.00    -0.525 OA 
HETATM    6  C   UNL     1      -9.895   8.647  72.429  1.00  0.00    -0.315 A  
HETATM    7  C   UNL     1      -9.906   9.406  71.259  1.00  0.00    -0.245 A  
HETATM    8  H   UNL     1     -10.217   7.167  74.460  1.00  0.00     0.000 HD 
HETATM    9  C   UNL     1     -10.920   9.228  70.303  1.00  0.00    -0.286 A  
HETATM   10  C   UNL     1     -11.891   8.231  70.507  1.00  0.00    -0.002 A  
BRANCH   9  11
HETATM   11  C   UNL     1     -10.981  10.123  69.092  1.00  0.00    -0.230 C  
BRANCH  11  12
HETATM   12  N   UNL     1      -9.692  10.278  68.465  1.00  0.00    -0.156 N  
HETATM   13  C   UNL     1      -9.590  10.874  67.231  1.00  0.00    -0.164 C  
HETATM   14  H   UNL     1      -8.853   9.943  68.938  1.00  0.00     0.000 HD 
HETATM   15  O   UNL     1     -10.556  11.304  66.608  1.00  0.00    -0.241 OA 
BRANCH  13  16
HETATM   16  C   UNL     1      -8.174  10.940  66.695  1.00  0.00    -0.145 C  
BRANCH  16  17
HETATM   17  C   UNL     1      -7.934   9.943  65.561  1.00  0.00    -0.128 C  
BRANCH  17  18
HETATM   18  C   UNL     1      -8.705   8.634  65.770  1.00  0.00    -0.212 C  
BRANCH  18  19
HETATM   19  C   UNL     1      -7.916   7.653  66.635  1.00  0.00    -0.107 C  
BRANCH  19  20
HETATM   20  C   UNL     1      -8.792   7.046  67.695  1.00  0.00    -0.119 C  
HETATM   21  C   UNL     1      -8.426   6.014  68.467  1.00  0.00    -0.113 C  
HETATM   22  C   UNL     1      -9.309   5.403  69.528  1.00  0.00    -0.166 C  
HETATM   23  C   UNL     1      -8.671   5.572  70.906  1.00  0.00    -0.140 C  
HETATM   24  C   UNL     1      -9.548   3.924  69.222  1.00  0.00    -0.232 C  
ENDBRANCH  19  20
ENDBRANCH  18  19
ENDBRANCH  17  18
ENDBRANCH  16  17
ENDBRANCH  13  16
ENDBRANCH  11  12
ENDBRANCH   9  11
ENDBRANCH   2   3
TORSDOF 8
ENDMDL
MODEL      317
REMARK 921   NORMALIZED FREE ENERGY PREDICTED BY IDOCK:   -3.18 KCAL/MOL
REMARK 922        TOTAL FREE ENERGY PREDICTED BY IDOCK:   -5.88 KCAL/MOL
REMARK 923 INTER-LIGAND FREE ENERGY PREDICTED BY IDOCK:   -5.17 KCAL/MOL
REMARK 924 INTRA-LIGAND FREE ENERGY PREDICTED BY IDOCK:   -0.71 KCAL/MOL
REMARK 927      BINDING AFFINITY PREDICTED BY RF-SCORE:    0.00 PKD
ROOT
HETATM    1  C   UNL     1      -7.845   3.299  72.272  1.00  0.00    -0.059 C  
HETATM    2  O   UNL     1      -9.253   3.109  72.354  1.00  0.00    -0.093 OA 
ENDROOT
BRANCH   2   3
HETATM    3  C   UNL     1     -10.036   4.183  72.012  1.00  0.00    -0.180 A  
HETATM    4  C   UNL     1     -10.914   4.616  73.011  1.00  0.00    -0.251 A  
HETATM    5  O   UNL     1     -10.963   3.969  74.215  1.00  0.00    -0.177 OA 
HETATM    6  C   UNL     1     -11.765   5.695  72.813  1.00  0.00    -0.233 A  
HETATM    7  C   UNL     1     -11.771   6.338  71.576  1.00  0.00    -0.329 A  
HETATM    8  H   UNL     1     -11.559   4.263  74.894  1.00  0.00     0.000 HD 
HETATM    9  C   UNL     1     -10.935   5.896  70.538  1.00  0.00    -0.362 A  
HETATM   10  C   UNL     1     -10.042   4.835  70.778  1.00  0.00    -0.286 A  
BRANCH   9  11
HETATM   11  C   UNL     1     -11.023   6.531  69.175  1.00  0.00    -0.323 C  
BRANCH  11  12
HETATM   12  N   UNL     1      -9.857   7.322  68.868  1.00  0.00    -0.156 N  
HETATM   13  C   UNL     1      -9.825   8.659  69.185  1.00  0.00    -0.185 C  
HETATM   14  H   UNL     1      -9.053   6.888  68.414  1.00  0.00     0.000 HD 
HETATM   15  O   UNL     1     -10.752   9.244  69.735  1.00  0.00    -0.222 OA 
BRANCH  13  16
HETATM   16  C   UNL     1      -8.543   9.357  68.776  1.00  0.00    -0.127 C  
BRANCH  16  17
HETATM   17  C   UNL     1      -8.109   8.993  67.356  1.00  0.00    -0.108 C  
BRANCH  17  18
HETATM   18  C   UNL     1      -8.910   9.754  66.295  1.00  0.00    -0.165 C  
BRANCH  18  19
HETATM   19  C   UNL     1      -8.386  11.178  66.113  1.00  0.00    -0.144 C  
BRANCH  19  20
HETATM   20  C   UNL     1      -9.456  12.188  66.418  1.00  0.00    -0.238 C  
HETATM   21  C   UNL     1     -10.151  12.848  65.481  1.00  0.00    -0.270 C  
HETATM   22  C   UNL     1     -11.222  13.866  65.789  1.00  0.00    -0.303 C  
HETATM   23  C   UNL     1     -12.571  13.388  65.253  1.00  0.00    -0.518 C  
HETATM   24  C   UNL     1     -10.849  15.218  65.182  1.00  0.00    -0.441 C  
ENDBRANCH  19  20
ENDBRANCH  18  19
ENDBRANCH  17  18
ENDBRANCH  16  17
ENDBRANCH  13  16
ENDBRANCH  11  12
ENDBRANCH   9  11
ENDBRANCH   2   3
TORSDOF 8
ENDMDL
MODEL      318
REMARK 921   NORMALIZED FREE ENERGY PREDICTED BY IDOCK:   -3.18 KCAL/MOL
REMARK 922        TOTAL FREE ENERGY PREDICTED BY IDOCK:   -5.88 KCAL/MOL
REMARK 923 INTER-LIGAND FREE ENERGY PREDICTED BY IDOCK:   -4.41 KCAL/MOL
REMARK 924 INTRA-LIGAND FREE ENERGY PREDICTED BY IDOCK:   -1.47 KCAL/MOL
REMARK 927      BINDING AFFINITY PREDICTED BY RF-SCORE:    0.00 PKD
ROOT
HETATM    1  C   UNL     1      -9.396   2.872  65.637  1.00  0.00    -0.071 C  
HETATM    2  O   UNL     1      -9.618   3.519  66.884  1.00  0.00    -0.197 OA 
ENDROOT
BRANCH   2   3
HETATM    3  C   UNL     1      -9.229   4.832  66.971  1.00  0.00    -0.126 A  
HETATM    4  C   UNL     1      -9.075   5.318  68.274  1.00  0.00    -0.110 A  
HETATM    5  O   UNL     1      -9.327   4.508  69.347  1.00  0.00    -0.120 OA 
HETATM    6  C   UNL     1      -8.680   6.625  68.520  1.00  0.00    -0.123 A  
HETATM    7  C   UNL     1      -8.468   7.486  67.444  1.00  0.00    -0.115 A  
HETATM    8  H   UNL     1      -9.223   4.837  70.232  1.00  0.00     0.000 HD 
HETATM    9  C   UNL     1      -8.661   7.040  66.126  1.00  0.00    -0.148 A  
HETATM   10  C   UNL     1      -9.009   5.696  65.898  1.00  0.00    -0.160 A  
BRANCH   9  11
HETATM   11  C   UNL     1      -8.529   8.004  64.975  1.00  0.00    -0.071 C  
BRANCH  11  12
HETATM   12  N   UNL     1      -9.199   9.255  65.236  1.00  0.00    -0.312 N  
HETATM   13  C   UNL     1      -8.472  10.416  65.355  1.00  0.00    -0.168 C  
HETATM   14  H   UNL     1     -10.214   9.278  65.332  1.00  0.00     0.000 HD 
HETATM   15  O   UNL     1      -7.252  10.462  65.246  1.00  0.00    -0.143 OA 
BRANCH  13  16
HETATM   16  C   UNL     1      -9.316  11.640  65.653  1.00  0.00    -0.195 C  
BRANCH  16  17
HETATM   17  C   UNL     1      -9.041  12.211  67.045  1.00  0.00    -0.198 C  
BRANCH  17  18
HETATM   18  C   UNL     1     -10.320  12.332  67.881  1.00  0.00    -0.216 C  
BRANCH  18  19
HETATM   19  C   UNL     1     -11.321  11.230  67.535  1.00  0.00    -0.360 C  
BRANCH  19  20
HETATM   20  C   UNL     1     -11.127  10.031  68.419  1.00  0.00    -0.236 C  
HETATM   21  C   UNL     1     -10.859  10.103  69.730  1.00  0.00    -0.320 C  
HETATM   22  C   UNL     1     -10.660   8.897  70.615  1.00  0.00    -0.277 C  
HETATM   23  C   UNL     1     -11.740   8.853  71.695  1.00  0.00    -0.411 C  
HETATM   24  C   UNL     1      -9.268   8.934  71.245  1.00  0.00    -0.328 C  
ENDBRANCH  19  20
ENDBRANCH  18  19
ENDBRANCH  17  18
ENDBRANCH  16  17
ENDBRANCH  13  16
ENDBRANCH  11  12
ENDBRANCH   9  11
ENDBRANCH   2   3
TORSDOF 8
ENDMDL
MODEL      319
REMARK 921   NORMALIZED FREE ENERGY PREDICTED BY IDOCK:   -3.18 KCAL/MOL
REMARK 922        TOTAL FREE ENERGY PREDICTED BY IDOCK:   -5.87 KCAL/MOL
REMARK 923 INTER-LIGAND FREE ENERGY PREDICTED BY IDOCK:   -4.75 KCAL/MOL
REMARK 924 INTRA-LIGAND FREE ENERGY PREDICTED BY IDOCK:   -1.12 KCAL/MOL
REMARK 927      BINDING AFFINITY PREDICTED BY RF-SCORE:    0.00 PKD
ROOT
HETATM    1  C   UNL     1      -7.585   9.827  69.358  1.00  0.00    -0.104 C  
HETATM    2  O   UNL     1      -8.749  10.467  68.850  1.00  0.00    -0.138 OA 
ENDROOT
BRANCH   2   3
HETATM    3  C   UNL     1      -9.896  10.329  69.590  1.00  0.00    -0.198 A  
HETATM    4  C   UNL     1     -10.896  11.268  69.313  1.00  0.00    -0.212 A  
HETATM    5  O   UNL     1     -10.685  12.244  68.378  1.00  0.00    -0.217 OA 
HETATM    6  C   UNL     1     -12.114  11.251  69.978  1.00  0.00    -0.425 A  
HETATM    7  C   UNL     1     -12.333  10.299  70.973  1.00  0.00    -0.483 A  
HETATM    8  H   UNL     1     -11.364  12.882  68.189  1.00  0.00     0.000 HD 
HETATM    9  C   UNL     1     -11.331   9.373  71.306  1.00  0.00    -0.436 A  
HETATM   10  C   UNL     1     -10.124   9.374  70.582  1.00  0.00    -0.356 A  
BRANCH   9  11
HETATM   11  C   UNL     1     -11.537   8.416  72.451  1.00  0.00    -0.380 C  
BRANCH  11  12
HETATM   12  N   UNL     1     -11.350   7.043  72.051  1.00  0.00    -0.256 N  
HETATM   13  C   UNL     1     -10.811   6.134  72.930  1.00  0.00    -0.260 C  
HETATM   14  H   UNL     1     -11.618   6.745  71.113  1.00  0.00     0.000 HD 
HETATM   15  O   UNL     1     -10.472   6.421  74.073  1.00  0.00    -0.306 OA 
BRANCH  13  16
HETATM   16  C   UNL     1     -10.655   4.741  72.354  1.00  0.00    -0.246 C  
BRANCH  16  17
HETATM   17  C   UNL     1      -9.366   4.061  72.816  1.00  0.00    -0.150 C  
BRANCH  17  18
HETATM   18  C   UNL     1      -8.726   3.220  71.705  1.00  0.00    -0.119 C  
BRANCH  18  19
HETATM   19  C   UNL     1      -7.364   3.778  71.295  1.00  0.00    -0.040 C  
BRANCH  19  20
HETATM   20  C   UNL     1      -6.947   4.899  72.203  1.00  0.00    -0.065 C  
HETATM   21  C   UNL     1      -6.980   6.194  71.858  1.00  0.00    -0.077 C  
HETATM   22  C   UNL     1      -6.556   7.319  72.770  1.00  0.00    -0.063 C  
HETATM   23  C   UNL     1      -7.744   8.234  73.064  1.00  0.00    -0.180 C  
HETATM   24  C   UNL     1      -5.413   8.107  72.133  1.00  0.00    -0.037 C  
ENDBRANCH  19  20
ENDBRANCH  18  19
ENDBRANCH  17  18
ENDBRANCH  16  17
ENDBRANCH  13  16
ENDBRANCH  11  12
ENDBRANCH   9  11
ENDBRANCH   2   3
TORSDOF 8
ENDMDL
MODEL      320
REMARK 921   NORMALIZED FREE ENERGY PREDICTED BY IDOCK:   -3.17 KCAL/MOL
REMARK 922        TOTAL FREE ENERGY PREDICTED BY IDOCK:   -5.85 KCAL/MOL
REMARK 923 INTER-LIGAND FREE ENERGY PREDICTED BY IDOCK:   -4.92 KCAL/MOL
REMARK 924 INTRA-LIGAND FREE ENERGY PREDICTED BY IDOCK:   -0.93 KCAL/MOL
REMARK 927      BINDING AFFINITY PREDICTED BY RF-SCORE:    0.00 PKD
ROOT
HETATM    1  C   UNL     1     -10.864   5.927  69.154  1.00  0.00    -0.336 C  
HETATM    2  O   UNL     1     -11.181   7.259  69.541  1.00  0.00    -0.160 OA 
ENDROOT
BRANCH   2   3
HETATM    3  C   UNL     1     -10.403   8.254  69.004  1.00  0.00    -0.221 A  
HETATM    4  C   UNL     1      -9.833   9.126  69.938  1.00  0.00    -0.190 A  
HETATM    5  O   UNL     1     -10.083   8.968  71.273  1.00  0.00    -0.259 OA 
HETATM    6  C   UNL     1      -9.017  10.179  69.546  1.00  0.00    -0.205 A  
HETATM    7  C   UNL     1      -8.790  10.393  68.187  1.00  0.00    -0.132 A  
HETATM    8  H   UNL     1      -9.697   9.560  71.908  1.00  0.00     0.000 HD 
HETATM    9  C   UNL     1      -9.386   9.562  67.225  1.00  0.00    -0.161 A  
HETATM   10  C   UNL     1     -10.166   8.470  67.646  1.00  0.00    -0.297 A  
BRANCH   9  11
HETATM   11  C   UNL     1      -9.219   9.864  65.758  1.00  0.00    -0.179 C  
BRANCH  11  12
HETATM   12  N   UNL     1     -10.085  10.930  65.320  1.00  0.00    -0.264 N  
HETATM   13  C   UNL     1      -9.862  11.553  64.115  1.00  0.00    -0.255 C  
HETATM   14  H   UNL     1     -10.867  11.224  65.906  1.00  0.00     0.000 HD 
HETATM   15  O   UNL     1      -8.945  11.248  63.359  1.00  0.00    -0.135 OA 
BRANCH  13  16
HETATM   16  C   UNL     1     -10.841  12.668  63.809  1.00  0.00    -0.466 C  
BRANCH  16  17
HETATM   17  C   UNL     1     -11.192  13.492  65.048  1.00  0.00    -0.334 C  
BRANCH  17  18
HETATM   18  C   UNL     1     -10.919  14.986  64.844  1.00  0.00    -0.427 C  
BRANCH  18  19
HETATM   19  C   UNL     1      -9.857  15.499  65.817  1.00  0.00    -0.392 C  
BRANCH  19  20
HETATM   20  C   UNL     1      -9.300  14.376  66.645  1.00  0.00    -0.297 C  
HETATM   21  C   UNL     1      -8.014  14.281  67.009  1.00  0.00    -0.013 C  
HETATM   22  C   UNL     1      -7.455  13.150  67.837  1.00  0.00    -0.136 C  
HETATM   23  C   UNL     1      -6.918  13.685  69.164  1.00  0.00    -0.070 C  
HETATM   24  C   UNL     1      -6.353  12.428  67.061  1.00  0.00     0.011 C  
ENDBRANCH  19  20
ENDBRANCH  18  19
ENDBRANCH  17  18
ENDBRANCH  16  17
ENDBRANCH  13  16
ENDBRANCH  11  12
ENDBRANCH   9  11
ENDBRANCH   2   3
TORSDOF 8
ENDMDL
MODEL      321
REMARK 921   NORMALIZED FREE ENERGY PREDICTED BY IDOCK:   -3.16 KCAL/MOL
REMARK 922        TOTAL FREE ENERGY PREDICTED BY IDOCK:   -5.84 KCAL/MOL
REMARK 923 INTER-LIGAND FREE ENERGY PREDICTED BY IDOCK:   -5.15 KCAL/MOL
REMARK 924 INTRA-LIGAND FREE ENERGY PREDICTED BY IDOCK:   -0.69 KCAL/MOL
REMARK 927      BINDING AFFINITY PREDICTED BY RF-SCORE:    0.00 PKD
ROOT
HETATM    1  C   UNL     1      -6.608   4.480  66.586  1.00  0.00    -0.050 C  
HETATM    2  O   UNL     1      -7.570   4.675  67.615  1.00  0.00    -0.077 OA 
ENDROOT
BRANCH   2   3
HETATM    3  C   UNL     1      -8.430   5.733  67.457  1.00  0.00    -0.103 A  
HETATM    4  C   UNL     1      -9.759   5.380  67.198  1.00  0.00    -0.146 A  
HETATM    5  O   UNL     1     -10.117   4.064  67.099  1.00  0.00    -0.228 OA 
HETATM    6  C   UNL     1     -10.745   6.341  67.021  1.00  0.00    -0.435 A  
HETATM    7  C   UNL     1     -10.395   7.690  67.065  1.00  0.00    -0.400 A  
HETATM    8  H   UNL     1     -11.020   3.824  66.923  1.00  0.00     0.000 HD 
HETATM    9  C   UNL     1      -9.061   8.074  67.276  1.00  0.00    -0.153 A  
HETATM   10  C   UNL     1      -8.088   7.085  67.506  1.00  0.00    -0.113 A  
BRANCH   9  11
HETATM   11  C   UNL     1      -8.676   9.530  67.219  1.00  0.00    -0.128 C  
BRANCH  11  12
HETATM   12  N   UNL     1      -9.629  10.315  66.472  1.00  0.00    -0.175 N  
HETATM   13  C   UNL     1     -10.443  11.213  67.120  1.00  0.00    -0.231 C  
HETATM   14  H   UNL     1      -9.698  10.203  65.461  1.00  0.00     0.000 HD 
HETATM   15  O   UNL     1     -10.409  11.402  68.331  1.00  0.00    -0.181 OA 
BRANCH  13  16
HETATM   16  C   UNL     1     -11.405  11.942  66.202  1.00  0.00    -0.383 C  
BRANCH  16  17
HETATM   17  C   UNL     1     -10.744  12.379  64.895  1.00  0.00    -0.328 C  
BRANCH  17  18
HETATM   18  C   UNL     1     -11.074  13.834  64.541  1.00  0.00    -0.388 C  
BRANCH  18  19
HETATM   19  C   UNL     1     -11.701  14.570  65.724  1.00  0.00    -0.344 C  
BRANCH  19  20
HETATM   20  C   UNL     1     -10.661  15.331  66.496  1.00  0.00    -0.311 C  
HETATM   21  C   UNL     1      -9.437  15.611  66.027  1.00  0.00    -0.390 C  
HETATM   22  C   UNL     1      -8.392  16.372  66.806  1.00  0.00    -0.285 C  
HETATM   23  C   UNL     1      -8.048  17.677  66.088  1.00  0.00    -0.228 C  
HETATM   24  C   UNL     1      -7.143  15.510  66.986  1.00  0.00    -0.072 C  
ENDBRANCH  19  20
ENDBRANCH  18  19
ENDBRANCH  17  18
ENDBRANCH  16  17
ENDBRANCH  13  16
ENDBRANCH  11  12
ENDBRANCH   9  11
ENDBRANCH   2   3
TORSDOF 8
ENDMDL
MODEL      322
REMARK 921   NORMALIZED FREE ENERGY PREDICTED BY IDOCK:   -3.13 KCAL/MOL
REMARK 922        TOTAL FREE ENERGY PREDICTED BY IDOCK:   -5.80 KCAL/MOL
REMARK 923 INTER-LIGAND FREE ENERGY PREDICTED BY IDOCK:   -4.04 KCAL/MOL
REMARK 924 INTRA-LIGAND FREE ENERGY PREDICTED BY IDOCK:   -1.76 KCAL/MOL
REMARK 927      BINDING AFFINITY PREDICTED BY RF-SCORE:    0.00 PKD
ROOT
HETATM    1  C   UNL     1      -9.303   3.077  69.163  1.00  0.00    -0.149 C  
HETATM    2  O   UNL     1      -8.469   3.220  70.306  1.00  0.00    -0.054 OA 
ENDROOT
BRANCH   2   3
HETATM    3  C   UNL     1      -8.260   4.500  70.755  1.00  0.00    -0.079 A  
HETATM    4  C   UNL     1      -8.933   4.829  71.936  1.00  0.00    -0.127 A  
HETATM    5  O   UNL     1      -9.744   3.912  72.547  1.00  0.00    -0.131 OA 
HETATM    6  C   UNL     1      -8.815   6.085  72.515  1.00  0.00    -0.132 A  
HETATM    7  C   UNL     1      -8.035   7.054  71.883  1.00  0.00    -0.098 A  
HETATM    8  H   UNL     1     -10.201   4.135  73.349  1.00  0.00     0.000 HD 
HETATM    9  C   UNL     1      -7.386   6.767  70.672  1.00  0.00    -0.075 A  
HETATM   10  C   UNL     1      -7.476   5.472  70.131  1.00  0.00    -0.070 A  
BRANCH   9  11
HETATM   11  C   UNL     1      -6.631   7.851  69.945  1.00  0.00    -0.037 C  
BRANCH  11  12
HETATM   12  N   UNL     1      -7.466   8.557  69.004  1.00  0.00    -0.087 N  
HETATM   13  C   UNL     1      -7.390   8.271  67.662  1.00  0.00    -0.093 C  
HETATM   14  H   UNL     1      -8.116   9.270  69.337  1.00  0.00     0.000 HD 
HETATM   15  O   UNL     1      -6.637   7.424  67.194  1.00  0.00    -0.057 OA 
BRANCH  13  16
HETATM   16  C   UNL     1      -8.311   9.114  66.802  1.00  0.00    -0.123 C  
BRANCH  16  17
HETATM   17  C   UNL     1      -9.658   8.435  66.551  1.00  0.00    -0.304 C  
BRANCH  17  18
HETATM   18  C   UNL     1     -10.420   8.166  67.854  1.00  0.00    -0.259 C  
BRANCH  18  19
HETATM   19  C   UNL     1     -10.582   6.668  68.109  1.00  0.00    -0.294 C  
BRANCH  19  20
HETATM   20  C   UNL     1     -11.085   6.411  69.501  1.00  0.00    -0.460 C  
HETATM   21  C   UNL     1     -11.757   7.311  70.232  1.00  0.00    -0.164 C  
HETATM   22  C   UNL     1     -12.257   7.053  71.632  1.00  0.00    -0.395 C  
HETATM   23  C   UNL     1     -13.783   7.132  71.669  1.00  0.00    -0.406 C  
HETATM   24  C   UNL     1     -11.641   8.062  72.602  1.00  0.00    -0.448 C  
ENDBRANCH  19  20
ENDBRANCH  18  19
ENDBRANCH  17  18
ENDBRANCH  16  17
ENDBRANCH  13  16
ENDBRANCH  11  12
ENDBRANCH   9  11
ENDBRANCH   2   3
TORSDOF 8
ENDMDL
MODEL      323
REMARK 921   NORMALIZED FREE ENERGY PREDICTED BY IDOCK:   -3.11 KCAL/MOL
REMARK 922        TOTAL FREE ENERGY PREDICTED BY IDOCK:   -5.78 KCAL/MOL
REMARK 923 INTER-LIGAND FREE ENERGY PREDICTED BY IDOCK:   -4.78 KCAL/MOL
REMARK 924 INTRA-LIGAND FREE ENERGY PREDICTED BY IDOCK:   -0.99 KCAL/MOL
REMARK 927      BINDING AFFINITY PREDICTED BY RF-SCORE:    0.00 PKD
ROOT
HETATM    1  C   UNL     1      -5.385   8.545  67.103  1.00  0.00    -0.037 C  
HETATM    2  O   UNL     1      -6.652   7.906  67.011  1.00  0.00    -0.057 OA 
ENDROOT
BRANCH   2   3
HETATM    3  C   UNL     1      -7.310   7.677  68.193  1.00  0.00    -0.099 A  
HETATM    4  C   UNL     1      -7.354   6.338  68.594  1.00  0.00    -0.086 A  
HETATM    5  O   UNL     1      -6.787   5.365  67.818  1.00  0.00    -0.057 OA 
HETATM    6  C   UNL     1      -7.981   5.952  69.771  1.00  0.00    -0.101 A  
HETATM    7  C   UNL     1      -8.613   6.919  70.553  1.00  0.00    -0.142 A  
HETATM    8  H   UNL     1      -6.816   4.455  68.091  1.00  0.00     0.000 HD 
HETATM    9  C   UNL     1      -8.626   8.264  70.151  1.00  0.00    -0.128 A  
HETATM   10  C   UNL     1      -7.939   8.640  68.983  1.00  0.00    -0.115 A  
BRANCH   9  11
HETATM   11  C   UNL     1      -9.398   9.283  70.948  1.00  0.00    -0.245 C  
BRANCH  11  12
HETATM   12  N   UNL     1     -10.153  10.175  70.103  1.00  0.00    -0.409 N  
HETATM   13  C   UNL     1     -11.407  10.592  70.482  1.00  0.00    -0.314 C  
HETATM   14  H   UNL     1      -9.755  10.498  69.221  1.00  0.00     0.000 HD 
HETATM   15  O   UNL     1     -11.943  10.247  71.530  1.00  0.00    -0.358 OA 
BRANCH  13  16
HETATM   16  C   UNL     1     -12.080  11.505  69.477  1.00  0.00    -0.351 C  
BRANCH  16  17
HETATM   17  C   UNL     1     -11.727  11.144  68.034  1.00  0.00    -0.288 C  
BRANCH  17  18
HETATM   18  C   UNL     1     -11.336  12.377  67.211  1.00  0.00    -0.384 C  
BRANCH  18  19
HETATM   19  C   UNL     1      -9.849  12.698  67.355  1.00  0.00    -0.205 C  
BRANCH  19  20
HETATM   20  C   UNL     1      -9.648  13.998  68.081  1.00  0.00    -0.220 C  
HETATM   21  C   UNL     1     -10.637  14.857  68.365  1.00  0.00    -0.244 C  
HETATM   22  C   UNL     1     -10.434  16.165  69.090  1.00  0.00    -0.265 C  
HETATM   23  C   UNL     1     -11.197  16.157  70.414  1.00  0.00    -0.394 C  
HETATM   24  C   UNL     1     -10.892  17.328  68.210  1.00  0.00    -0.287 C  
ENDBRANCH  19  20
ENDBRANCH  18  19
ENDBRANCH  17  18
ENDBRANCH  16  17
ENDBRANCH  13  16
ENDBRANCH  11  12
ENDBRANCH   9  11
ENDBRANCH   2   3
TORSDOF 8
ENDMDL
MODEL      324
REMARK 921   NORMALIZED FREE ENERGY PREDICTED BY IDOCK:   -3.11 KCAL/MOL
REMARK 922        TOTAL FREE ENERGY PREDICTED BY IDOCK:   -5.77 KCAL/MOL
REMARK 923 INTER-LIGAND FREE ENERGY PREDICTED BY IDOCK:   -5.35 KCAL/MOL
REMARK 924 INTRA-LIGAND FREE ENERGY PREDICTED BY IDOCK:   -0.41 KCAL/MOL
REMARK 927      BINDING AFFINITY PREDICTED BY RF-SCORE:    0.00 PKD
ROOT
HETATM    1  C   UNL     1     -13.896   7.346  71.484  1.00  0.00    -0.374 C  
HETATM    2  O   UNL     1     -12.608   6.788  71.713  1.00  0.00    -0.357 OA 
ENDROOT
BRANCH   2   3
HETATM    3  C   UNL     1     -11.534   7.546  71.321  1.00  0.00    -0.274 A  
HETATM    4  C   UNL     1     -10.675   7.933  72.356  1.00  0.00    -0.305 A  
HETATM    5  O   UNL     1     -10.944   7.572  73.647  1.00  0.00    -0.526 OA 
HETATM    6  C   UNL     1      -9.542   8.698  72.113  1.00  0.00    -0.378 A  
HETATM    7  C   UNL     1      -9.275   9.123  70.811  1.00  0.00    -0.321 A  
HETATM    8  H   UNL     1     -10.361   7.834  74.350  1.00  0.00     0.000 HD 
HETATM    9  C   UNL     1     -10.144   8.790  69.760  1.00  0.00    -0.198 A  
HETATM   10  C   UNL     1     -11.257   7.969  70.020  1.00  0.00    -0.091 A  
BRANCH   9  11
HETATM   11  C   UNL     1      -9.903   9.339  68.378  1.00  0.00    -0.155 C  
BRANCH  11  12
HETATM   12  N   UNL     1      -8.529   9.733  68.182  1.00  0.00    -0.114 N  
HETATM   13  C   UNL     1      -8.128  10.269  66.982  1.00  0.00    -0.121 C  
HETATM   14  H   UNL     1      -7.854   9.615  68.938  1.00  0.00     0.000 HD 
HETATM   15  O   UNL     1      -8.887  10.444  66.034  1.00  0.00    -0.151 OA 
BRANCH  13  16
HETATM   16  C   UNL     1      -6.652  10.609  66.924  1.00  0.00    -0.086 C  
BRANCH  16  17
HETATM   17  C   UNL     1      -6.210  11.486  68.096  1.00  0.00    -0.045 C  
BRANCH  17  18
HETATM   18  C   UNL     1      -7.264  12.538  68.459  1.00  0.00    -0.110 C  
BRANCH  18  19
HETATM   19  C   UNL     1      -7.287  13.680  67.443  1.00  0.00    -0.127 C  
BRANCH  19  20
HETATM   20  C   UNL     1      -8.655  14.296  67.358  1.00  0.00    -0.223 C  
HETATM   21  C   UNL     1      -8.965  15.321  66.553  1.00  0.00    -0.340 C  
HETATM   22  C   UNL     1     -10.338  15.942  66.472  1.00  0.00    -0.304 C  
HETATM   23  C   UNL     1     -10.915  15.761  65.069  1.00  0.00    -0.431 C  
HETATM   24  C   UNL     1     -10.265  17.424  66.839  1.00  0.00    -0.322 C  
ENDBRANCH  19  20
ENDBRANCH  18  19
ENDBRANCH  17  18
ENDBRANCH  16  17
ENDBRANCH  13  16
ENDBRANCH  11  12
ENDBRANCH   9  11
ENDBRANCH   2   3
TORSDOF 8
ENDMDL
MODEL      325
REMARK 921   NORMALIZED FREE ENERGY PREDICTED BY IDOCK:   -3.11 KCAL/MOL
REMARK 922        TOTAL FREE ENERGY PREDICTED BY IDOCK:   -5.77 KCAL/MOL
REMARK 923 INTER-LIGAND FREE ENERGY PREDICTED BY IDOCK:   -5.15 KCAL/MOL
REMARK 924 INTRA-LIGAND FREE ENERGY PREDICTED BY IDOCK:   -0.61 KCAL/MOL
REMARK 927      BINDING AFFINITY PREDICTED BY RF-SCORE:    0.00 PKD
ROOT
HETATM    1  C   UNL     1     -11.095   6.315  68.747  1.00  0.00    -0.346 C  
HETATM    2  O   UNL     1     -10.633   7.611  69.109  1.00  0.00    -0.218 OA 
ENDROOT
BRANCH   2   3
HETATM    3  C   UNL     1      -9.560   8.097  68.406  1.00  0.00    -0.147 A  
HETATM    4  C   UNL     1      -8.309   7.683  68.877  1.00  0.00    -0.129 A  
HETATM    5  O   UNL     1      -8.218   6.871  69.974  1.00  0.00    -0.129 OA 
HETATM    6  C   UNL     1      -7.131   8.088  68.264  1.00  0.00    -0.088 A  
HETATM    7  C   UNL     1      -7.195   8.959  67.176  1.00  0.00    -0.083 A  
HETATM    8  H   UNL     1      -7.369   6.590  70.294  1.00  0.00     0.000 HD 
HETATM    9  C   UNL     1      -8.434   9.428  66.711  1.00  0.00    -0.129 A  
HETATM   10  C   UNL     1      -9.618   8.962  67.313  1.00  0.00    -0.212 A  
BRANCH   9  11
HETATM   11  C   UNL     1      -8.488  10.447  65.602  1.00  0.00    -0.165 C  
BRANCH  11  12
HETATM   12  N   UNL     1      -9.549  11.404  65.795  1.00  0.00    -0.227 N  
HETATM   13  C   UNL     1     -10.236  11.903  64.713  1.00  0.00    -0.276 C  
HETATM   14  H   UNL     1      -9.792  11.711  66.737  1.00  0.00     0.000 HD 
HETATM   15  O   UNL     1     -10.001  11.573  63.555  1.00  0.00    -0.323 OA 
BRANCH  13  16
HETATM   16  C   UNL     1     -11.303  12.916  65.077  1.00  0.00    -0.338 C  
BRANCH  16  17
HETATM   17  C   UNL     1     -12.000  12.579  66.395  1.00  0.00    -0.386 C  
BRANCH  17  18
HETATM   18  C   UNL     1     -11.688  13.604  67.491  1.00  0.00    -0.406 C  
BRANCH  18  19
HETATM   19  C   UNL     1     -11.362  14.975  66.899  1.00  0.00    -0.302 C  
BRANCH  19  20
HETATM   20  C   UNL     1     -10.502  15.775  67.835  1.00  0.00    -0.270 C  
HETATM   21  C   UNL     1      -9.463  16.524  67.442  1.00  0.00    -0.228 C  
HETATM   22  C   UNL     1      -8.597  17.323  68.384  1.00  0.00    -0.251 C  
HETATM   23  C   UNL     1      -8.711  18.814  68.069  1.00  0.00    -0.324 C  
HETATM   24  C   UNL     1      -7.144  16.860  68.280  1.00  0.00    -0.179 C  
ENDBRANCH  19  20
ENDBRANCH  18  19
ENDBRANCH  17  18
ENDBRANCH  16  17
ENDBRANCH  13  16
ENDBRANCH  11  12
ENDBRANCH   9  11
ENDBRANCH   2   3
TORSDOF 8
ENDMDL
MODEL      326
REMARK 921   NORMALIZED FREE ENERGY PREDICTED BY IDOCK:   -3.09 KCAL/MOL
REMARK 922        TOTAL FREE ENERGY PREDICTED BY IDOCK:   -5.74 KCAL/MOL
REMARK 923 INTER-LIGAND FREE ENERGY PREDICTED BY IDOCK:   -5.21 KCAL/MOL
REMARK 924 INTRA-LIGAND FREE ENERGY PREDICTED BY IDOCK:   -0.54 KCAL/MOL
REMARK 927      BINDING AFFINITY PREDICTED BY RF-SCORE:    0.00 PKD
ROOT
HETATM    1  C   UNL     1     -12.534  14.550  71.652  1.00  0.00    -0.352 C  
HETATM    2  O   UNL     1     -12.468  15.511  70.605  1.00  0.00    -0.392 OA 
ENDROOT
BRANCH   2   3
HETATM    3  C   UNL     1     -11.877  15.104  69.436  1.00  0.00    -0.330 A  
HETATM    4  C   UNL     1     -10.963  16.010  68.889  1.00  0.00    -0.309 A  
HETATM    5  O   UNL     1     -10.728  17.209  69.504  1.00  0.00    -0.376 OA 
HETATM    6  C   UNL     1     -10.281  15.734  67.712  1.00  0.00    -0.251 A  
HETATM    7  C   UNL     1     -10.543  14.541  67.038  1.00  0.00    -0.278 A  
HETATM    8  H   UNL     1     -10.106  17.825  69.133  1.00  0.00     0.000 HD 
HETATM    9  C   UNL     1     -11.490  13.634  67.538  1.00  0.00    -0.360 A  
HETATM   10  C   UNL     1     -12.130  13.909  68.761  1.00  0.00    -0.344 A  
BRANCH   9  11
HETATM   11  C   UNL     1     -11.840  12.397  66.751  1.00  0.00    -0.315 C  
BRANCH  11  12
HETATM   12  N   UNL     1     -10.671  11.636  66.386  1.00  0.00    -0.262 N  
HETATM   13  C   UNL     1     -10.102  10.767  67.286  1.00  0.00    -0.196 C  
HETATM   14  H   UNL     1     -10.265  11.743  65.456  1.00  0.00     0.000 HD 
HETATM   15  O   UNL     1     -10.541  10.586  68.417  1.00  0.00    -0.176 OA 
BRANCH  13  16
HETATM   16  C   UNL     1      -8.867  10.062  66.763  1.00  0.00    -0.144 C  
BRANCH  16  17
HETATM   17  C   UNL     1      -8.946   8.545  66.935  1.00  0.00    -0.166 C  
BRANCH  17  18
HETATM   18  C   UNL     1      -7.661   7.965  67.537  1.00  0.00    -0.117 C  
BRANCH  18  19
HETATM   19  C   UNL     1      -7.661   6.437  67.490  1.00  0.00    -0.101 C  
BRANCH  19  20
HETATM   20  C   UNL     1      -8.616   5.868  68.500  1.00  0.00    -0.110 C  
HETATM   21  C   UNL     1      -8.256   5.027  69.479  1.00  0.00    -0.085 C  
HETATM   22  C   UNL     1      -9.218   4.452  70.490  1.00  0.00    -0.192 C  
HETATM   23  C   UNL     1      -8.841   4.915  71.897  1.00  0.00    -0.140 C  
HETATM   24  C   UNL     1      -9.216   2.926  70.406  1.00  0.00    -0.211 C  
ENDBRANCH  19  20
ENDBRANCH  18  19
ENDBRANCH  17  18
ENDBRANCH  16  17
ENDBRANCH  13  16
ENDBRANCH  11  12
ENDBRANCH   9  11
ENDBRANCH   2   3
TORSDOF 8
ENDMDL
MODEL      327
REMARK 921   NORMALIZED FREE ENERGY PREDICTED BY IDOCK:   -3.09 KCAL/MOL
REMARK 922        TOTAL FREE ENERGY PREDICTED BY IDOCK:   -5.74 KCAL/MOL
REMARK 923 INTER-LIGAND FREE ENERGY PREDICTED BY IDOCK:   -5.13 KCAL/MOL
REMARK 924 INTRA-LIGAND FREE ENERGY PREDICTED BY IDOCK:   -0.61 KCAL/MOL
REMARK 927      BINDING AFFINITY PREDICTED BY RF-SCORE:    0.00 PKD
ROOT
HETATM    1  C   UNL     1      -9.509   3.261  65.271  1.00  0.00    -0.127 C  
HETATM    2  O   UNL     1      -8.954   3.794  66.467  1.00  0.00    -0.122 OA 
ENDROOT
BRANCH   2   3
HETATM    3  C   UNL     1      -8.277   4.983  66.352  1.00  0.00    -0.108 A  
HETATM    4  C   UNL     1      -6.986   4.982  66.891  1.00  0.00    -0.064 A  
HETATM    5  O   UNL     1      -6.491   3.860  67.496  1.00  0.00    -0.036 OA 
HETATM    6  C   UNL     1      -6.179   6.110  66.844  1.00  0.00    -0.032 A  
HETATM    7  C   UNL     1      -6.680   7.283  66.279  1.00  0.00    -0.053 A  
HETATM    8  H   UNL     1      -5.614   3.859  67.861  1.00  0.00     0.000 HD 
HETATM    9  C   UNL     1      -7.989   7.327  65.773  1.00  0.00    -0.122 A  
HETATM   10  C   UNL     1      -8.771   6.157  65.783  1.00  0.00    -0.151 A  
BRANCH   9  11
HETATM   11  C   UNL     1      -8.558   8.625  65.260  1.00  0.00    -0.180 C  
BRANCH  11  12
HETATM   12  N   UNL     1      -8.924   9.519  66.331  1.00  0.00    -0.149 N  
HETATM   13  C   UNL     1      -9.849  10.512  66.117  1.00  0.00    -0.217 C  
HETATM   14  H   UNL     1      -8.494   9.413  67.250  1.00  0.00     0.000 HD 
HETATM   15  O   UNL     1     -10.408  10.692  65.040  1.00  0.00    -0.310 OA 
BRANCH  13  16
HETATM   16  C   UNL     1     -10.108  11.382  67.330  1.00  0.00    -0.208 C  
BRANCH  16  17
HETATM   17  C   UNL     1     -11.594  11.686  67.523  1.00  0.00    -0.345 C  
BRANCH  17  18
HETATM   18  C   UNL     1     -11.904  13.178  67.355  1.00  0.00    -0.412 C  
BRANCH  18  19
HETATM   19  C   UNL     1     -10.872  14.048  68.072  1.00  0.00    -0.257 C  
BRANCH  19  20
HETATM   20  C   UNL     1     -11.194  14.169  69.534  1.00  0.00    -0.267 C  
HETATM   21  C   UNL     1     -12.435  14.100  70.036  1.00  0.00    -0.352 C  
HETATM   22  C   UNL     1     -12.758  14.226  71.504  1.00  0.00    -0.425 C  
HETATM   23  C   UNL     1     -13.382  12.930  72.020  1.00  0.00    -0.579 C  
HETATM   24  C   UNL     1     -13.700  15.407  71.734  1.00  0.00    -0.610 C  
ENDBRANCH  19  20
ENDBRANCH  18  19
ENDBRANCH  17  18
ENDBRANCH  16  17
ENDBRANCH  13  16
ENDBRANCH  11  12
ENDBRANCH   9  11
ENDBRANCH   2   3
TORSDOF 8
ENDMDL
MODEL      328
REMARK 921   NORMALIZED FREE ENERGY PREDICTED BY IDOCK:   -3.08 KCAL/MOL
REMARK 922        TOTAL FREE ENERGY PREDICTED BY IDOCK:   -5.73 KCAL/MOL
REMARK 923 INTER-LIGAND FREE ENERGY PREDICTED BY IDOCK:   -5.00 KCAL/MOL
REMARK 924 INTRA-LIGAND FREE ENERGY PREDICTED BY IDOCK:   -0.73 KCAL/MOL
REMARK 927      BINDING AFFINITY PREDICTED BY RF-SCORE:    0.00 PKD
ROOT
HETATM    1  C   UNL     1     -12.626  14.652  65.804  1.00  0.00    -0.040 C  
HETATM    2  O   UNL     1     -11.546  13.950  65.201  1.00  0.00    -0.316 OA 
ENDROOT
BRANCH   2   3
HETATM    3  C   UNL     1     -10.842  13.096  66.013  1.00  0.00    -0.272 A  
HETATM    4  C   UNL     1      -9.591  13.568  66.424  1.00  0.00    -0.259 A  
HETATM    5  O   UNL     1      -9.141  14.788  66.001  1.00  0.00    -0.486 OA 
HETATM    6  C   UNL     1      -8.767  12.818  67.251  1.00  0.00    -0.200 A  
HETATM    7  C   UNL     1      -9.181  11.548  67.653  1.00  0.00    -0.171 A  
HETATM    8  H   UNL     1      -8.291  15.110  66.280  1.00  0.00     0.000 HD 
HETATM    9  C   UNL     1     -10.411  11.029  67.218  1.00  0.00    -0.249 A  
HETATM   10  C   UNL     1     -11.253  11.827  66.423  1.00  0.00    -0.382 A  
BRANCH   9  11
HETATM   11  C   UNL     1     -10.803   9.617  67.572  1.00  0.00    -0.198 C  
BRANCH  11  12
HETATM   12  N   UNL     1      -9.935   9.048  68.573  1.00  0.00    -0.170 N  
HETATM   13  C   UNL     1     -10.434   8.704  69.807  1.00  0.00    -0.220 C  
HETATM   14  H   UNL     1      -8.947   8.899  68.365  1.00  0.00     0.000 HD 
HETATM   15  O   UNL     1     -11.610   8.850  70.122  1.00  0.00    -0.126 OA 
BRANCH  13  16
HETATM   16  C   UNL     1      -9.394   8.142  70.756  1.00  0.00    -0.174 C  
BRANCH  16  17
HETATM   17  C   UNL     1      -9.526   8.714  72.168  1.00  0.00    -0.373 C  
BRANCH  17  18
HETATM   18  C   UNL     1      -8.995   7.747  73.233  1.00  0.00    -0.289 C  
BRANCH  18  19
HETATM   19  C   UNL     1      -7.918   6.824  72.663  1.00  0.00    -0.100 C  
BRANCH  19  20
HETATM   20  C   UNL     1      -8.231   5.385  72.962  1.00  0.00    -0.112 C  
HETATM   21  C   UNL     1      -9.386   4.788  72.637  1.00  0.00    -0.150 C  
HETATM   22  C   UNL     1      -9.701   3.344  72.942  1.00  0.00    -0.185 C  
HETATM   23  C   UNL     1      -9.906   2.565  71.644  1.00  0.00    -0.216 C  
HETATM   24  C   UNL     1     -10.945   3.255  73.827  1.00  0.00    -0.310 C  
ENDBRANCH  19  20
ENDBRANCH  18  19
ENDBRANCH  17  18
ENDBRANCH  16  17
ENDBRANCH  13  16
ENDBRANCH  11  12
ENDBRANCH   9  11
ENDBRANCH   2   3
TORSDOF 8
ENDMDL
MODEL      329
REMARK 921   NORMALIZED FREE ENERGY PREDICTED BY IDOCK:   -3.08 KCAL/MOL
REMARK 922        TOTAL FREE ENERGY PREDICTED BY IDOCK:   -5.73 KCAL/MOL
REMARK 923 INTER-LIGAND FREE ENERGY PREDICTED BY IDOCK:   -3.99 KCAL/MOL
REMARK 924 INTRA-LIGAND FREE ENERGY PREDICTED BY IDOCK:   -1.74 KCAL/MOL
REMARK 927      BINDING AFFINITY PREDICTED BY RF-SCORE:    0.00 PKD
ROOT
HETATM    1  C   UNL     1      -9.242   3.620  68.199  1.00  0.00    -0.169 C  
HETATM    2  O   UNL     1      -8.236   3.407  69.182  1.00  0.00    -0.059 OA 
ENDROOT
BRANCH   2   3
HETATM    3  C   UNL     1      -7.482   4.498  69.533  1.00  0.00    -0.051 A  
HETATM    4  C   UNL     1      -6.235   4.581  68.905  1.00  0.00    -0.031 A  
HETATM    5  O   UNL     1      -5.837   3.608  68.030  1.00  0.00    -0.024 OA 
HETATM    6  C   UNL     1      -5.363   5.632  69.155  1.00  0.00    -0.004 A  
HETATM    7  C   UNL     1      -5.724   6.608  70.083  1.00  0.00    -0.019 A  
HETATM    8  H   UNL     1      -4.990   3.664  67.602  1.00  0.00     0.000 HD 
HETATM    9  C   UNL     1      -6.949   6.526  70.764  1.00  0.00    -0.068 A  
HETATM   10  C   UNL     1      -7.840   5.482  70.456  1.00  0.00    -0.098 A  
BRANCH   9  11
HETATM   11  C   UNL     1      -7.284   7.528  71.839  1.00  0.00    -0.064 C  
BRANCH  11  12
HETATM   12  N   UNL     1      -8.702   7.600  72.091  1.00  0.00    -0.117 N  
HETATM   13  C   UNL     1      -9.196   7.330  73.345  1.00  0.00    -0.184 C  
HETATM   14  H   UNL     1      -9.341   7.853  71.336  1.00  0.00     0.000 HD 
HETATM   15  O   UNL     1      -8.487   7.027  74.298  1.00  0.00    -0.141 OA 
BRANCH  13  16
HETATM   16  C   UNL     1     -10.706   7.424  73.443  1.00  0.00    -0.407 C  
BRANCH  16  17
HETATM   17  C   UNL     1     -11.312   8.264  72.319  1.00  0.00    -0.446 C  
BRANCH  17  18
HETATM   18  C   UNL     1     -12.308   7.462  71.472  1.00  0.00    -0.385 C  
BRANCH  18  19
HETATM   19  C   UNL     1     -11.653   6.225  70.859  1.00  0.00    -0.338 C  
BRANCH  19  20
HETATM   20  C   UNL     1     -11.349   6.443  69.404  1.00  0.00    -0.443 C  
HETATM   21  C   UNL     1     -10.442   7.320  68.952  1.00  0.00    -0.216 C  
HETATM   22  C   UNL     1     -10.141   7.541  67.490  1.00  0.00    -0.261 C  
HETATM   23  C   UNL     1      -8.691   7.166  67.188  1.00  0.00    -0.121 C  
HETATM   24  C   UNL     1     -10.411   8.999  67.115  1.00  0.00    -0.342 C  
ENDBRANCH  19  20
ENDBRANCH  18  19
ENDBRANCH  17  18
ENDBRANCH  16  17
ENDBRANCH  13  16
ENDBRANCH  11  12
ENDBRANCH   9  11
ENDBRANCH   2   3
TORSDOF 8
ENDMDL
MODEL      330
REMARK 921   NORMALIZED FREE ENERGY PREDICTED BY IDOCK:   -3.06 KCAL/MOL
REMARK 922        TOTAL FREE ENERGY PREDICTED BY IDOCK:   -5.71 KCAL/MOL
REMARK 923 INTER-LIGAND FREE ENERGY PREDICTED BY IDOCK:   -4.95 KCAL/MOL
REMARK 924 INTRA-LIGAND FREE ENERGY PREDICTED BY IDOCK:   -0.76 KCAL/MOL
REMARK 927      BINDING AFFINITY PREDICTED BY RF-SCORE:    0.00 PKD
ROOT
HETATM    1  C   UNL     1     -13.882   8.657  71.817  1.00  0.00    -0.425 C  
HETATM    2  O   UNL     1     -12.846   9.553  72.202  1.00  0.00    -0.388 OA 
ENDROOT
BRANCH   2   3
HETATM    3  C   UNL     1     -12.354  10.378  71.222  1.00  0.00    -0.401 A  
HETATM    4  C   UNL     1     -12.748  11.716  71.323  1.00  0.00    -0.340 A  
HETATM    5  O   UNL     1     -13.581  12.116  72.332  1.00  0.00    -0.594 OA 
HETATM    6  C   UNL     1     -12.326  12.670  70.407  1.00  0.00    -0.315 A  
HETATM    7  C   UNL     1     -11.520  12.277  69.339  1.00  0.00    -0.341 A  
HETATM    8  H   UNL     1     -13.849  13.025  72.402  1.00  0.00     0.000 HD 
HETATM    9  C   UNL     1     -11.147  10.932  69.185  1.00  0.00    -0.301 A  
HETATM   10  C   UNL     1     -11.542   9.992  70.154  1.00  0.00    -0.320 A  
BRANCH   9  11
HETATM   11  C   UNL     1     -10.362  10.500  67.973  1.00  0.00    -0.181 C  
BRANCH  11  12
HETATM   12  N   UNL     1      -8.950  10.400  68.247  1.00  0.00    -0.132 N  
HETATM   13  C   UNL     1      -8.126   9.709  67.391  1.00  0.00    -0.110 C  
HETATM   14  H   UNL     1      -8.561  10.845  69.079  1.00  0.00     0.000 HD 
HETATM   15  O   UNL     1      -8.525   9.156  66.372  1.00  0.00    -0.119 OA 
BRANCH  13  16
HETATM   16  C   UNL     1      -6.676   9.673  67.830  1.00  0.00    -0.066 C  
BRANCH  16  17
HETATM   17  C   UNL     1      -6.337   8.410  68.621  1.00  0.00    -0.053 C  
BRANCH  17  18
HETATM   18  C   UNL     1      -5.617   8.728  69.936  1.00  0.00    -0.028 C  
BRANCH  18  19
HETATM   19  C   UNL     1      -6.553   9.404  70.938  1.00  0.00    -0.098 C  
BRANCH  19  20
HETATM   20  C   UNL     1      -7.834   8.632  71.081  1.00  0.00    -0.139 C  
HETATM   21  C   UNL     1      -7.915   7.296  71.005  1.00  0.00    -0.098 C  
HETATM   22  C   UNL     1      -9.203   6.522  71.144  1.00  0.00    -0.156 C  
HETATM   23  C   UNL     1      -9.139   5.608  72.366  1.00  0.00    -0.144 C  
HETATM   24  C   UNL     1      -9.465   5.709  69.876  1.00  0.00    -0.197 C  
ENDBRANCH  19  20
ENDBRANCH  18  19
ENDBRANCH  17  18
ENDBRANCH  16  17
ENDBRANCH  13  16
ENDBRANCH  11  12
ENDBRANCH   9  11
ENDBRANCH   2   3
TORSDOF 8
ENDMDL
MODEL      331
REMARK 921   NORMALIZED FREE ENERGY PREDICTED BY IDOCK:   -3.06 KCAL/MOL
REMARK 922        TOTAL FREE ENERGY PREDICTED BY IDOCK:   -5.70 KCAL/MOL
REMARK 923 INTER-LIGAND FREE ENERGY PREDICTED BY IDOCK:   -4.93 KCAL/MOL
REMARK 924 INTRA-LIGAND FREE ENERGY PREDICTED BY IDOCK:   -0.77 KCAL/MOL
REMARK 927      BINDING AFFINITY PREDICTED BY RF-SCORE:    0.00 PKD
ROOT
HETATM    1  C   UNL     1     -10.959   4.563  73.773  1.00  0.00    -0.286 C  
HETATM    2  O   UNL     1     -10.169   3.913  72.785  1.00  0.00    -0.154 OA 
ENDROOT
BRANCH   2   3
HETATM    3  C   UNL     1     -10.234   4.426  71.514  1.00  0.00    -0.097 A  
HETATM    4  C   UNL     1      -9.659   3.624  70.523  1.00  0.00    -0.186 A  
HETATM    5  O   UNL     1      -9.070   2.435  70.853  1.00  0.00    -0.089 OA 
HETATM    6  C   UNL     1      -9.654   4.008  69.189  1.00  0.00    -0.233 A  
HETATM    7  C   UNL     1     -10.201   5.241  68.834  1.00  0.00    -0.248 A  
HETATM    8  H   UNL     1      -8.680   1.889  70.180  1.00  0.00     0.000 HD 
HETATM    9  C   UNL     1     -10.743   6.089  69.814  1.00  0.00    -0.399 A  
HETATM   10  C   UNL     1     -10.786   5.656  71.152  1.00  0.00    -0.288 A  
BRANCH   9  11
HETATM   11  C   UNL     1     -11.238   7.461  69.435  1.00  0.00     0.061 C  
BRANCH  11  12
HETATM   12  N   UNL     1     -10.293   8.170  68.608  1.00  0.00    -0.208 N  
HETATM   13  C   UNL     1      -9.896   9.441  68.946  1.00  0.00    -0.171 C  
HETATM   14  H   UNL     1      -9.919   7.726  67.769  1.00  0.00     0.000 HD 
HETATM   15  O   UNL     1     -10.301  10.032  69.942  1.00  0.00    -0.243 OA 
BRANCH  13  16
HETATM   16  C   UNL     1      -8.920  10.061  67.966  1.00  0.00    -0.128 C  
BRANCH  16  17
HETATM   17  C   UNL     1      -8.138  11.223  68.578  1.00  0.00    -0.148 C  
BRANCH  17  18
HETATM   18  C   UNL     1      -8.640  12.583  68.078  1.00  0.00    -0.185 C  
BRANCH  18  19
HETATM   19  C   UNL     1      -9.869  12.432  67.183  1.00  0.00    -0.206 C  
BRANCH  19  20
HETATM   20  C   UNL     1     -11.069  13.090  67.801  1.00  0.00    -0.291 C  
HETATM   21  C   UNL     1     -11.071  13.651  69.019  1.00  0.00    -0.295 C  
HETATM   22  C   UNL     1     -12.278  14.308  69.640  1.00  0.00    -0.371 C  
HETATM   23  C   UNL     1     -12.005  15.792  69.880  1.00  0.00    -0.346 C  
HETATM   24  C   UNL     1     -12.639  13.608  70.950  1.00  0.00    -0.421 C  
ENDBRANCH  19  20
ENDBRANCH  18  19
ENDBRANCH  17  18
ENDBRANCH  16  17
ENDBRANCH  13  16
ENDBRANCH  11  12
ENDBRANCH   9  11
ENDBRANCH   2   3
TORSDOF 8
ENDMDL
MODEL      332
REMARK 921   NORMALIZED FREE ENERGY PREDICTED BY IDOCK:   -3.05 KCAL/MOL
REMARK 922        TOTAL FREE ENERGY PREDICTED BY IDOCK:   -5.69 KCAL/MOL
REMARK 923 INTER-LIGAND FREE ENERGY PREDICTED BY IDOCK:   -4.38 KCAL/MOL
REMARK 924 INTRA-LIGAND FREE ENERGY PREDICTED BY IDOCK:   -1.31 KCAL/MOL
REMARK 927      BINDING AFFINITY PREDICTED BY RF-SCORE:    0.00 PKD
ROOT
HETATM    1  C   UNL     1     -14.039   9.075  72.466  1.00  0.00    -0.353 C  
HETATM    2  O   UNL     1     -13.199   9.982  71.762  1.00  0.00    -0.397 OA 
ENDROOT
BRANCH   2   3
HETATM    3  C   UNL     1     -12.115   9.441  71.118  1.00  0.00    -0.328 A  
HETATM    4  C   UNL     1     -11.358  10.349  70.371  1.00  0.00    -0.337 A  
HETATM    5  O   UNL     1     -11.726  11.664  70.303  1.00  0.00    -0.426 OA 
HETATM    6  C   UNL     1     -10.228   9.949  69.670  1.00  0.00    -0.261 A  
HETATM    7  C   UNL     1      -9.862   8.603  69.680  1.00  0.00    -0.186 A  
HETATM    8  H   UNL     1     -11.212  12.281  69.796  1.00  0.00     0.000 HD 
HETATM    9  C   UNL     1     -10.630   7.661  70.383  1.00  0.00    -0.233 A  
HETATM   10  C   UNL     1     -11.740   8.097  71.130  1.00  0.00    -0.309 A  
BRANCH   9  11
HETATM   11  C   UNL     1     -10.286   6.196  70.304  1.00  0.00    -0.214 C  
BRANCH  11  12
HETATM   12  N   UNL     1      -9.013   5.971  69.665  1.00  0.00    -0.131 N  
HETATM   13  C   UNL     1      -8.921   5.124  68.587  1.00  0.00    -0.105 C  
HETATM   14  H   UNL     1      -8.178   6.443  70.014  1.00  0.00     0.000 HD 
HETATM   15  O   UNL     1      -9.883   4.529  68.112  1.00  0.00    -0.147 OA 
BRANCH  13  16
HETATM   16  C   UNL     1      -7.514   4.972  68.043  1.00  0.00    -0.075 C  
BRANCH  16  17
HETATM   17  C   UNL     1      -7.463   5.088  66.520  1.00  0.00    -0.087 C  
BRANCH  17  18
HETATM   18  C   UNL     1      -7.894   6.476  66.032  1.00  0.00    -0.103 C  
BRANCH  18  19
HETATM   19  C   UNL     1      -6.741   7.212  65.349  1.00  0.00    -0.051 C  
BRANCH  19  20
HETATM   20  C   UNL     1      -6.954   8.699  65.390  1.00  0.00    -0.075 C  
HETATM   21  C   UNL     1      -7.696   9.323  66.315  1.00  0.00    -0.096 C  
HETATM   22  C   UNL     1      -7.913  10.816  66.352  1.00  0.00    -0.151 C  
HETATM   23  C   UNL     1      -7.331  11.401  67.639  1.00  0.00    -0.102 C  
HETATM   24  C   UNL     1      -9.405  11.132  66.243  1.00  0.00    -0.216 C  
ENDBRANCH  19  20
ENDBRANCH  18  19
ENDBRANCH  17  18
ENDBRANCH  16  17
ENDBRANCH  13  16
ENDBRANCH  11  12
ENDBRANCH   9  11
ENDBRANCH   2   3
TORSDOF 8
ENDMDL
MODEL      333
REMARK 921   NORMALIZED FREE ENERGY PREDICTED BY IDOCK:   -3.04 KCAL/MOL
REMARK 922        TOTAL FREE ENERGY PREDICTED BY IDOCK:   -5.67 KCAL/MOL
REMARK 923 INTER-LIGAND FREE ENERGY PREDICTED BY IDOCK:   -4.92 KCAL/MOL
REMARK 924 INTRA-LIGAND FREE ENERGY PREDICTED BY IDOCK:   -0.75 KCAL/MOL
REMARK 927      BINDING AFFINITY PREDICTED BY RF-SCORE:    0.00 PKD
ROOT
HETATM    1  C   UNL     1      -5.777   5.858  70.556  1.00  0.00    -0.013 C  
HETATM    2  O   UNL     1      -6.359   4.615  70.182  1.00  0.00    -0.028 OA 
ENDROOT
BRANCH   2   3
HETATM    3  C   UNL     1      -7.569   4.675  69.538  1.00  0.00    -0.055 A  
HETATM    4  C   UNL     1      -7.610   4.030  68.297  1.00  0.00    -0.066 A  
HETATM    5  O   UNL     1      -6.493   3.418  67.800  1.00  0.00    -0.036 OA 
HETATM    6  C   UNL     1      -8.767   4.001  67.530  1.00  0.00    -0.116 A  
HETATM    7  C   UNL     1      -9.905   4.663  67.991  1.00  0.00    -0.174 A  
HETATM    8  H   UNL     1      -6.520   2.979  66.957  1.00  0.00     0.000 HD 
HETATM    9  C   UNL     1      -9.879   5.359  69.211  1.00  0.00    -0.249 A  
HETATM   10  C   UNL     1      -8.713   5.330  69.996  1.00  0.00    -0.128 A  
BRANCH   9  11
HETATM   11  C   UNL     1     -11.080   6.156  69.650  1.00  0.00    -0.419 C  
BRANCH  11  12
HETATM   12  N   UNL     1     -11.157   7.434  68.986  1.00  0.00    -0.436 N  
HETATM   13  C   UNL     1     -10.877   8.590  69.675  1.00  0.00    -0.151 C  
HETATM   14  H   UNL     1     -11.419   7.480  68.001  1.00  0.00     0.000 HD 
HETATM   15  O   UNL     1     -10.551   8.608  70.857  1.00  0.00    -0.199 OA 
BRANCH  13  16
HETATM   16  C   UNL     1     -11.026   9.850  68.846  1.00  0.00    -0.214 C  
BRANCH  16  17
HETATM   17  C   UNL     1     -10.791  11.118  69.667  1.00  0.00    -0.200 C  
BRANCH  17  18
HETATM   18  C   UNL     1     -12.071  11.947  69.828  1.00  0.00    -0.321 C  
BRANCH  18  19
HETATM   19  C   UNL     1     -11.827  13.421  69.506  1.00  0.00    -0.391 C  
BRANCH  19  20
HETATM   20  C   UNL     1     -11.023  13.570  68.246  1.00  0.00    -0.280 C  
HETATM   21  C   UNL     1     -11.563  13.731  67.029  1.00  0.00    -0.391 C  
HETATM   22  C   UNL     1     -10.754  13.876  65.763  1.00  0.00    -0.289 C  
HETATM   23  C   UNL     1     -11.004  15.245  65.132  1.00  0.00    -0.428 C  
HETATM   24  C   UNL     1     -11.111  12.758  64.784  1.00  0.00    -0.333 C  
ENDBRANCH  19  20
ENDBRANCH  18  19
ENDBRANCH  17  18
ENDBRANCH  16  17
ENDBRANCH  13  16
ENDBRANCH  11  12
ENDBRANCH   9  11
ENDBRANCH   2   3
TORSDOF 8
ENDMDL
MODEL      334
REMARK 921   NORMALIZED FREE ENERGY PREDICTED BY IDOCK:   -3.04 KCAL/MOL
REMARK 922        TOTAL FREE ENERGY PREDICTED BY IDOCK:   -5.66 KCAL/MOL
REMARK 923 INTER-LIGAND FREE ENERGY PREDICTED BY IDOCK:   -4.95 KCAL/MOL
REMARK 924 INTRA-LIGAND FREE ENERGY PREDICTED BY IDOCK:   -0.71 KCAL/MOL
REMARK 927      BINDING AFFINITY PREDICTED BY RF-SCORE:    0.00 PKD
ROOT
HETATM    1  C   UNL     1     -14.056   7.458  71.364  1.00  0.00    -0.358 C  
HETATM    2  O   UNL     1     -12.898   7.429  72.190  1.00  0.00    -0.208 OA 
ENDROOT
BRANCH   2   3
HETATM    3  C   UNL     1     -11.700   7.210  71.558  1.00  0.00    -0.290 A  
HETATM    4  C   UNL     1     -10.796   6.411  72.267  1.00  0.00    -0.239 A  
HETATM    5  O   UNL     1     -11.124   5.928  73.504  1.00  0.00    -0.436 OA 
HETATM    6  C   UNL     1      -9.545   6.098  71.753  1.00  0.00    -0.165 A  
HETATM    7  C   UNL     1      -9.167   6.622  70.517  1.00  0.00    -0.156 A  
HETATM    8  H   UNL     1     -10.511   5.385  73.985  1.00  0.00     0.000 HD 
HETATM    9  C   UNL     1     -10.035   7.465  69.805  1.00  0.00    -0.188 A  
HETATM   10  C   UNL     1     -11.318   7.726  70.319  1.00  0.00    -0.174 A  
BRANCH   9  11
HETATM   11  C   UNL     1      -9.578   8.109  68.521  1.00  0.00    -0.148 C  
BRANCH  11  12
HETATM   12  N   UNL     1      -9.361   9.527  68.672  1.00  0.00    -0.141 N  
HETATM   13  C   UNL     1      -8.088  10.041  68.621  1.00  0.00    -0.102 C  
HETATM   14  H   UNL     1     -10.156  10.150  68.816  1.00  0.00     0.000 HD 
HETATM   15  O   UNL     1      -7.089   9.351  68.446  1.00  0.00    -0.070 OA 
BRANCH  13  16
HETATM   16  C   UNL     1      -8.023  11.542  68.821  1.00  0.00    -0.107 C  
BRANCH  16  17
HETATM   17  C   UNL     1      -8.277  12.313  67.525  1.00  0.00    -0.170 C  
BRANCH  17  18
HETATM   18  C   UNL     1      -8.090  13.824  67.707  1.00  0.00    -0.176 C  
BRANCH  18  19
HETATM   19  C   UNL     1      -9.105  14.616  66.884  1.00  0.00    -0.272 C  
BRANCH  19  20
HETATM   20  C   UNL     1     -10.393  14.786  67.638  1.00  0.00    -0.237 C  
HETATM   21  C   UNL     1     -10.571  14.407  68.911  1.00  0.00    -0.250 C  
HETATM   22  C   UNL     1     -11.867  14.573  69.665  1.00  0.00    -0.367 C  
HETATM   23  C   UNL     1     -11.667  15.512  70.855  1.00  0.00    -0.413 C  
HETATM   24  C   UNL     1     -12.379  13.211  70.133  1.00  0.00    -0.284 C  
ENDBRANCH  19  20
ENDBRANCH  18  19
ENDBRANCH  17  18
ENDBRANCH  16  17
ENDBRANCH  13  16
ENDBRANCH  11  12
ENDBRANCH   9  11
ENDBRANCH   2   3
TORSDOF 8
ENDMDL
MODEL      335
REMARK 921   NORMALIZED FREE ENERGY PREDICTED BY IDOCK:   -3.04 KCAL/MOL
REMARK 922        TOTAL FREE ENERGY PREDICTED BY IDOCK:   -5.66 KCAL/MOL
REMARK 923 INTER-LIGAND FREE ENERGY PREDICTED BY IDOCK:   -5.08 KCAL/MOL
REMARK 924 INTRA-LIGAND FREE ENERGY PREDICTED BY IDOCK:   -0.58 KCAL/MOL
REMARK 927      BINDING AFFINITY PREDICTED BY RF-SCORE:    0.00 PKD
ROOT
HETATM    1  C   UNL     1     -14.257   7.584  71.434  1.00  0.00    -0.388 C  
HETATM    2  O   UNL     1     -12.994   7.340  72.041  1.00  0.00    -0.258 OA 
ENDROOT
BRANCH   2   3
HETATM    3  C   UNL     1     -12.073   6.659  71.285  1.00  0.00    -0.341 A  
HETATM    4  C   UNL     1     -11.425   5.610  71.947  1.00  0.00    -0.094 A  
HETATM    5  O   UNL     1     -11.709   5.340  73.257  1.00  0.00    -0.526 OA 
HETATM    6  C   UNL     1     -10.472   4.827  71.310  1.00  0.00    -0.121 A  
HETATM    7  C   UNL     1     -10.125   5.117  69.990  1.00  0.00    -0.345 A  
HETATM    8  H   UNL     1     -11.270   4.628  73.707  1.00  0.00     0.000 HD 
HETATM    9  C   UNL     1     -10.725   6.192  69.316  1.00  0.00    -0.383 A  
HETATM   10  C   UNL     1     -11.727   6.939  69.963  1.00  0.00    -0.261 A  
BRANCH   9  11
HETATM   11  C   UNL     1     -10.271   6.560  67.927  1.00  0.00    -0.168 C  
BRANCH  11  12
HETATM   12  N   UNL     1      -9.385   7.699  67.929  1.00  0.00    -0.139 N  
HETATM   13  C   UNL     1      -8.111   7.584  67.428  1.00  0.00    -0.116 C  
HETATM   14  H   UNL     1      -9.707   8.592  68.303  1.00  0.00     0.000 HD 
HETATM   15  O   UNL     1      -7.662   6.544  66.959  1.00  0.00    -0.097 OA 
BRANCH  13  16
HETATM   16  C   UNL     1      -7.297   8.859  67.523  1.00  0.00    -0.081 C  
BRANCH  16  17
HETATM   17  C   UNL     1      -8.004  10.052  66.879  1.00  0.00    -0.113 C  
BRANCH  17  18
HETATM   18  C   UNL     1      -7.103  11.290  66.813  1.00  0.00    -0.143 C  
BRANCH  18  19
HETATM   19  C   UNL     1      -7.582  12.382  67.769  1.00  0.00    -0.134 C  
BRANCH  19  20
HETATM   20  C   UNL     1      -8.669  13.208  67.141  1.00  0.00    -0.214 C  
HETATM   21  C   UNL     1      -9.765  13.622  67.791  1.00  0.00    -0.225 C  
HETATM   22  C   UNL     1     -10.858  14.447  67.157  1.00  0.00    -0.292 C  
HETATM   23  C   UNL     1     -10.959  15.806  67.848  1.00  0.00    -0.324 C  
HETATM   24  C   UNL     1     -12.190  13.701  67.237  1.00  0.00    -0.317 C  
ENDBRANCH  19  20
ENDBRANCH  18  19
ENDBRANCH  17  18
ENDBRANCH  16  17
ENDBRANCH  13  16
ENDBRANCH  11  12
ENDBRANCH   9  11
ENDBRANCH   2   3
TORSDOF 8
ENDMDL
MODEL      336
REMARK 921   NORMALIZED FREE ENERGY PREDICTED BY IDOCK:   -3.03 KCAL/MOL
REMARK 922        TOTAL FREE ENERGY PREDICTED BY IDOCK:   -5.66 KCAL/MOL
REMARK 923 INTER-LIGAND FREE ENERGY PREDICTED BY IDOCK:   -4.39 KCAL/MOL
REMARK 924 INTRA-LIGAND FREE ENERGY PREDICTED BY IDOCK:   -1.27 KCAL/MOL
REMARK 927      BINDING AFFINITY PREDICTED BY RF-SCORE:    0.00 PKD
ROOT
HETATM    1  C   UNL     1      -9.618   3.972  68.752  1.00  0.00    -0.130 C  
HETATM    2  O   UNL     1      -8.619   4.740  69.411  1.00  0.00    -0.082 OA 
ENDROOT
BRANCH   2   3
HETATM    3  C   UNL     1      -8.792   6.102  69.408  1.00  0.00    -0.126 A  
HETATM    4  C   UNL     1      -8.161   6.776  68.357  1.00  0.00    -0.119 A  
HETATM    5  O   UNL     1      -7.420   6.084  67.439  1.00  0.00    -0.079 OA 
HETATM    6  C   UNL     1      -8.250   8.154  68.220  1.00  0.00    -0.129 A  
HETATM    7  C   UNL     1      -8.955   8.888  69.174  1.00  0.00    -0.140 A  
HETATM    8  H   UNL     1      -6.992   6.541  66.725  1.00  0.00     0.000 HD 
HETATM    9  C   UNL     1      -9.559   8.244  70.265  1.00  0.00    -0.169 A  
HETATM   10  C   UNL     1      -9.501   6.841  70.356  1.00  0.00    -0.168 A  
BRANCH   9  11
HETATM   11  C   UNL     1     -10.230   9.055  71.344  1.00  0.00    -0.329 C  
BRANCH  11  12
HETATM   12  N   UNL     1     -10.908  10.211  70.812  1.00  0.00    -0.383 N  
HETATM   13  C   UNL     1     -12.278  10.297  70.872  1.00  0.00    -0.365 C  
HETATM   14  H   UNL     1     -10.369  10.967  70.390  1.00  0.00     0.000 HD 
HETATM   15  O   UNL     1     -12.988   9.429  71.369  1.00  0.00    -0.332 OA 
BRANCH  13  16
HETATM   16  C   UNL     1     -12.842  11.559  70.250  1.00  0.00     0.045 C  
BRANCH  16  17
HETATM   17  C   UNL     1     -11.791  12.660  70.111  1.00  0.00    -0.326 C  
BRANCH  17  18
HETATM   18  C   UNL     1     -11.946  13.445  68.803  1.00  0.00    -0.359 C  
BRANCH  18  19
HETATM   19  C   UNL     1     -11.533  12.606  67.595  1.00  0.00    -0.390 C  
BRANCH  19  20
HETATM   20  C   UNL     1     -10.110  12.889  67.205  1.00  0.00    -0.243 C  
HETATM   21  C   UNL     1      -9.051  12.255  67.727  1.00  0.00    -0.191 C  
HETATM   22  C   UNL     1      -7.622  12.544  67.338  1.00  0.00    -0.156 C  
HETATM   23  C   UNL     1      -6.989  11.307  66.702  1.00  0.00    -0.129 C  
HETATM   24  C   UNL     1      -6.825  12.988  68.564  1.00  0.00    -0.095 C  
ENDBRANCH  19  20
ENDBRANCH  18  19
ENDBRANCH  17  18
ENDBRANCH  16  17
ENDBRANCH  13  16
ENDBRANCH  11  12
ENDBRANCH   9  11
ENDBRANCH   2   3
TORSDOF 8
ENDMDL
MODEL      337
REMARK 921   NORMALIZED FREE ENERGY PREDICTED BY IDOCK:   -3.02 KCAL/MOL
REMARK 922        TOTAL FREE ENERGY PREDICTED BY IDOCK:   -5.64 KCAL/MOL
REMARK 923 INTER-LIGAND FREE ENERGY PREDICTED BY IDOCK:   -4.97 KCAL/MOL
REMARK 924 INTRA-LIGAND FREE ENERGY PREDICTED BY IDOCK:   -0.68 KCAL/MOL
REMARK 927      BINDING AFFINITY PREDICTED BY RF-SCORE:    0.00 PKD
ROOT
HETATM    1  C   UNL     1     -12.186  13.359  67.620  1.00  0.00    -0.159 C  
HETATM    2  O   UNL     1     -10.959  13.791  67.044  1.00  0.00    -0.285 OA 
ENDROOT
BRANCH   2   3
HETATM    3  C   UNL     1      -9.821  13.168  67.491  1.00  0.00    -0.216 A  
HETATM    4  C   UNL     1      -8.623  13.763  67.080  1.00  0.00    -0.198 A  
HETATM    5  O   UNL     1      -8.641  14.870  66.277  1.00  0.00    -0.445 OA 
HETATM    6  C   UNL     1      -7.389  13.249  67.458  1.00  0.00    -0.159 A  
HETATM    7  C   UNL     1      -7.344  12.091  68.233  1.00  0.00    -0.095 A  
HETATM    8  H   UNL     1      -7.828  15.274  65.998  1.00  0.00     0.000 HD 
HETATM    9  C   UNL     1      -8.529  11.445  68.620  1.00  0.00    -0.131 A  
HETATM   10  C   UNL     1      -9.768  12.013  68.272  1.00  0.00    -0.205 A  
BRANCH   9  11
HETATM   11  C   UNL     1      -8.468  10.139  69.370  1.00  0.00    -0.171 C  
BRANCH  11  12
HETATM   12  N   UNL     1      -9.681   9.878  70.105  1.00  0.00    -0.350 N  
HETATM   13  C   UNL     1      -9.629   9.227  71.315  1.00  0.00    -0.202 C  
HETATM   14  H   UNL     1     -10.580  10.177  69.727  1.00  0.00     0.000 HD 
HETATM   15  O   UNL     1      -8.584   8.845  71.831  1.00  0.00    -0.347 OA 
BRANCH  13  16
HETATM   16  C   UNL     1     -10.987   9.005  71.951  1.00  0.00    -0.423 C  
BRANCH  16  17
HETATM   17  C   UNL     1     -11.828   7.983  71.186  1.00  0.00    -0.307 C  
BRANCH  17  18
HETATM   18  C   UNL     1     -11.172   6.597  71.163  1.00  0.00    -0.340 C  
BRANCH  18  19
HETATM   19  C   UNL     1     -11.582   5.764  72.377  1.00  0.00    -0.320 C  
BRANCH  19  20
HETATM   20  C   UNL     1     -10.382   5.380  73.195  1.00  0.00    -0.231 C  
HETATM   21  C   UNL     1      -9.670   4.262  72.999  1.00  0.00    -0.164 C  
HETATM   22  C   UNL     1      -8.467   3.876  73.825  1.00  0.00    -0.091 C  
HETATM   23  C   UNL     1      -7.219   3.820  72.945  1.00  0.00    -0.055 C  
HETATM   24  C   UNL     1      -8.709   2.527  74.503  1.00  0.00    -0.075 C  
ENDBRANCH  19  20
ENDBRANCH  18  19
ENDBRANCH  17  18
ENDBRANCH  16  17
ENDBRANCH  13  16
ENDBRANCH  11  12
ENDBRANCH   9  11
ENDBRANCH   2   3
TORSDOF 8
ENDMDL
MODEL      338
REMARK 921   NORMALIZED FREE ENERGY PREDICTED BY IDOCK:   -3.02 KCAL/MOL
REMARK 922        TOTAL FREE ENERGY PREDICTED BY IDOCK:   -5.64 KCAL/MOL
REMARK 923 INTER-LIGAND FREE ENERGY PREDICTED BY IDOCK:   -4.98 KCAL/MOL
REMARK 924 INTRA-LIGAND FREE ENERGY PREDICTED BY IDOCK:   -0.66 KCAL/MOL
REMARK 927      BINDING AFFINITY PREDICTED BY RF-SCORE:    0.00 PKD
ROOT
HETATM    1  C   UNL     1      -6.226   6.357  70.359  1.00  0.00    -0.035 C  
HETATM    2  O   UNL     1      -7.063   5.216  70.498  1.00  0.00    -0.056 OA 
ENDROOT
BRANCH   2   3
HETATM    3  C   UNL     1      -8.028   5.044  69.538  1.00  0.00    -0.075 A  
HETATM    4  C   UNL     1      -7.795   3.991  68.648  1.00  0.00    -0.068 A  
HETATM    5  O   UNL     1      -6.662   3.232  68.757  1.00  0.00    -0.042 OA 
HETATM    6  C   UNL     1      -8.687   3.691  67.626  1.00  0.00    -0.125 A  
HETATM    7  C   UNL     1      -9.823   4.483  67.462  1.00  0.00    -0.191 A  
HETATM    8  H   UNL     1      -6.504   2.517  68.152  1.00  0.00     0.000 HD 
HETATM    9  C   UNL     1     -10.059   5.576  68.311  1.00  0.00    -0.226 A  
HETATM   10  C   UNL     1      -9.170   5.829  69.372  1.00  0.00    -0.144 A  
BRANCH   9  11
HETATM   11  C   UNL     1     -11.234   6.487  68.062  1.00  0.00    -0.148 C  
BRANCH  11  12
HETATM   12  N   UNL     1     -10.923   7.526  67.112  1.00  0.00    -0.536 N  
HETATM   13  C   UNL     1     -10.623   8.794  67.548  1.00  0.00    -0.228 C  
HETATM   14  H   UNL     1     -10.926   7.320  66.113  1.00  0.00     0.000 HD 
HETATM   15  O   UNL     1     -10.596   9.111  68.733  1.00  0.00    -0.218 OA 
BRANCH  13  16
HETATM   16  C   UNL     1     -10.344   9.779  66.430  1.00  0.00    -0.247 C  
BRANCH  16  17
HETATM   17  C   UNL     1     -10.061  11.188  66.951  1.00  0.00    -0.250 C  
BRANCH  17  18
HETATM   18  C   UNL     1     -11.329  12.048  67.007  1.00  0.00    -0.396 C  
BRANCH  18  19
HETATM   19  C   UNL     1     -11.687  12.606  65.630  1.00  0.00    -0.458 C  
BRANCH  19  20
HETATM   20  C   UNL     1     -11.104  13.978  65.438  1.00  0.00    -0.318 C  
HETATM   21  C   UNL     1     -10.513  14.683  66.413  1.00  0.00    -0.296 C  
HETATM   22  C   UNL     1      -9.933  16.062  66.220  1.00  0.00    -0.329 C  
HETATM   23  C   UNL     1      -8.426  16.040  66.475  1.00  0.00    -0.348 C  
HETATM   24  C   UNL     1     -10.623  17.056  67.153  1.00  0.00    -0.245 C  
ENDBRANCH  19  20
ENDBRANCH  18  19
ENDBRANCH  17  18
ENDBRANCH  16  17
ENDBRANCH  13  16
ENDBRANCH  11  12
ENDBRANCH   9  11
ENDBRANCH   2   3
TORSDOF 8
ENDMDL
MODEL      339
REMARK 921   NORMALIZED FREE ENERGY PREDICTED BY IDOCK:   -3.00 KCAL/MOL
REMARK 922        TOTAL FREE ENERGY PREDICTED BY IDOCK:   -5.62 KCAL/MOL
REMARK 923 INTER-LIGAND FREE ENERGY PREDICTED BY IDOCK:   -5.47 KCAL/MOL
REMARK 924 INTRA-LIGAND FREE ENERGY PREDICTED BY IDOCK:   -0.14 KCAL/MOL
REMARK 927      BINDING AFFINITY PREDICTED BY RF-SCORE:    0.00 PKD
ROOT
HETATM    1  C   UNL     1     -11.832  13.766  64.505  1.00  0.00    -0.417 C  
HETATM    2  O   UNL     1     -11.178  14.620  65.436  1.00  0.00    -0.323 OA 
ENDROOT
BRANCH   2   3
HETATM    3  C   UNL     1     -11.377  14.344  66.765  1.00  0.00    -0.352 A  
HETATM    4  C   UNL     1     -11.232  15.439  67.624  1.00  0.00    -0.311 A  
HETATM    5  O   UNL     1     -10.895  16.667  67.126  1.00  0.00    -0.253 OA 
HETATM    6  C   UNL     1     -11.409  15.315  68.995  1.00  0.00    -0.311 A  
HETATM    7  C   UNL     1     -11.701  14.062  69.533  1.00  0.00    -0.367 A  
HETATM    8  H   UNL     1     -10.796  17.411  67.708  1.00  0.00     0.000 HD 
HETATM    9  C   UNL     1     -11.806  12.936  68.701  1.00  0.00    -0.347 A  
HETATM   10  C   UNL     1     -11.676  13.094  67.309  1.00  0.00    -0.425 A  
BRANCH   9  11
HETATM   11  C   UNL     1     -12.020  11.571  69.301  1.00  0.00    -0.330 C  
BRANCH  11  12
HETATM   12  N   UNL     1     -11.734  10.514  68.362  1.00  0.00    -0.487 N  
HETATM   13  C   UNL     1     -10.505   9.900  68.365  1.00  0.00    -0.208 C  
HETATM   14  H   UNL     1     -12.448  10.220  67.694  1.00  0.00     0.000 HD 
HETATM   15  O   UNL     1      -9.604  10.198  69.143  1.00  0.00    -0.189 OA 
BRANCH  13  16
HETATM   16  C   UNL     1     -10.351   8.829  67.304  1.00  0.00    -0.360 C  
BRANCH  16  17
HETATM   17  C   UNL     1      -9.212   7.858  67.618  1.00  0.00    -0.147 C  
BRANCH  17  18
HETATM   18  C   UNL     1      -9.365   6.528  66.872  1.00  0.00    -0.166 C  
BRANCH  18  19
HETATM   19  C   UNL     1      -8.873   6.635  65.429  1.00  0.00     0.065 C  
BRANCH  19  20
HETATM   20  C   UNL     1      -8.442   8.038  65.112  1.00  0.00    -0.117 C  
HETATM   21  C   UNL     1      -7.172   8.464  65.175  1.00  0.00    -0.080 C  
HETATM   22  C   UNL     1      -6.742   9.875  64.861  1.00  0.00    -0.123 C  
HETATM   23  C   UNL     1      -5.798   9.882  63.658  1.00  0.00    -0.117 C  
HETATM   24  C   UNL     1      -6.065  10.501  66.080  1.00  0.00    -0.110 C  
ENDBRANCH  19  20
ENDBRANCH  18  19
ENDBRANCH  17  18
ENDBRANCH  16  17
ENDBRANCH  13  16
ENDBRANCH  11  12
ENDBRANCH   9  11
ENDBRANCH   2   3
TORSDOF 8
ENDMDL
MODEL      340
REMARK 921   NORMALIZED FREE ENERGY PREDICTED BY IDOCK:   -3.00 KCAL/MOL
REMARK 922        TOTAL FREE ENERGY PREDICTED BY IDOCK:   -5.61 KCAL/MOL
REMARK 923 INTER-LIGAND FREE ENERGY PREDICTED BY IDOCK:   -4.65 KCAL/MOL
REMARK 924 INTRA-LIGAND FREE ENERGY PREDICTED BY IDOCK:   -0.97 KCAL/MOL
REMARK 927      BINDING AFFINITY PREDICTED BY RF-SCORE:    0.00 PKD
ROOT
HETATM    1  C   UNL     1      -6.839   8.252  73.076  1.00  0.00    -0.101 C  
HETATM    2  O   UNL     1      -6.124   9.304  72.439  1.00  0.00    -0.262 OA 
ENDROOT
BRANCH   2   3
HETATM    3  C   UNL     1      -6.488   9.598  71.149  1.00  0.00     0.000 A  
HETATM    4  C   UNL     1      -6.014  10.823  70.666  1.00  0.00    -0.094 A  
HETATM    5  O   UNL     1      -5.265  11.638  71.469  1.00  0.00    -0.293 OA 
HETATM    6  C   UNL     1      -6.296  11.255  69.378  1.00  0.00    -0.092 A  
HETATM    7  C   UNL     1      -7.103  10.466  68.557  1.00  0.00    -0.074 A  
HETATM    8  H   UNL     1      -4.943  12.470  71.142  1.00  0.00     0.000 HD 
HETATM    9  C   UNL     1      -7.632   9.254  69.031  1.00  0.00    -0.074 A  
HETATM   10  C   UNL     1      -7.289   8.810  70.321  1.00  0.00    -0.058 A  
BRANCH   9  11
HETATM   11  C   UNL     1      -8.584   8.460  68.175  1.00  0.00    -0.139 C  
BRANCH  11  12
HETATM   12  N   UNL     1      -9.662   9.271  67.666  1.00  0.00    -0.152 N  
HETATM   13  C   UNL     1      -9.680   9.648  66.344  1.00  0.00    -0.224 C  
HETATM   14  H   UNL     1     -10.415   9.566  68.289  1.00  0.00     0.000 HD 
HETATM   15  O   UNL     1      -8.812   9.326  65.540  1.00  0.00    -0.162 OA 
BRANCH  13  16
HETATM   16  C   UNL     1     -10.863  10.518  65.970  1.00  0.00    -0.006 C  
BRANCH  16  17
HETATM   17  C   UNL     1     -11.303  11.428  67.117  1.00  0.00    -0.327 C  
BRANCH  17  18
HETATM   18  C   UNL     1     -10.430  12.683  67.226  1.00  0.00    -0.237 C  
BRANCH  18  19
HETATM   19  C   UNL     1     -10.251  13.115  68.681  1.00  0.00    -0.177 C  
BRANCH  19  20
HETATM   20  C   UNL     1     -11.563  13.534  69.282  1.00  0.00    -0.369 C  
HETATM   21  C   UNL     1     -11.717  13.899  70.562  1.00  0.00    -0.231 C  
HETATM   22  C   UNL     1     -13.036  14.315  71.166  1.00  0.00    -0.423 C  
HETATM   23  C   UNL     1     -12.965  15.767  71.637  1.00  0.00    -0.509 C  
HETATM   24  C   UNL     1     -13.396  13.388  72.327  1.00  0.00    -0.641 C  
ENDBRANCH  19  20
ENDBRANCH  18  19
ENDBRANCH  17  18
ENDBRANCH  16  17
ENDBRANCH  13  16
ENDBRANCH  11  12
ENDBRANCH   9  11
ENDBRANCH   2   3
TORSDOF 8
ENDMDL
MODEL      341
REMARK 921   NORMALIZED FREE ENERGY PREDICTED BY IDOCK:   -3.00 KCAL/MOL
REMARK 922        TOTAL FREE ENERGY PREDICTED BY IDOCK:   -5.61 KCAL/MOL
REMARK 923 INTER-LIGAND FREE ENERGY PREDICTED BY IDOCK:   -4.96 KCAL/MOL
REMARK 924 INTRA-LIGAND FREE ENERGY PREDICTED BY IDOCK:   -0.65 KCAL/MOL
REMARK 927      BINDING AFFINITY PREDICTED BY RF-SCORE:    0.00 PKD
ROOT
HETATM    1  C   UNL     1      -5.957   5.462  69.595  1.00  0.00    -0.017 C  
HETATM    2  O   UNL     1      -7.169   4.718  69.564  1.00  0.00    -0.053 OA 
ENDROOT
BRANCH   2   3
HETATM    3  C   UNL     1      -8.313   5.422  69.284  1.00  0.00    -0.096 A  
HETATM    4  C   UNL     1      -8.862   5.179  68.020  1.00  0.00    -0.102 A  
HETATM    5  O   UNL     1      -8.252   4.310  67.158  1.00  0.00    -0.100 OA 
HETATM    6  C   UNL     1     -10.021   5.813  67.597  1.00  0.00    -0.165 A  
HETATM    7  C   UNL     1     -10.633   6.744  68.437  1.00  0.00    -0.270 A  
HETATM    8  H   UNL     1      -8.624   4.143  66.300  1.00  0.00     0.000 HD 
HETATM    9  C   UNL     1     -10.078   7.044  69.691  1.00  0.00    -0.194 A  
HETATM   10  C   UNL     1      -8.933   6.350  70.122  1.00  0.00    -0.154 A  
BRANCH   9  11
HETATM   11  C   UNL     1     -10.688   8.124  70.548  1.00  0.00    -0.225 C  
BRANCH  11  12
HETATM   12  N   UNL     1     -11.354   9.131  69.759  1.00  0.00    -0.435 N  
HETATM   13  C   UNL     1     -10.668  10.244  69.335  1.00  0.00    -0.241 C  
HETATM   14  H   UNL     1     -12.338   9.016  69.514  1.00  0.00     0.000 HD 
HETATM   15  O   UNL     1      -9.485  10.443  69.588  1.00  0.00    -0.187 OA 
BRANCH  13  16
HETATM   16  C   UNL     1     -11.512  11.219  68.539  1.00  0.00    -0.372 C  
BRANCH  16  17
HETATM   17  C   UNL     1     -11.249  11.125  67.036  1.00  0.00    -0.291 C  
BRANCH  17  18
HETATM   18  C   UNL     1     -10.583  12.391  66.486  1.00  0.00    -0.261 C  
BRANCH  18  19
HETATM   19  C   UNL     1     -11.032  13.636  67.249  1.00  0.00    -0.299 C  
BRANCH  19  20
HETATM   20  C   UNL     1     -10.248  14.843  66.817  1.00  0.00    -0.259 C  
HETATM   21  C   UNL     1     -10.366  16.053  67.381  1.00  0.00    -0.294 C  
HETATM   22  C   UNL     1      -9.581  17.265  66.944  1.00  0.00    -0.272 C  
HETATM   23  C   UNL     1      -8.684  17.750  68.081  1.00  0.00    -0.266 C  
HETATM   24  C   UNL     1     -10.535  18.374  66.498  1.00  0.00    -0.411 C  
ENDBRANCH  19  20
ENDBRANCH  18  19
ENDBRANCH  17  18
ENDBRANCH  16  17
ENDBRANCH  13  16
ENDBRANCH  11  12
ENDBRANCH   9  11
ENDBRANCH   2   3
TORSDOF 8
ENDMDL
MODEL      342
REMARK 921   NORMALIZED FREE ENERGY PREDICTED BY IDOCK:   -2.94 KCAL/MOL
REMARK 922        TOTAL FREE ENERGY PREDICTED BY IDOCK:   -5.52 KCAL/MOL
REMARK 923 INTER-LIGAND FREE ENERGY PREDICTED BY IDOCK:   -4.86 KCAL/MOL
REMARK 924 INTRA-LIGAND FREE ENERGY PREDICTED BY IDOCK:   -0.65 KCAL/MOL
REMARK 927      BINDING AFFINITY PREDICTED BY RF-SCORE:    0.00 PKD
ROOT
HETATM    1  C   UNL     1      -9.149   5.585  68.015  1.00  0.00    -0.108 C  
HETATM    2  O   UNL     1      -9.912   4.732  68.861  1.00  0.00    -0.171 OA 
ENDROOT
BRANCH   2   3
HETATM    3  C   UNL     1     -10.345   5.273  70.045  1.00  0.00    -0.295 A  
HETATM    4  C   UNL     1      -9.844   4.653  71.195  1.00  0.00    -0.191 A  
HETATM    5  O   UNL     1      -9.006   3.578  71.091  1.00  0.00    -0.085 OA 
HETATM    6  C   UNL     1     -10.189   5.092  72.466  1.00  0.00    -0.242 A  
HETATM    7  C   UNL     1     -11.084   6.154  72.599  1.00  0.00    -0.308 A  
HETATM    8  H   UNL     1      -8.666   3.157  71.872  1.00  0.00     0.000 HD 
HETATM    9  C   UNL     1     -11.639   6.765  71.463  1.00  0.00    -0.344 A  
HETATM   10  C   UNL     1     -11.235   6.338  70.185  1.00  0.00    -0.470 A  
BRANCH   9  11
HETATM   11  C   UNL     1     -12.683   7.841  71.618  1.00  0.00    -0.335 C  
BRANCH  11  12
HETATM   12  N   UNL     1     -12.638   8.800  70.542  1.00  0.00    -0.288 N  
HETATM   13  C   UNL     1     -11.629   9.732  70.488  1.00  0.00    -0.292 C  
HETATM   14  H   UNL     1     -13.357   8.786  69.818  1.00  0.00     0.000 HD 
HETATM   15  O   UNL     1     -10.731   9.802  71.320  1.00  0.00    -0.304 OA 
BRANCH  13  16
HETATM   16  C   UNL     1     -11.735  10.684  69.313  1.00  0.00    -0.336 C  
BRANCH  16  17
HETATM   17  C   UNL     1     -11.245  10.055  68.008  1.00  0.00    -0.190 C  
BRANCH  17  18
HETATM   18  C   UNL     1     -10.321  10.995  67.226  1.00  0.00    -0.249 C  
BRANCH  18  19
HETATM   19  C   UNL     1      -8.938  11.086  67.872  1.00  0.00    -0.144 C  
BRANCH  19  20
HETATM   20  C   UNL     1      -7.854  10.958  66.840  1.00  0.00    -0.135 C  
HETATM   21  C   UNL     1      -7.917  10.131  65.787  1.00  0.00    -0.140 C  
HETATM   22  C   UNL     1      -6.824  10.000  64.754  1.00  0.00    -0.133 C  
HETATM   23  C   UNL     1      -7.344  10.428  63.382  1.00  0.00    -0.040 C  
HETATM   24  C   UNL     1      -6.313   8.560  64.712  1.00  0.00    -0.065 C  
ENDBRANCH  19  20
ENDBRANCH  18  19
ENDBRANCH  17  18
ENDBRANCH  16  17
ENDBRANCH  13  16
ENDBRANCH  11  12
ENDBRANCH   9  11
ENDBRANCH   2   3
TORSDOF 8
ENDMDL
MODEL      343
REMARK 921   NORMALIZED FREE ENERGY PREDICTED BY IDOCK:   -2.93 KCAL/MOL
REMARK 922        TOTAL FREE ENERGY PREDICTED BY IDOCK:   -5.51 KCAL/MOL
REMARK 923 INTER-LIGAND FREE ENERGY PREDICTED BY IDOCK:   -3.85 KCAL/MOL
REMARK 924 INTRA-LIGAND FREE ENERGY PREDICTED BY IDOCK:   -1.66 KCAL/MOL
REMARK 927      BINDING AFFINITY PREDICTED BY RF-SCORE:    0.00 PKD
ROOT
HETATM    1  C   UNL     1      -6.475   8.691  74.103  1.00  0.00    -0.093 C  
HETATM    2  O   UNL     1      -5.634   9.214  73.082  1.00  0.00    -0.131 OA 
ENDROOT
BRANCH   2   3
HETATM    3  C   UNL     1      -6.087   9.091  71.793  1.00  0.00    -0.075 A  
HETATM    4  C   UNL     1      -6.109  10.282  71.059  1.00  0.00     0.020 A  
HETATM    5  O   UNL     1      -5.718  11.457  71.638  1.00  0.00    -0.313 OA 
HETATM    6  C   UNL     1      -6.538  10.314  69.739  1.00  0.00    -0.090 A  
HETATM    7  C   UNL     1      -6.992   9.138  69.142  1.00  0.00    -0.058 A  
HETATM    8  H   UNL     1      -5.733  12.266  71.140  1.00  0.00     0.000 HD 
HETATM    9  C   UNL     1      -7.025   7.937  69.869  1.00  0.00    -0.050 A  
HETATM   10  C   UNL     1      -6.536   7.916  71.188  1.00  0.00    -0.038 A  
BRANCH   9  11
HETATM   11  C   UNL     1      -7.613   6.695  69.250  1.00  0.00    -0.100 C  
BRANCH  11  12
HETATM   12  N   UNL     1      -8.523   7.003  68.174  1.00  0.00    -0.128 N  
HETATM   13  C   UNL     1      -8.077   7.014  66.874  1.00  0.00    -0.116 C  
HETATM   14  H   UNL     1      -9.500   7.213  68.379  1.00  0.00     0.000 HD 
HETATM   15  O   UNL     1      -6.919   6.766  66.556  1.00  0.00    -0.059 OA 
BRANCH  13  16
HETATM   16  C   UNL     1      -9.145   7.380  65.862  1.00  0.00    -0.073 C  
BRANCH  16  17
HETATM   17  C   UNL     1     -10.084   8.472  66.376  1.00  0.00    -0.271 C  
BRANCH  17  18
HETATM   18  C   UNL     1      -9.366   9.814  66.552  1.00  0.00    -0.207 C  
BRANCH  18  19
HETATM   19  C   UNL     1     -10.016  10.657  67.648  1.00  0.00    -0.197 C  
BRANCH  19  20
HETATM   20  C   UNL     1     -10.698   9.785  68.663  1.00  0.00    -0.247 C  
HETATM   21  C   UNL     1     -10.682  10.018  69.983  1.00  0.00    -0.348 C  
HETATM   22  C   UNL     1     -11.363   9.138  71.002  1.00  0.00    -0.377 C  
HETATM   23  C   UNL     1     -12.456   9.922  71.728  1.00  0.00    -0.487 C  
HETATM   24  C   UNL     1     -10.337   8.597  71.996  1.00  0.00    -0.416 C  
ENDBRANCH  19  20
ENDBRANCH  18  19
ENDBRANCH  17  18
ENDBRANCH  16  17
ENDBRANCH  13  16
ENDBRANCH  11  12
ENDBRANCH   9  11
ENDBRANCH   2   3
TORSDOF 8
ENDMDL
MODEL      344
REMARK 921   NORMALIZED FREE ENERGY PREDICTED BY IDOCK:   -2.93 KCAL/MOL
REMARK 922        TOTAL FREE ENERGY PREDICTED BY IDOCK:   -5.51 KCAL/MOL
REMARK 923 INTER-LIGAND FREE ENERGY PREDICTED BY IDOCK:   -4.71 KCAL/MOL
REMARK 924 INTRA-LIGAND FREE ENERGY PREDICTED BY IDOCK:   -0.80 KCAL/MOL
REMARK 927      BINDING AFFINITY PREDICTED BY RF-SCORE:    0.00 PKD
ROOT
HETATM    1  C   UNL     1      -9.554   4.115  68.549  1.00  0.00    -0.125 C  
HETATM    2  O   UNL     1      -8.602   4.325  69.585  1.00  0.00    -0.070 OA 
ENDROOT
BRANCH   2   3
HETATM    3  C   UNL     1      -8.287   5.629  69.872  1.00  0.00    -0.117 A  
HETATM    4  C   UNL     1      -7.162   6.126  69.204  1.00  0.00    -0.083 A  
HETATM    5  O   UNL     1      -6.452   5.322  68.355  1.00  0.00    -0.037 OA 
HETATM    6  C   UNL     1      -6.724   7.430  69.389  1.00  0.00    -0.041 A  
HETATM    7  C   UNL     1      -7.399   8.253  70.290  1.00  0.00    -0.055 A  
HETATM    8  H   UNL     1      -5.689   5.658  67.901  1.00  0.00     0.000 HD 
HETATM    9  C   UNL     1      -8.503   7.767  71.009  1.00  0.00    -0.122 A  
HETATM   10  C   UNL     1      -8.962   6.460  70.767  1.00  0.00    -0.144 A  
BRANCH   9  11
HETATM   11  C   UNL     1      -9.161   8.630  72.055  1.00  0.00    -0.268 C  
BRANCH  11  12
HETATM   12  N   UNL     1     -10.313   9.327  71.537  1.00  0.00    -0.336 N  
HETATM   13  C   UNL     1     -11.580   8.906  71.861  1.00  0.00    -0.371 C  
HETATM   14  H   UNL     1     -10.186  10.137  70.929  1.00  0.00     0.000 HD 
HETATM   15  O   UNL     1     -11.805   7.945  72.590  1.00  0.00    -0.353 OA 
BRANCH  13  16
HETATM   16  C   UNL     1     -12.683   9.724  71.220  1.00  0.00    -0.464 C  
BRANCH  16  17
HETATM   17  C   UNL     1     -12.193  11.094  70.750  1.00  0.00    -0.484 C  
BRANCH  17  18
HETATM   18  C   UNL     1     -12.300  11.256  69.229  1.00  0.00    -0.172 C  
BRANCH  18  19
HETATM   19  C   UNL     1     -10.997  10.869  68.532  1.00  0.00    -0.278 C  
BRANCH  19  20
HETATM   20  C   UNL     1     -10.321  12.076  67.948  1.00  0.00    -0.209 C  
HETATM   21  C   UNL     1     -10.685  13.339  68.212  1.00  0.00    -0.267 C  
HETATM   22  C   UNL     1     -10.008  14.551  67.621  1.00  0.00    -0.224 C  
HETATM   23  C   UNL     1      -9.374  15.392  68.727  1.00  0.00    -0.209 C  
HETATM   24  C   UNL     1     -11.018  15.378  66.825  1.00  0.00    -0.282 C  
ENDBRANCH  19  20
ENDBRANCH  18  19
ENDBRANCH  17  18
ENDBRANCH  16  17
ENDBRANCH  13  16
ENDBRANCH  11  12
ENDBRANCH   9  11
ENDBRANCH   2   3
TORSDOF 8
ENDMDL
MODEL      345
REMARK 921   NORMALIZED FREE ENERGY PREDICTED BY IDOCK:   -2.93 KCAL/MOL
REMARK 922        TOTAL FREE ENERGY PREDICTED BY IDOCK:   -5.50 KCAL/MOL
REMARK 923 INTER-LIGAND FREE ENERGY PREDICTED BY IDOCK:   -5.24 KCAL/MOL
REMARK 924 INTRA-LIGAND FREE ENERGY PREDICTED BY IDOCK:   -0.26 KCAL/MOL
REMARK 927      BINDING AFFINITY PREDICTED BY RF-SCORE:    0.00 PKD
ROOT
HETATM    1  C   UNL     1     -11.623  14.355  64.631  1.00  0.00    -0.409 C  
HETATM    2  O   UNL     1     -10.999  15.111  65.661  1.00  0.00    -0.334 OA 
ENDROOT
BRANCH   2   3
HETATM    3  C   UNL     1     -11.302  14.756  66.951  1.00  0.00    -0.355 A  
HETATM    4  C   UNL     1     -11.205  15.791  67.888  1.00  0.00    -0.313 A  
HETATM    5  O   UNL     1     -10.813  17.041  67.496  1.00  0.00    -0.305 OA 
HETATM    6  C   UNL     1     -11.486  15.584  69.231  1.00  0.00    -0.349 A  
HETATM    7  C   UNL     1     -11.837  14.305  69.664  1.00  0.00    -0.370 A  
HETATM    8  H   UNL     1     -10.747  17.744  68.132  1.00  0.00     0.000 HD 
HETATM    9  C   UNL     1     -11.896  13.237  68.755  1.00  0.00    -0.371 A  
HETATM   10  C   UNL     1     -11.660  13.480  67.389  1.00  0.00    -0.392 A  
BRANCH   9  11
HETATM   11  C   UNL     1     -12.175  11.840  69.248  1.00  0.00    -0.140 C  
BRANCH  11  12
HETATM   12  N   UNL     1     -11.891  10.843  68.245  1.00  0.00    -0.373 N  
HETATM   13  C   UNL     1     -10.686  10.181  68.250  1.00  0.00    -0.238 C  
HETATM   14  H   UNL     1     -12.586  10.629  67.530  1.00  0.00     0.000 HD 
HETATM   15  O   UNL     1      -9.808  10.385  69.081  1.00  0.00    -0.203 OA 
BRANCH  13  16
HETATM   16  C   UNL     1     -10.530   9.184  67.119  1.00  0.00    -0.325 C  
BRANCH  16  17
HETATM   17  C   UNL     1      -9.423   8.165  67.391  1.00  0.00    -0.191 C  
BRANCH  17  18
HETATM   18  C   UNL     1      -8.396   8.111  66.254  1.00  0.00    -0.119 C  
BRANCH  18  19
HETATM   19  C   UNL     1      -7.212   9.039  66.524  1.00  0.00    -0.085 C  
BRANCH  19  20
HETATM   20  C   UNL     1      -7.260   9.576  67.926  1.00  0.00    -0.082 C  
HETATM   21  C   UNL     1      -6.538   9.082  68.942  1.00  0.00    -0.052 C  
HETATM   22  C   UNL     1      -6.590   9.620  70.351  1.00  0.00    -0.096 C  
HETATM   23  C   UNL     1      -5.224  10.174  70.754  1.00  0.00    -0.062 C  
HETATM   24  C   UNL     1      -7.032   8.519  71.315  1.00  0.00    -0.075 C  
ENDBRANCH  19  20
ENDBRANCH  18  19
ENDBRANCH  17  18
ENDBRANCH  16  17
ENDBRANCH  13  16
ENDBRANCH  11  12
ENDBRANCH   9  11
ENDBRANCH   2   3
TORSDOF 8
ENDMDL
MODEL      346
REMARK 921   NORMALIZED FREE ENERGY PREDICTED BY IDOCK:   -2.92 KCAL/MOL
REMARK 922        TOTAL FREE ENERGY PREDICTED BY IDOCK:   -5.49 KCAL/MOL
REMARK 923 INTER-LIGAND FREE ENERGY PREDICTED BY IDOCK:   -4.66 KCAL/MOL
REMARK 924 INTRA-LIGAND FREE ENERGY PREDICTED BY IDOCK:   -0.83 KCAL/MOL
REMARK 927      BINDING AFFINITY PREDICTED BY RF-SCORE:    0.00 PKD
ROOT
HETATM    1  C   UNL     1     -11.032  15.627  67.562  1.00  0.00    -0.309 C  
HETATM    2  O   UNL     1     -10.676  16.976  67.836  1.00  0.00    -0.356 OA 
ENDROOT
BRANCH   2   3
HETATM    3  C   UNL     1      -9.344  17.291  67.730  1.00  0.00    -0.250 A  
HETATM    4  C   UNL     1      -9.019  18.128  66.657  1.00  0.00    -0.282 A  
HETATM    5  O   UNL     1      -9.991  18.555  65.795  1.00  0.00    -0.515 OA 
HETATM    6  C   UNL     1      -7.713  18.537  66.425  1.00  0.00    -0.291 A  
HETATM    7  C   UNL     1      -6.696  18.073  67.259  1.00  0.00    -0.195 A  
HETATM    8  H   UNL     1      -9.770  19.124  65.066  1.00  0.00     0.000 HD 
HETATM    9  C   UNL     1      -6.986  17.194  68.315  1.00  0.00    -0.187 A  
HETATM   10  C   UNL     1      -8.323  16.835  68.565  1.00  0.00    -0.243 A  
BRANCH   9  11
HETATM   11  C   UNL     1      -5.869  16.617  69.146  1.00  0.00    -0.152 C  
BRANCH  11  12
HETATM   12  N   UNL     1      -5.677  15.210  68.895  1.00  0.00    -0.093 N  
HETATM   13  C   UNL     1      -6.006  14.285  69.858  1.00  0.00    -0.132 C  
HETATM   14  H   UNL     1      -5.297  14.900  68.001  1.00  0.00     0.000 HD 
HETATM   15  O   UNL     1      -6.471  14.587  70.952  1.00  0.00    -0.082 OA 
BRANCH  13  16
HETATM   16  C   UNL     1      -5.723  12.852  69.454  1.00  0.00    -0.090 C  
BRANCH  16  17
HETATM   17  C   UNL     1      -5.882  12.628  67.950  1.00  0.00    -0.111 C  
BRANCH  17  18
HETATM   18  C   UNL     1      -5.328  11.269  67.507  1.00  0.00    -0.046 C  
BRANCH  18  19
HETATM   19  C   UNL     1      -5.408  11.100  65.990  1.00  0.00    -0.132 C  
BRANCH  19  20
HETATM   20  C   UNL     1      -6.599  10.270  65.604  1.00  0.00    -0.122 C  
HETATM   21  C   UNL     1      -7.864  10.710  65.649  1.00  0.00    -0.123 C  
HETATM   22  C   UNL     1      -9.060   9.873  65.265  1.00  0.00    -0.256 C  
HETATM   23  C   UNL     1      -9.774  10.495  64.066  1.00  0.00    -0.383 C  
HETATM   24  C   UNL     1     -10.012   9.745  66.454  1.00  0.00    -0.314 C  
ENDBRANCH  19  20
ENDBRANCH  18  19
ENDBRANCH  17  18
ENDBRANCH  16  17
ENDBRANCH  13  16
ENDBRANCH  11  12
ENDBRANCH   9  11
ENDBRANCH   2   3
TORSDOF 8
ENDMDL
MODEL      347
REMARK 921   NORMALIZED FREE ENERGY PREDICTED BY IDOCK:   -2.91 KCAL/MOL
REMARK 922        TOTAL FREE ENERGY PREDICTED BY IDOCK:   -5.47 KCAL/MOL
REMARK 923 INTER-LIGAND FREE ENERGY PREDICTED BY IDOCK:   -4.53 KCAL/MOL
REMARK 924 INTRA-LIGAND FREE ENERGY PREDICTED BY IDOCK:   -0.95 KCAL/MOL
REMARK 927      BINDING AFFINITY PREDICTED BY RF-SCORE:    0.00 PKD
ROOT
HETATM    1  C   UNL     1     -12.746  10.611  70.152  1.00  0.00    -0.159 C  
HETATM    2  O   UNL     1     -11.607  11.425  69.904  1.00  0.00    -0.293 OA 
ENDROOT
BRANCH   2   3
HETATM    3  C   UNL     1     -10.860  11.111  68.797  1.00  0.00    -0.213 A  
HETATM    4  C   UNL     1     -10.080  12.159  68.294  1.00  0.00    -0.210 A  
HETATM    5  O   UNL     1     -10.113  13.390  68.888  1.00  0.00    -0.410 OA 
HETATM    6  C   UNL     1      -9.267  11.991  67.181  1.00  0.00    -0.190 A  
HETATM    7  C   UNL     1      -9.257  10.759  66.526  1.00  0.00    -0.187 A  
HETATM    8  H   UNL     1      -9.583  14.102  68.548  1.00  0.00     0.000 HD 
HETATM    9  C   UNL     1     -10.065   9.704  66.980  1.00  0.00    -0.275 A  
HETATM   10  C   UNL     1     -10.840   9.880  68.141  1.00  0.00    -0.282 A  
BRANCH   9  11
HETATM   11  C   UNL     1     -10.124   8.412  66.206  1.00  0.00    -0.066 C  
BRANCH  11  12
HETATM   12  N   UNL     1      -9.420   7.346  66.875  1.00  0.00    -0.154 N  
HETATM   13  C   UNL     1     -10.013   6.115  67.028  1.00  0.00    -0.162 C  
HETATM   14  H   UNL     1      -8.479   7.505  67.235  1.00  0.00     0.000 HD 
HETATM   15  O   UNL     1     -11.138   5.853  66.615  1.00  0.00    -0.246 OA 
BRANCH  13  16
HETATM   16  C   UNL     1      -9.158   5.110  67.772  1.00  0.00    -0.119 C  
BRANCH  16  17
HETATM   17  C   UNL     1      -8.974   5.478  69.244  1.00  0.00    -0.125 C  
BRANCH  17  18
HETATM   18  C   UNL     1     -10.276   5.334  70.042  1.00  0.00    -0.358 C  
BRANCH  18  19
HETATM   19  C   UNL     1     -10.963   6.684  70.239  1.00  0.00    -0.355 C  
BRANCH  19  20
HETATM   20  C   UNL     1     -10.036   7.669  70.892  1.00  0.00    -0.183 C  
HETATM   21  C   UNL     1      -8.801   7.943  70.448  1.00  0.00    -0.142 C  
HETATM   22  C   UNL     1      -7.869   8.929  71.108  1.00  0.00    -0.172 C  
HETATM   23  C   UNL     1      -7.558  10.080  70.153  1.00  0.00    -0.168 C  
HETATM   24  C   UNL     1      -6.583   8.225  71.541  1.00  0.00    -0.058 C  
ENDBRANCH  19  20
ENDBRANCH  18  19
ENDBRANCH  17  18
ENDBRANCH  16  17
ENDBRANCH  13  16
ENDBRANCH  11  12
ENDBRANCH   9  11
ENDBRANCH   2   3
TORSDOF 8
ENDMDL
MODEL      348
REMARK 921   NORMALIZED FREE ENERGY PREDICTED BY IDOCK:   -2.90 KCAL/MOL
REMARK 922        TOTAL FREE ENERGY PREDICTED BY IDOCK:   -5.47 KCAL/MOL
REMARK 923 INTER-LIGAND FREE ENERGY PREDICTED BY IDOCK:   -4.79 KCAL/MOL
REMARK 924 INTRA-LIGAND FREE ENERGY PREDICTED BY IDOCK:   -0.68 KCAL/MOL
REMARK 927      BINDING AFFINITY PREDICTED BY RF-SCORE:    0.00 PKD
ROOT
HETATM    1  C   UNL     1     -12.531  13.888  66.566  1.00  0.00    -0.321 C  
HETATM    2  O   UNL     1     -11.254  14.507  66.470  1.00  0.00    -0.329 OA 
ENDROOT
BRANCH   2   3
HETATM    3  C   UNL     1     -10.196  13.812  66.999  1.00  0.00    -0.254 A  
HETATM    4  C   UNL     1      -8.936  14.347  66.712  1.00  0.00    -0.233 A  
HETATM    5  O   UNL     1      -8.822  15.470  65.939  1.00  0.00    -0.404 OA 
HETATM    6  C   UNL     1      -7.771  13.757  67.184  1.00  0.00     0.009 A  
HETATM    7  C   UNL     1      -7.858  12.582  67.930  1.00  0.00    -0.144 A  
HETATM    8  H   UNL     1      -7.966  15.833  65.744  1.00  0.00     0.000 HD 
HETATM    9  C   UNL     1      -9.106  11.996  68.194  1.00  0.00    -0.191 A  
HETATM   10  C   UNL     1     -10.277  12.640  67.752  1.00  0.00    -0.222 A  
BRANCH   9  11
HETATM   11  C   UNL     1      -9.183  10.674  68.912  1.00  0.00    -0.183 C  
BRANCH  11  12
HETATM   12  N   UNL     1      -9.250   9.562  67.996  1.00  0.00    -0.130 N  
HETATM   13  C   UNL     1     -10.202   8.584  68.164  1.00  0.00    -0.208 C  
HETATM   14  H   UNL     1      -8.590   9.501  67.221  1.00  0.00     0.000 HD 
HETATM   15  O   UNL     1     -11.029   8.597  69.070  1.00  0.00    -0.079 OA 
BRANCH  13  16
HETATM   16  C   UNL     1     -10.127   7.472  67.137  1.00  0.00    -0.317 C  
BRANCH  16  17
HETATM   17  C   UNL     1      -8.799   6.717  67.192  1.00  0.00    -0.115 C  
BRANCH  17  18
HETATM   18  C   UNL     1      -8.406   6.342  68.626  1.00  0.00    -0.121 C  
BRANCH  18  19
HETATM   19  C   UNL     1      -9.227   5.160  69.140  1.00  0.00    -0.150 C  
BRANCH  19  20
HETATM   20  C   UNL     1     -10.081   5.567  70.308  1.00  0.00    -0.305 C  
HETATM   21  C   UNL     1      -9.616   5.731  71.554  1.00  0.00    -0.181 C  
HETATM   22  C   UNL     1     -10.475   6.135  72.726  1.00  0.00    -0.240 C  
HETATM   23  C   UNL     1     -10.015   7.484  73.277  1.00  0.00    -0.368 C  
HETATM   24  C   UNL     1     -10.417   5.060  73.812  1.00  0.00    -0.303 C  
ENDBRANCH  19  20
ENDBRANCH  18  19
ENDBRANCH  17  18
ENDBRANCH  16  17
ENDBRANCH  13  16
ENDBRANCH  11  12
ENDBRANCH   9  11
ENDBRANCH   2   3
TORSDOF 8
ENDMDL
MODEL      349
REMARK 921   NORMALIZED FREE ENERGY PREDICTED BY IDOCK:   -2.89 KCAL/MOL
REMARK 922        TOTAL FREE ENERGY PREDICTED BY IDOCK:   -5.45 KCAL/MOL
REMARK 923 INTER-LIGAND FREE ENERGY PREDICTED BY IDOCK:   -4.56 KCAL/MOL
REMARK 924 INTRA-LIGAND FREE ENERGY PREDICTED BY IDOCK:   -0.89 KCAL/MOL
REMARK 927      BINDING AFFINITY PREDICTED BY RF-SCORE:    0.00 PKD
ROOT
HETATM    1  C   UNL     1     -11.241  13.275  66.664  1.00  0.00    -0.306 C  
HETATM    2  O   UNL     1     -12.089  12.352  67.336  1.00  0.00    -0.505 OA 
ENDROOT
BRANCH   2   3
HETATM    3  C   UNL     1     -11.504  11.192  67.778  1.00  0.00    -0.272 A  
HETATM    4  C   UNL     1     -11.662  10.935  69.144  1.00  0.00    -0.326 A  
HETATM    5  O   UNL     1     -12.340  11.817  69.939  1.00  0.00    -0.223 OA 
HETATM    6  C   UNL     1     -11.130   9.798  69.736  1.00  0.00    -0.272 A  
HETATM    7  C   UNL     1     -10.389   8.909  68.957  1.00  0.00    -0.226 A  
HETATM    8  H   UNL     1     -12.448  11.643  70.867  1.00  0.00     0.000 HD 
HETATM    9  C   UNL     1     -10.174   9.165  67.594  1.00  0.00    -0.293 A  
HETATM   10  C   UNL     1     -10.767  10.296  67.003  1.00  0.00    -0.281 A  
BRANCH   9  11
HETATM   11  C   UNL     1      -9.287   8.254  66.785  1.00  0.00    -0.182 C  
BRANCH  11  12
HETATM   12  N   UNL     1      -8.004   8.853  66.505  1.00  0.00    -0.102 N  
HETATM   13  C   UNL     1      -6.949   8.660  67.364  1.00  0.00    -0.078 C  
HETATM   14  H   UNL     1      -7.881   9.421  65.667  1.00  0.00     0.000 HD 
HETATM   15  O   UNL     1      -7.026   7.985  68.385  1.00  0.00    -0.069 OA 
BRANCH  13  16
HETATM   16  C   UNL     1      -5.679   9.373  66.946  1.00  0.00    -0.051 C  
BRANCH  16  17
HETATM   17  C   UNL     1      -5.954  10.560  66.022  1.00  0.00    -0.111 C  
BRANCH  17  18
HETATM   18  C   UNL     1      -6.656  11.709  66.755  1.00  0.00    -0.094 C  
BRANCH  18  19
HETATM   19  C   UNL     1      -5.678  12.500  67.623  1.00  0.00    -0.131 C  
BRANCH  19  20
HETATM   20  C   UNL     1      -6.112  13.932  67.753  1.00  0.00    -0.139 C  
HETATM   21  C   UNL     1      -7.393  14.328  67.767  1.00  0.00    -0.185 C  
HETATM   22  C   UNL     1      -7.827  15.767  67.894  1.00  0.00    -0.149 C  
HETATM   23  C   UNL     1      -8.630  15.964  69.179  1.00  0.00    -0.252 C  
HETATM   24  C   UNL     1      -8.654  16.174  66.674  1.00  0.00    -0.311 C  
ENDBRANCH  19  20
ENDBRANCH  18  19
ENDBRANCH  17  18
ENDBRANCH  16  17
ENDBRANCH  13  16
ENDBRANCH  11  12
ENDBRANCH   9  11
ENDBRANCH   2   3
TORSDOF 8
ENDMDL
MODEL      350
REMARK 921   NORMALIZED FREE ENERGY PREDICTED BY IDOCK:   -2.88 KCAL/MOL
REMARK 922        TOTAL FREE ENERGY PREDICTED BY IDOCK:   -5.44 KCAL/MOL
REMARK 923 INTER-LIGAND FREE ENERGY PREDICTED BY IDOCK:   -4.72 KCAL/MOL
REMARK 924 INTRA-LIGAND FREE ENERGY PREDICTED BY IDOCK:   -0.72 KCAL/MOL
REMARK 927      BINDING AFFINITY PREDICTED BY RF-SCORE:    0.00 PKD
ROOT
HETATM    1  C   UNL     1     -12.171  14.208  67.204  1.00  0.00    -0.313 C  
HETATM    2  O   UNL     1     -11.325  13.677  66.192  1.00  0.00    -0.304 OA 
ENDROOT
BRANCH   2   3
HETATM    3  C   UNL     1     -10.554  12.597  66.542  1.00  0.00    -0.253 A  
HETATM    4  C   UNL     1      -9.193  12.873  66.708  1.00  0.00    -0.230 A  
HETATM    5  O   UNL     1      -8.714  14.138  66.503  1.00  0.00    -0.447 OA 
HETATM    6  C   UNL     1      -8.289  11.882  67.067  1.00  0.00    -0.178 A  
HETATM    7  C   UNL     1      -8.743  10.574  67.230  1.00  0.00    -0.126 A  
HETATM    8  H   UNL     1      -7.790  14.325  66.615  1.00  0.00     0.000 HD 
HETATM    9  C   UNL     1     -10.096  10.258  67.024  1.00  0.00    -0.268 A  
HETATM   10  C   UNL     1     -11.004  11.287  66.713  1.00  0.00    -0.339 A  
BRANCH   9  11
HETATM   11  C   UNL     1     -10.558   8.826  67.102  1.00  0.00    -0.233 C  
BRANCH  11  12
HETATM   12  N   UNL     1      -9.976   8.128  68.221  1.00  0.00    -0.180 N  
HETATM   13  C   UNL     1      -9.210   7.005  68.014  1.00  0.00    -0.129 C  
HETATM   14  H   UNL     1     -10.132   8.468  69.170  1.00  0.00     0.000 HD 
HETATM   15  O   UNL     1      -8.977   6.544  66.902  1.00  0.00    -0.119 OA 
BRANCH  13  16
HETATM   16  C   UNL     1      -8.692   6.371  69.290  1.00  0.00    -0.125 C  
BRANCH  16  17
HETATM   17  C   UNL     1      -7.605   5.329  69.022  1.00  0.00    -0.078 C  
BRANCH  17  18
HETATM   18  C   UNL     1      -7.420   4.372  70.205  1.00  0.00    -0.049 C  
BRANCH  18  19
HETATM   19  C   UNL     1      -8.351   3.165  70.099  1.00  0.00    -0.079 C  
BRANCH  19  20
HETATM   20  C   UNL     1      -9.537   3.319  71.009  1.00  0.00    -0.234 C  
HETATM   21  C   UNL     1      -9.498   3.957  72.187  1.00  0.00    -0.191 C  
HETATM   22  C   UNL     1     -10.688   4.107  73.102  1.00  0.00    -0.277 C  
HETATM   23  C   UNL     1     -11.042   5.584  73.267  1.00  0.00    -0.322 C  
HETATM   24  C   UNL     1     -10.388   3.470  74.459  1.00  0.00    -0.248 C  
ENDBRANCH  19  20
ENDBRANCH  18  19
ENDBRANCH  17  18
ENDBRANCH  16  17
ENDBRANCH  13  16
ENDBRANCH  11  12
ENDBRANCH   9  11
ENDBRANCH   2   3
TORSDOF 8
ENDMDL
MODEL      351
REMARK 921   NORMALIZED FREE ENERGY PREDICTED BY IDOCK:   -2.79 KCAL/MOL
REMARK 922        TOTAL FREE ENERGY PREDICTED BY IDOCK:   -5.31 KCAL/MOL
REMARK 923 INTER-LIGAND FREE ENERGY PREDICTED BY IDOCK:   -4.59 KCAL/MOL
REMARK 924 INTRA-LIGAND FREE ENERGY PREDICTED BY IDOCK:   -0.72 KCAL/MOL
REMARK 927      BINDING AFFINITY PREDICTED BY RF-SCORE:    0.00 PKD
ROOT
HETATM    1  C   UNL     1      -8.237   7.720  74.565  1.00  0.00    -0.213 C  
HETATM    2  O   UNL     1      -7.549   8.387  73.514  1.00  0.00    -0.267 OA 
ENDROOT
BRANCH   2   3
HETATM    3  C   UNL     1      -7.483   7.731  72.311  1.00  0.00    -0.083 A  
HETATM    4  C   UNL     1      -6.238   7.785  71.676  1.00  0.00    -0.035 A  
HETATM    5  O   UNL     1      -5.202   8.472  72.245  1.00  0.00    -0.036 OA 
HETATM    6  C   UNL     1      -6.017   7.163  70.455  1.00  0.00    -0.024 A  
HETATM    7  C   UNL     1      -7.073   6.500  69.828  1.00  0.00    -0.072 A  
HETATM    8  H   UNL     1      -4.356   8.509  71.815  1.00  0.00     0.000 HD 
HETATM    9  C   UNL     1      -8.346   6.470  70.420  1.00  0.00    -0.127 A  
HETATM   10  C   UNL     1      -8.534   7.061  71.682  1.00  0.00    -0.115 A  
BRANCH   9  11
HETATM   11  C   UNL     1      -9.503   5.841  69.688  1.00  0.00    -0.140 C  
BRANCH  11  12
HETATM   12  N   UNL     1     -10.751   6.019  70.390  1.00  0.00    -0.268 N  
HETATM   13  C   UNL     1     -11.622   7.012  70.011  1.00  0.00    -0.178 C  
HETATM   14  H   UNL     1     -10.988   5.405  71.169  1.00  0.00     0.000 HD 
HETATM   15  O   UNL     1     -11.404   7.782  69.081  1.00  0.00     0.196 OA 
BRANCH  13  16
HETATM   16  C   UNL     1     -12.875   7.087  70.860  1.00  0.00    -0.172 C  
BRANCH  16  17
HETATM   17  C   UNL     1     -12.654   7.867  72.156  1.00  0.00    -0.283 C  
BRANCH  17  18
HETATM   18  C   UNL     1     -13.433   9.188  72.174  1.00  0.00    -0.530 C  
BRANCH  18  19
HETATM   19  C   UNL     1     -12.593  10.340  71.624  1.00  0.00    -0.534 C  
BRANCH  19  20
HETATM   20  C   UNL     1     -13.161  11.667  72.041  1.00  0.00    -0.443 C  
HETATM   21  C   UNL     1     -12.738  12.846  71.564  1.00  0.00    -0.339 C  
HETATM   22  C   UNL     1     -13.307  14.177  71.988  1.00  0.00    -0.502 C  
HETATM   23  C   UNL     1     -13.951  14.878  70.793  1.00  0.00     0.012 C  
HETATM   24  C   UNL     1     -12.206  15.048  72.594  1.00  0.00    -0.439 C  
ENDBRANCH  19  20
ENDBRANCH  18  19
ENDBRANCH  17  18
ENDBRANCH  16  17
ENDBRANCH  13  16
ENDBRANCH  11  12
ENDBRANCH   9  11
ENDBRANCH   2   3
TORSDOF 8
ENDMDL
MODEL      352
REMARK 921   NORMALIZED FREE ENERGY PREDICTED BY IDOCK:   -2.77 KCAL/MOL
REMARK 922        TOTAL FREE ENERGY PREDICTED BY IDOCK:   -5.28 KCAL/MOL
REMARK 923 INTER-LIGAND FREE ENERGY PREDICTED BY IDOCK:   -4.22 KCAL/MOL
REMARK 924 INTRA-LIGAND FREE ENERGY PREDICTED BY IDOCK:   -1.06 KCAL/MOL
REMARK 927      BINDING AFFINITY PREDICTED BY RF-SCORE:    0.00 PKD
ROOT
HETATM    1  C   UNL     1      -7.837   5.839  66.589  1.00  0.00    -0.101 C  
HETATM    2  O   UNL     1      -7.815   5.447  67.956  1.00  0.00    -0.091 OA 
ENDROOT
BRANCH   2   3
HETATM    3  C   UNL     1      -8.571   6.196  68.821  1.00  0.00    -0.120 A  
HETATM    4  C   UNL     1      -9.723   5.562  69.300  1.00  0.00    -0.159 A  
HETATM    5  O   UNL     1     -10.036   4.296  68.889  1.00  0.00    -0.113 OA 
HETATM    6  C   UNL     1     -10.584   6.193  70.187  1.00  0.00    -0.321 A  
HETATM    7  C   UNL     1     -10.315   7.504  70.580  1.00  0.00    -0.211 A  
HETATM    8  H   UNL     1     -10.817   3.865  69.214  1.00  0.00     0.000 HD 
HETATM    9  C   UNL     1      -9.192   8.182  70.079  1.00  0.00    -0.155 A  
HETATM   10  C   UNL     1      -8.304   7.506  69.223  1.00  0.00    -0.132 A  
BRANCH   9  11
HETATM   11  C   UNL     1      -8.967   9.631  70.428  1.00  0.00    -0.187 C  
BRANCH  11  12
HETATM   12  N   UNL     1      -9.801  10.514  69.651  1.00  0.00    -0.409 N  
HETATM   13  C   UNL     1      -9.232  11.438  68.808  1.00  0.00    -0.100 C  
HETATM   14  H   UNL     1     -10.816  10.451  69.726  1.00  0.00     0.000 HD 
HETATM   15  O   UNL     1      -8.021  11.564  68.664  1.00  0.00    -0.140 OA 
BRANCH  13  16
HETATM   16  C   UNL     1     -10.239  12.307  68.081  1.00  0.00    -0.212 C  
BRANCH  16  17
HETATM   17  C   UNL     1     -11.277  11.483  67.319  1.00  0.00    -0.365 C  
BRANCH  17  18
HETATM   18  C   UNL     1     -10.638  10.619  66.225  1.00  0.00    -0.229 C  
BRANCH  18  19
HETATM   19  C   UNL     1     -10.515  11.385  64.908  1.00  0.00    -0.363 C  
BRANCH  19  20
HETATM   20  C   UNL     1      -9.465  10.771  64.026  1.00  0.00    -0.312 C  
HETATM   21  C   UNL     1      -8.773   9.668  64.342  1.00  0.00    -0.230 C  
HETATM   22  C   UNL     1      -7.716   9.056  63.457  1.00  0.00    -0.121 C  
HETATM   23  C   UNL     1      -8.137   7.651  63.028  1.00  0.00    -0.073 C  
HETATM   24  C   UNL     1      -6.376   9.017  64.192  1.00  0.00    -0.079 C  
ENDBRANCH  19  20
ENDBRANCH  18  19
ENDBRANCH  17  18
ENDBRANCH  16  17
ENDBRANCH  13  16
ENDBRANCH  11  12
ENDBRANCH   9  11
ENDBRANCH   2   3
TORSDOF 8
ENDMDL
MODEL      353
REMARK 921   NORMALIZED FREE ENERGY PREDICTED BY IDOCK:   -2.75 KCAL/MOL
REMARK 922        TOTAL FREE ENERGY PREDICTED BY IDOCK:   -5.25 KCAL/MOL
REMARK 923 INTER-LIGAND FREE ENERGY PREDICTED BY IDOCK:   -4.63 KCAL/MOL
REMARK 924 INTRA-LIGAND FREE ENERGY PREDICTED BY IDOCK:   -0.62 KCAL/MOL
REMARK 927      BINDING AFFINITY PREDICTED BY RF-SCORE:    0.00 PKD
ROOT
HETATM    1  C   UNL     1     -11.974  13.456  67.734  1.00  0.00    -0.324 C  
HETATM    2  O   UNL     1     -10.946  14.322  67.272  1.00  0.00    -0.286 OA 
ENDROOT
BRANCH   2   3
HETATM    3  C   UNL     1      -9.655  13.939  67.539  1.00  0.00    -0.229 A  
HETATM    4  C   UNL     1      -8.675  14.865  67.167  1.00  0.00    -0.219 A  
HETATM    5  O   UNL     1      -9.029  16.041  66.566  1.00  0.00    -0.235 OA 
HETATM    6  C   UNL     1      -7.325  14.619  67.378  1.00  0.00    -0.195 A  
HETATM    7  C   UNL     1      -6.936  13.403  67.941  1.00  0.00    -0.141 A  
HETATM    8  H   UNL     1      -8.363  16.670  66.313  1.00  0.00     0.000 HD 
HETATM    9  C   UNL     1      -7.894  12.436  68.281  1.00  0.00    -0.150 A  
HETATM   10  C   UNL     1      -9.260  12.727  68.108  1.00  0.00    -0.212 A  
BRANCH   9  11
HETATM   11  C   UNL     1      -7.458  11.087  68.793  1.00  0.00    -0.116 C  
BRANCH  11  12
HETATM   12  N   UNL     1      -8.579  10.238  69.112  1.00  0.00    -0.154 N  
HETATM   13  C   UNL     1      -8.593   9.523  70.285  1.00  0.00    -0.226 C  
HETATM   14  H   UNL     1      -9.364  10.168  68.464  1.00  0.00     0.000 HD 
HETATM   15  O   UNL     1      -7.687   9.563  71.110  1.00  0.00    -0.325 OA 
BRANCH  13  16
HETATM   16  C   UNL     1      -9.826   8.660  70.463  1.00  0.00    -0.210 C  
BRANCH  16  17
HETATM   17  C   UNL     1     -10.223   7.937  69.176  1.00  0.00    -0.219 C  
BRANCH  17  18
HETATM   18  C   UNL     1      -9.483   6.605  69.010  1.00  0.00    -0.131 C  
BRANCH  18  19
HETATM   19  C   UNL     1     -10.445   5.472  68.651  1.00  0.00    -0.240 C  
BRANCH  19  20
HETATM   20  C   UNL     1      -9.904   4.648  67.517  1.00  0.00    -0.200 C  
HETATM   21  C   UNL     1     -10.059   4.963  66.223  1.00  0.00    -0.285 C  
HETATM   22  C   UNL     1      -9.520   4.132  65.085  1.00  0.00    -0.173 C  
HETATM   23  C   UNL     1      -8.491   4.934  64.289  1.00  0.00    -0.137 C  
HETATM   24  C   UNL     1     -10.665   3.675  64.182  1.00  0.00    -0.221 C  
ENDBRANCH  19  20
ENDBRANCH  18  19
ENDBRANCH  17  18
ENDBRANCH  16  17
ENDBRANCH  13  16
ENDBRANCH  11  12
ENDBRANCH   9  11
ENDBRANCH   2   3
TORSDOF 8
ENDMDL
MODEL      354
REMARK 921   NORMALIZED FREE ENERGY PREDICTED BY IDOCK:   -2.74 KCAL/MOL
REMARK 922        TOTAL FREE ENERGY PREDICTED BY IDOCK:   -5.23 KCAL/MOL
REMARK 923 INTER-LIGAND FREE ENERGY PREDICTED BY IDOCK:   -4.48 KCAL/MOL
REMARK 924 INTRA-LIGAND FREE ENERGY PREDICTED BY IDOCK:   -0.75 KCAL/MOL
REMARK 927      BINDING AFFINITY PREDICTED BY RF-SCORE:    0.00 PKD
ROOT
HETATM    1  C   UNL     1     -12.534  13.600  65.004  1.00  0.00    -0.414 C  
HETATM    2  O   UNL     1     -11.462  14.525  65.133  1.00  0.00    -0.341 OA 
ENDROOT
BRANCH   2   3
HETATM    3  C   UNL     1     -10.540  14.262  66.115  1.00  0.00    -0.293 A  
HETATM    4  C   UNL     1      -9.630  15.295  66.364  1.00  0.00    -0.292 A  
HETATM    5  O   UNL     1      -9.685  16.453  65.638  1.00  0.00    -0.492 OA 
HETATM    6  C   UNL     1      -8.643  15.176  67.332  1.00  0.00    -0.201 A  
HETATM    7  C   UNL     1      -8.533  13.984  68.049  1.00  0.00    -0.171 A  
HETATM    8  H   UNL     1      -9.068  17.155  65.807  1.00  0.00     0.000 HD 
HETATM    9  C   UNL     1      -9.403  12.913  67.788  1.00  0.00    -0.203 A  
HETATM   10  C   UNL     1     -10.429  13.074  66.839  1.00  0.00    -0.258 A  
BRANCH   9  11
HETATM   11  C   UNL     1      -9.210  11.595  68.493  1.00  0.00    -0.163 C  
BRANCH  11  12
HETATM   12  N   UNL     1      -7.835  11.376  68.870  1.00  0.00    -0.252 N  
HETATM   13  C   UNL     1      -7.035  10.552  68.116  1.00  0.00    -0.073 C  
HETATM   14  H   UNL     1      -7.456  11.836  69.698  1.00  0.00     0.000 HD 
HETATM   15  O   UNL     1      -7.424   9.973  67.107  1.00  0.00    -0.091 OA 
BRANCH  13  16
HETATM   16  C   UNL     1      -5.626  10.404  68.655  1.00  0.00    -0.037 C  
BRANCH  16  17
HETATM   17  C   UNL     1      -5.583   9.618  69.966  1.00  0.00    -0.040 C  
BRANCH  17  18
HETATM   18  C   UNL     1      -6.257   8.248  69.840  1.00  0.00    -0.032 C  
BRANCH  18  19
HETATM   19  C   UNL     1      -6.368   7.552  71.196  1.00  0.00    -0.035 C  
BRANCH  19  20
HETATM   20  C   UNL     1      -7.717   6.911  71.362  1.00  0.00    -0.092 C  
HETATM   21  C   UNL     1      -8.786   7.213  70.613  1.00  0.00    -0.149 C  
HETATM   22  C   UNL     1     -10.141   6.572  70.785  1.00  0.00    -0.211 C  
HETATM   23  C   UNL     1     -10.524   5.803  69.521  1.00  0.00    -0.364 C  
HETATM   24  C   UNL     1     -11.189   7.638  71.105  1.00  0.00    -0.280 C  
ENDBRANCH  19  20
ENDBRANCH  18  19
ENDBRANCH  17  18
ENDBRANCH  16  17
ENDBRANCH  13  16
ENDBRANCH  11  12
ENDBRANCH   9  11
ENDBRANCH   2   3
TORSDOF 8
ENDMDL
MODEL      355
REMARK 921   NORMALIZED FREE ENERGY PREDICTED BY IDOCK:   -2.74 KCAL/MOL
REMARK 922        TOTAL FREE ENERGY PREDICTED BY IDOCK:   -5.23 KCAL/MOL
REMARK 923 INTER-LIGAND FREE ENERGY PREDICTED BY IDOCK:   -3.48 KCAL/MOL
REMARK 924 INTRA-LIGAND FREE ENERGY PREDICTED BY IDOCK:   -1.75 KCAL/MOL
REMARK 927      BINDING AFFINITY PREDICTED BY RF-SCORE:    0.00 PKD
ROOT
HETATM    1  C   UNL     1      -7.713   4.987  67.133  1.00  0.00    -0.092 C  
HETATM    2  O   UNL     1      -6.817   5.177  68.221  1.00  0.00    -0.053 OA 
ENDROOT
BRANCH   2   3
HETATM    3  C   UNL     1      -6.761   6.440  68.755  1.00  0.00    -0.061 A  
HETATM    4  C   UNL     1      -7.139   6.530  70.099  1.00  0.00    -0.074 A  
HETATM    5  O   UNL     1      -7.547   5.416  70.778  1.00  0.00    -0.083 OA 
HETATM    6  C   UNL     1      -7.128   7.742  70.777  1.00  0.00    -0.053 A  
HETATM    7  C   UNL     1      -6.767   8.901  70.091  1.00  0.00    -0.041 A  
HETATM    8  H   UNL     1      -7.804   5.477  71.691  1.00  0.00     0.000 HD 
HETATM    9  C   UNL     1      -6.428   8.848  68.730  1.00  0.00    -0.053 A  
HETATM   10  C   UNL     1      -6.394   7.603  68.076  1.00  0.00    -0.049 A  
BRANCH   9  11
HETATM   11  C   UNL     1      -6.139  10.119  67.973  1.00  0.00    -0.052 C  
BRANCH  11  12
HETATM   12  N   UNL     1      -7.344  10.755  67.500  1.00  0.00    -0.090 N  
HETATM   13  C   UNL     1      -7.770  10.554  66.209  1.00  0.00    -0.135 C  
HETATM   14  H   UNL     1      -7.882  11.355  68.125  1.00  0.00     0.000 HD 
HETATM   15  O   UNL     1      -7.177   9.842  65.405  1.00  0.00    -0.111 OA 
BRANCH  13  16
HETATM   16  C   UNL     1      -9.037  11.309  65.855  1.00  0.00    -0.217 C  
BRANCH  16  17
HETATM   17  C   UNL     1     -10.274  10.411  65.872  1.00  0.00    -0.302 C  
BRANCH  17  18
HETATM   18  C   UNL     1     -10.523   9.797  67.254  1.00  0.00    -0.324 C  
BRANCH  18  19
HETATM   19  C   UNL     1     -10.023   8.355  67.325  1.00  0.00    -0.291 C  
BRANCH  19  20
HETATM   20  C   UNL     1     -10.311   7.752  68.670  1.00  0.00    -0.221 C  
HETATM   21  C   UNL     1     -10.805   8.440  69.708  1.00  0.00    -0.184 C  
HETATM   22  C   UNL     1     -11.090   7.833  71.060  1.00  0.00    -0.273 C  
HETATM   23  C   UNL     1     -12.583   7.921  71.373  1.00  0.00    -0.319 C  
HETATM   24  C   UNL     1     -10.271   8.546  72.137  1.00  0.00    -0.403 C  
ENDBRANCH  19  20
ENDBRANCH  18  19
ENDBRANCH  17  18
ENDBRANCH  16  17
ENDBRANCH  13  16
ENDBRANCH  11  12
ENDBRANCH   9  11
ENDBRANCH   2   3
TORSDOF 8
ENDMDL
MODEL      356
REMARK 921   NORMALIZED FREE ENERGY PREDICTED BY IDOCK:   -2.68 KCAL/MOL
REMARK 922        TOTAL FREE ENERGY PREDICTED BY IDOCK:   -5.14 KCAL/MOL
REMARK 923 INTER-LIGAND FREE ENERGY PREDICTED BY IDOCK:   -4.17 KCAL/MOL
REMARK 924 INTRA-LIGAND FREE ENERGY PREDICTED BY IDOCK:   -0.97 KCAL/MOL
REMARK 927      BINDING AFFINITY PREDICTED BY RF-SCORE:    0.00 PKD
ROOT
HETATM    1  C   UNL     1     -14.411   8.505  72.128  1.00  0.00    -0.436 C  
HETATM    2  O   UNL     1     -13.189   9.094  72.554  1.00  0.00    -0.444 OA 
ENDROOT
BRANCH   2   3
HETATM    3  C   UNL     1     -12.222   9.262  71.595  1.00  0.00    -0.370 A  
HETATM    4  C   UNL     1     -12.025  10.583  71.180  1.00  0.00    -0.336 A  
HETATM    5  O   UNL     1     -12.781  11.593  71.708  1.00  0.00    -0.316 OA 
HETATM    6  C   UNL     1     -11.077  10.910  70.219  1.00  0.00    -0.173 A  
HETATM    7  C   UNL     1     -10.330   9.891  69.627  1.00  0.00    -0.265 A  
HETATM    8  H   UNL     1     -12.647  12.491  71.426  1.00  0.00     0.000 HD 
HETATM    9  C   UNL     1     -10.539   8.551  69.990  1.00  0.00    -0.230 A  
HETATM   10  C   UNL     1     -11.467   8.248  71.003  1.00  0.00    -0.303 A  
BRANCH   9  11
HETATM   11  C   UNL     1      -9.802   7.450  69.272  1.00  0.00    -0.168 C  
BRANCH  11  12
HETATM   12  N   UNL     1      -8.386   7.713  69.185  1.00  0.00    -0.130 N  
HETATM   13  C   UNL     1      -7.555   7.380  70.227  1.00  0.00    -0.088 C  
HETATM   14  H   UNL     1      -8.000   8.147  68.346  1.00  0.00     0.000 HD 
HETATM   15  O   UNL     1      -7.950   6.852  71.262  1.00  0.00    -0.106 OA 
BRANCH  13  16
HETATM   16  C   UNL     1      -6.102   7.741  69.994  1.00  0.00    -0.026 C  
BRANCH  16  17
HETATM   17  C   UNL     1      -5.803   9.202  70.333  1.00  0.00    -0.036 C  
BRANCH  17  18
HETATM   18  C   UNL     1      -5.401  10.011  69.095  1.00  0.00    -0.035 C  
BRANCH  18  19
HETATM   19  C   UNL     1      -6.585  10.213  68.150  1.00  0.00    -0.058 C  
BRANCH  19  20
HETATM   20  C   UNL     1      -7.190  11.576  68.331  1.00  0.00    -0.089 C  
HETATM   21  C   UNL     1      -7.251  12.503  67.365  1.00  0.00    -0.146 C  
HETATM   22  C   UNL     1      -7.855  13.873  67.550  1.00  0.00    -0.193 C  
HETATM   23  C   UNL     1      -9.062  14.045  66.628  1.00  0.00    -0.221 C  
HETATM   24  C   UNL     1      -6.806  14.950  67.273  1.00  0.00    -0.000 C  
ENDBRANCH  19  20
ENDBRANCH  18  19
ENDBRANCH  17  18
ENDBRANCH  16  17
ENDBRANCH  13  16
ENDBRANCH  11  12
ENDBRANCH   9  11
ENDBRANCH   2   3
TORSDOF 8
ENDMDL
MODEL      357
REMARK 921   NORMALIZED FREE ENERGY PREDICTED BY IDOCK:   -2.67 KCAL/MOL
REMARK 922        TOTAL FREE ENERGY PREDICTED BY IDOCK:   -5.12 KCAL/MOL
REMARK 923 INTER-LIGAND FREE ENERGY PREDICTED BY IDOCK:   -4.39 KCAL/MOL
REMARK 924 INTRA-LIGAND FREE ENERGY PREDICTED BY IDOCK:   -0.73 KCAL/MOL
REMARK 927      BINDING AFFINITY PREDICTED BY RF-SCORE:    0.00 PKD
ROOT
HETATM    1  C   UNL     1     -13.416   7.412  71.294  1.00  0.00    -0.262 C  
HETATM    2  O   UNL     1     -12.773   6.266  71.838  1.00  0.00    -0.203 OA 
ENDROOT
BRANCH   2   3
HETATM    3  C   UNL     1     -11.411   6.195  71.681  1.00  0.00    -0.272 A  
HETATM    4  C   UNL     1     -10.668   6.870  72.655  1.00  0.00    -0.244 A  
HETATM    5  O   UNL     1     -11.302   7.552  73.657  1.00  0.00    -0.561 OA 
HETATM    6  C   UNL     1      -9.280   6.883  72.631  1.00  0.00    -0.151 A  
HETATM    7  C   UNL     1      -8.612   6.239  71.590  1.00  0.00    -0.133 A  
HETATM    8  H   UNL     1     -10.797   8.011  74.319  1.00  0.00     0.000 HD 
HETATM    9  C   UNL     1      -9.332   5.593  70.572  1.00  0.00    -0.194 A  
HETATM   10  C   UNL     1     -10.737   5.547  70.645  1.00  0.00    -0.303 A  
BRANCH   9  11
HETATM   11  C   UNL     1      -8.605   4.989  69.398  1.00  0.00    -0.088 C  
BRANCH  11  12
HETATM   12  N   UNL     1      -8.059   5.996  68.522  1.00  0.00    -0.106 N  
HETATM   13  C   UNL     1      -8.470   6.069  67.212  1.00  0.00    -0.104 C  
HETATM   14  H   UNL     1      -7.366   6.656  68.875  1.00  0.00     0.000 HD 
HETATM   15  O   UNL     1      -9.302   5.312  66.723  1.00  0.00    -0.125 OA 
BRANCH  13  16
HETATM   16  C   UNL     1      -7.787   7.162  66.414  1.00  0.00    -0.109 C  
BRANCH  16  17
HETATM   17  C   UNL     1      -7.963   8.542  67.048  1.00  0.00    -0.100 C  
BRANCH  17  18
HETATM   18  C   UNL     1      -8.033   9.655  65.996  1.00  0.00    -0.108 C  
BRANCH  18  19
HETATM   19  C   UNL     1      -7.728  11.022  66.607  1.00  0.00    -0.153 C  
BRANCH  19  20
HETATM   20  C   UNL     1      -8.664  11.324  67.742  1.00  0.00    -0.134 C  
HETATM   21  C   UNL     1      -9.996  11.403  67.614  1.00  0.00    -0.196 C  
HETATM   22  C   UNL     1     -10.934  11.711  68.755  1.00  0.00    -0.274 C  
HETATM   23  C   UNL     1     -11.871  10.528  68.999  1.00  0.00    -0.183 C  
HETATM   24  C   UNL     1     -11.733  12.977  68.448  1.00  0.00    -0.386 C  
ENDBRANCH  19  20
ENDBRANCH  18  19
ENDBRANCH  17  18
ENDBRANCH  16  17
ENDBRANCH  13  16
ENDBRANCH  11  12
ENDBRANCH   9  11
ENDBRANCH   2   3
TORSDOF 8
ENDMDL
MODEL      358
REMARK 921   NORMALIZED FREE ENERGY PREDICTED BY IDOCK:   -2.65 KCAL/MOL
REMARK 922        TOTAL FREE ENERGY PREDICTED BY IDOCK:   -5.10 KCAL/MOL
REMARK 923 INTER-LIGAND FREE ENERGY PREDICTED BY IDOCK:   -4.24 KCAL/MOL
REMARK 924 INTRA-LIGAND FREE ENERGY PREDICTED BY IDOCK:   -0.86 KCAL/MOL
REMARK 927      BINDING AFFINITY PREDICTED BY RF-SCORE:    0.00 PKD
ROOT
HETATM    1  C   UNL     1      -6.381   8.727  74.312  1.00  0.00    -0.084 C  
HETATM    2  O   UNL     1      -5.545   9.138  73.236  1.00  0.00    -0.136 OA 
ENDROOT
BRANCH   2   3
HETATM    3  C   UNL     1      -5.983   8.836  71.971  1.00  0.00    -0.071 A  
HETATM    4  C   UNL     1      -6.075   9.929  71.102  1.00  0.00    -0.013 A  
HETATM    5  O   UNL     1      -5.761  11.186  71.538  1.00  0.00    -0.351 OA 
HETATM    6  C   UNL     1      -6.497   9.779  69.788  1.00  0.00    -0.053 A  
HETATM    7  C   UNL     1      -6.873   8.514  69.335  1.00  0.00    -0.046 A  
HETATM    8  H   UNL     1      -5.823  11.928  70.948  1.00  0.00     0.000 HD 
HETATM    9  C   UNL     1      -6.836   7.408  70.199  1.00  0.00    -0.055 A  
HETATM   10  C   UNL     1      -6.355   7.573  71.510  1.00  0.00    -0.035 A  
BRANCH   9  11
HETATM   11  C   UNL     1      -7.342   6.067  69.731  1.00  0.00    -0.079 C  
BRANCH  11  12
HETATM   12  N   UNL     1      -8.568   6.181  68.980  1.00  0.00    -0.121 N  
HETATM   13  C   UNL     1      -8.551   6.087  67.609  1.00  0.00    -0.106 C  
HETATM   14  H   UNL     1      -9.451   6.332  69.469  1.00  0.00     0.000 HD 
HETATM   15  O   UNL     1      -7.528   5.901  66.959  1.00  0.00    -0.082 OA 
BRANCH  13  16
HETATM   16  C   UNL     1      -9.913   6.252  66.965  1.00  0.00    -0.201 C  
BRANCH  16  17
HETATM   17  C   UNL     1     -10.635   7.512  67.445  1.00  0.00    -0.364 C  
BRANCH  17  18
HETATM   18  C   UNL     1      -9.858   8.788  67.102  1.00  0.00    -0.268 C  
BRANCH  18  19
HETATM   19  C   UNL     1     -10.450  10.009  67.804  1.00  0.00    -0.282 C  
BRANCH  19  20
HETATM   20  C   UNL     1     -10.546  11.176  66.863  1.00  0.00    -0.304 C  
HETATM   21  C   UNL     1     -11.614  11.982  66.775  1.00  0.00    -0.391 C  
HETATM   22  C   UNL     1     -11.710  13.151  65.826  1.00  0.00    -0.415 C  
HETATM   23  C   UNL     1     -11.843  14.456  66.610  1.00  0.00    -0.417 C  
HETATM   24  C   UNL     1     -12.899  12.964  64.884  1.00  0.00    -0.370 C  
ENDBRANCH  19  20
ENDBRANCH  18  19
ENDBRANCH  17  18
ENDBRANCH  16  17
ENDBRANCH  13  16
ENDBRANCH  11  12
ENDBRANCH   9  11
ENDBRANCH   2   3
TORSDOF 8
ENDMDL
MODEL      359
REMARK 921   NORMALIZED FREE ENERGY PREDICTED BY IDOCK:   -2.62 KCAL/MOL
REMARK 922        TOTAL FREE ENERGY PREDICTED BY IDOCK:   -5.05 KCAL/MOL
REMARK 923 INTER-LIGAND FREE ENERGY PREDICTED BY IDOCK:   -4.24 KCAL/MOL
REMARK 924 INTRA-LIGAND FREE ENERGY PREDICTED BY IDOCK:   -0.81 KCAL/MOL
REMARK 927      BINDING AFFINITY PREDICTED BY RF-SCORE:    0.00 PKD
ROOT
HETATM    1  C   UNL     1      -8.334   3.552  70.390  1.00  0.00    -0.056 C  
HETATM    2  O   UNL     1      -7.995   3.226  69.048  1.00  0.00    -0.053 OA 
ENDROOT
BRANCH   2   3
HETATM    3  C   UNL     1      -8.778   3.780  68.067  1.00  0.00    -0.104 A  
HETATM    4  C   UNL     1      -8.857   3.037  66.884  1.00  0.00    -0.145 A  
HETATM    5  O   UNL     1      -8.168   1.863  66.759  1.00  0.00    -0.075 OA 
HETATM    6  C   UNL     1      -9.615   3.468  65.804  1.00  0.00    -0.109 A  
HETATM    7  C   UNL     1     -10.285   4.689  65.887  1.00  0.00    -0.303 A  
HETATM    8  H   UNL     1      -8.221   1.358  65.956  1.00  0.00     0.000 HD 
HETATM    9  C   UNL     1     -10.186   5.478  67.044  1.00  0.00    -0.265 A  
HETATM   10  C   UNL     1      -9.456   4.997  68.146  1.00  0.00    -0.169 A  
BRANCH   9  11
HETATM   11  C   UNL     1     -10.828   6.841  67.086  1.00  0.00    -0.392 C  
BRANCH  11  12
HETATM   12  N   UNL     1     -10.063   7.824  66.359  1.00  0.00    -0.481 N  
HETATM   13  C   UNL     1     -10.279   9.165  66.572  1.00  0.00    -0.252 C  
HETATM   14  H   UNL     1      -9.359   7.524  65.685  1.00  0.00     0.000 HD 
HETATM   15  O   UNL     1     -11.105   9.596  67.371  1.00  0.00    -0.183 OA 
BRANCH  13  16
HETATM   16  C   UNL     1      -9.416  10.070  65.716  1.00  0.00    -0.270 C  
BRANCH  16  17
HETATM   17  C   UNL     1      -9.544  11.541  66.112  1.00  0.00    -0.248 C  
BRANCH  17  18
HETATM   18  C   UNL     1      -8.663  11.893  67.316  1.00  0.00    -0.171 C  
BRANCH  18  19
HETATM   19  C   UNL     1      -7.605  10.819  67.568  1.00  0.00    -0.094 C  
BRANCH  19  20
HETATM   20  C   UNL     1      -7.610  10.388  69.008  1.00  0.00    -0.108 C  
HETATM   21  C   UNL     1      -8.246   9.298  69.460  1.00  0.00    -0.121 C  
HETATM   22  C   UNL     1      -8.253   8.870  70.907  1.00  0.00    -0.207 C  
HETATM   23  C   UNL     1      -7.578   7.507  71.056  1.00  0.00    -0.084 C  
HETATM   24  C   UNL     1      -9.688   8.821  71.431  1.00  0.00    -0.351 C  
ENDBRANCH  19  20
ENDBRANCH  18  19
ENDBRANCH  17  18
ENDBRANCH  16  17
ENDBRANCH  13  16
ENDBRANCH  11  12
ENDBRANCH   9  11
ENDBRANCH   2   3
TORSDOF 8
ENDMDL
MODEL      360
REMARK 921   NORMALIZED FREE ENERGY PREDICTED BY IDOCK:   -2.60 KCAL/MOL
REMARK 922        TOTAL FREE ENERGY PREDICTED BY IDOCK:   -5.02 KCAL/MOL
REMARK 923 INTER-LIGAND FREE ENERGY PREDICTED BY IDOCK:   -4.49 KCAL/MOL
REMARK 924 INTRA-LIGAND FREE ENERGY PREDICTED BY IDOCK:   -0.53 KCAL/MOL
REMARK 927      BINDING AFFINITY PREDICTED BY RF-SCORE:    0.00 PKD
ROOT
HETATM    1  C   UNL     1     -12.657  13.666  64.854  1.00  0.00    -0.336 C  
HETATM    2  O   UNL     1     -11.588  14.555  65.153  1.00  0.00    -0.347 OA 
ENDROOT
BRANCH   2   3
HETATM    3  C   UNL     1     -10.617  14.081  66.000  1.00  0.00    -0.297 A  
HETATM    4  C   UNL     1      -9.806  15.064  66.577  1.00  0.00    -0.260 A  
HETATM    5  O   UNL     1      -9.995  16.384  66.270  1.00  0.00    -0.286 OA 
HETATM    6  C   UNL     1      -8.785  14.738  67.459  1.00  0.00    -0.195 A  
HETATM    7  C   UNL     1      -8.538  13.396  67.747  1.00  0.00    -0.194 A  
HETATM    8  H   UNL     1      -9.445  17.051  66.662  1.00  0.00     0.000 HD 
HETATM    9  C   UNL     1      -9.305  12.385  67.146  1.00  0.00    -0.199 A  
HETATM   10  C   UNL     1     -10.369  12.741  66.297  1.00  0.00    -0.271 A  
BRANCH   9  11
HETATM   11  C   UNL     1      -8.964  10.937  67.384  1.00  0.00    -0.136 C  
BRANCH  11  12
HETATM   12  N   UNL     1      -9.891  10.302  68.288  1.00  0.00    -0.144 N  
HETATM   13  C   UNL     1      -9.500   9.980  69.566  1.00  0.00    -0.226 C  
HETATM   14  H   UNL     1     -10.841  10.092  67.979  1.00  0.00     0.000 HD 
HETATM   15  O   UNL     1      -8.378  10.209  70.005  1.00  0.00    -0.160 OA 
BRANCH  13  16
HETATM   16  C   UNL     1     -10.578   9.297  70.384  1.00  0.00    -0.298 C  
BRANCH  16  17
HETATM   17  C   UNL     1     -10.992   7.949  69.793  1.00  0.00    -0.148 C  
BRANCH  17  18
HETATM   18  C   UNL     1      -9.784   7.051  69.504  1.00  0.00    -0.160 C  
BRANCH  18  19
HETATM   19  C   UNL     1     -10.119   5.575  69.719  1.00  0.00    -0.302 C  
BRANCH  19  20
HETATM   20  C   UNL     1      -9.619   4.738  68.576  1.00  0.00    -0.218 C  
HETATM   21  C   UNL     1      -8.639   3.831  68.686  1.00  0.00    -0.121 C  
HETATM   22  C   UNL     1      -8.134   2.994  67.537  1.00  0.00    -0.077 C  
HETATM   23  C   UNL     1      -8.390   1.513  67.811  1.00  0.00    -0.078 C  
HETATM   24  C   UNL     1      -6.643   3.252  67.317  1.00  0.00    -0.038 C  
ENDBRANCH  19  20
ENDBRANCH  18  19
ENDBRANCH  17  18
ENDBRANCH  16  17
ENDBRANCH  13  16
ENDBRANCH  11  12
ENDBRANCH   9  11
ENDBRANCH   2   3
TORSDOF 8
ENDMDL
MODEL      361
REMARK 921   NORMALIZED FREE ENERGY PREDICTED BY IDOCK:   -2.57 KCAL/MOL
REMARK 922        TOTAL FREE ENERGY PREDICTED BY IDOCK:   -4.98 KCAL/MOL
REMARK 923 INTER-LIGAND FREE ENERGY PREDICTED BY IDOCK:   -4.29 KCAL/MOL
REMARK 924 INTRA-LIGAND FREE ENERGY PREDICTED BY IDOCK:   -0.68 KCAL/MOL
REMARK 927      BINDING AFFINITY PREDICTED BY RF-SCORE:    0.00 PKD
ROOT
HETATM    1  C   UNL     1     -10.110   3.810  65.102  1.00  0.00    -0.089 C  
HETATM    2  O   UNL     1      -9.581   3.813  66.422  1.00  0.00    -0.191 OA 
ENDROOT
BRANCH   2   3
HETATM    3  C   UNL     1      -9.761   4.960  67.152  1.00  0.00    -0.175 A  
HETATM    4  C   UNL     1      -9.684   4.796  68.539  1.00  0.00    -0.151 A  
HETATM    5  O   UNL     1      -9.463   3.558  69.077  1.00  0.00    -0.164 OA 
HETATM    6  C   UNL     1      -9.840   5.868  69.407  1.00  0.00    -0.207 A  
HETATM    7  C   UNL     1     -10.118   7.131  68.886  1.00  0.00    -0.177 A  
HETATM    8  H   UNL     1      -9.410   3.446  70.018  1.00  0.00     0.000 HD 
HETATM    9  C   UNL     1     -10.248   7.317  67.500  1.00  0.00    -0.284 A  
HETATM   10  C   UNL     1     -10.033   6.228  66.636  1.00  0.00    -0.207 A  
BRANCH   9  11
HETATM   11  C   UNL     1     -10.650   8.663  66.953  1.00  0.00    -0.200 C  
BRANCH  11  12
HETATM   12  N   UNL     1      -9.609   9.648  67.115  1.00  0.00    -0.161 N  
HETATM   13  C   UNL     1      -8.790   9.969  66.059  1.00  0.00    -0.145 C  
HETATM   14  H   UNL     1      -9.481  10.108  68.017  1.00  0.00     0.000 HD 
HETATM   15  O   UNL     1      -8.892   9.460  64.948  1.00  0.00    -0.182 OA 
BRANCH  13  16
HETATM   16  C   UNL     1      -7.732  11.001  66.394  1.00  0.00    -0.146 C  
BRANCH  16  17
HETATM   17  C   UNL     1      -8.046  11.760  67.684  1.00  0.00    -0.144 C  
BRANCH  17  18
HETATM   18  C   UNL     1      -7.913  13.277  67.507  1.00  0.00    -0.186 C  
BRANCH  18  19
HETATM   19  C   UNL     1      -7.334  13.937  68.758  1.00  0.00    -0.118 C  
BRANCH  19  20
HETATM   20  C   UNL     1      -8.142  15.141  69.152  1.00  0.00    -0.214 C  
HETATM   21  C   UNL     1      -9.420  15.334  68.798  1.00  0.00    -0.212 C  
HETATM   22  C   UNL     1     -10.228  16.547  69.191  1.00  0.00    -0.298 C  
HETATM   23  C   UNL     1     -11.411  16.130  70.063  1.00  0.00    -0.294 C  
HETATM   24  C   UNL     1     -10.711  17.281  67.941  1.00  0.00    -0.351 C  
ENDBRANCH  19  20
ENDBRANCH  18  19
ENDBRANCH  17  18
ENDBRANCH  16  17
ENDBRANCH  13  16
ENDBRANCH  11  12
ENDBRANCH   9  11
ENDBRANCH   2   3
TORSDOF 8
ENDMDL
MODEL      362
REMARK 921   NORMALIZED FREE ENERGY PREDICTED BY IDOCK:   -2.55 KCAL/MOL
REMARK 922        TOTAL FREE ENERGY PREDICTED BY IDOCK:   -4.96 KCAL/MOL
REMARK 923 INTER-LIGAND FREE ENERGY PREDICTED BY IDOCK:   -4.41 KCAL/MOL
REMARK 924 INTRA-LIGAND FREE ENERGY PREDICTED BY IDOCK:   -0.54 KCAL/MOL
REMARK 927      BINDING AFFINITY PREDICTED BY RF-SCORE:    0.00 PKD
ROOT
HETATM    1  C   UNL     1      -6.029   3.973  66.201  1.00  0.00    -0.027 C  
HETATM    2  O   UNL     1      -7.132   4.144  67.083  1.00  0.00    -0.064 OA 
ENDROOT
BRANCH   2   3
HETATM    3  C   UNL     1      -7.742   5.373  67.069  1.00  0.00    -0.100 A  
HETATM    4  C   UNL     1      -8.995   5.403  66.447  1.00  0.00    -0.131 A  
HETATM    5  O   UNL     1      -9.517   4.268  65.891  1.00  0.00    -0.149 OA 
HETATM    6  C   UNL     1      -9.736   6.574  66.361  1.00  0.00    -0.133 A  
HETATM    7  C   UNL     1      -9.201   7.756  66.873  1.00  0.00    -0.187 A  
HETATM    8  H   UNL     1     -10.368   4.288  65.469  1.00  0.00     0.000 HD 
HETATM    9  C   UNL     1      -7.926   7.766  67.461  1.00  0.00    -0.123 A  
HETATM   10  C   UNL     1      -7.216   6.558  67.586  1.00  0.00    -0.090 A  
BRANCH   9  11
HETATM   11  C   UNL     1      -7.315   9.065  67.918  1.00  0.00    -0.084 C  
BRANCH  11  12
HETATM   12  N   UNL     1      -8.030  10.210  67.411  1.00  0.00    -0.109 N  
HETATM   13  C   UNL     1      -8.963  10.846  68.195  1.00  0.00    -0.144 C  
HETATM   14  H   UNL     1      -7.843  10.549  66.467  1.00  0.00     0.000 HD 
HETATM   15  O   UNL     1      -9.234  10.496  69.338  1.00  0.00    -0.184 OA 
BRANCH  13  16
HETATM   16  C   UNL     1      -9.645  12.015  67.511  1.00  0.00    -0.177 C  
BRANCH  16  17
HETATM   17  C   UNL     1      -8.648  12.963  66.845  1.00  0.00    -0.132 C  
BRANCH  17  18
HETATM   18  C   UNL     1      -9.117  14.422  66.896  1.00  0.00    -0.269 C  
BRANCH  18  19
HETATM   19  C   UNL     1     -10.528  14.536  67.473  1.00  0.00    -0.253 C  
BRANCH  19  20
HETATM   20  C   UNL     1     -10.907  15.975  67.684  1.00  0.00    -0.311 C  
HETATM   21  C   UNL     1     -10.096  17.009  67.420  1.00  0.00    -0.291 C  
HETATM   22  C   UNL     1     -10.476  18.453  67.637  1.00  0.00    -0.445 C  
HETATM   23  C   UNL     1     -10.480  19.202  66.306  1.00  0.00    -0.551 C  
HETATM   24  C   UNL     1      -9.507  19.107  68.621  1.00  0.00    -0.460 C  
ENDBRANCH  19  20
ENDBRANCH  18  19
ENDBRANCH  17  18
ENDBRANCH  16  17
ENDBRANCH  13  16
ENDBRANCH  11  12
ENDBRANCH   9  11
ENDBRANCH   2   3
TORSDOF 8
ENDMDL
MODEL      363
REMARK 921   NORMALIZED FREE ENERGY PREDICTED BY IDOCK:   -2.48 KCAL/MOL
REMARK 922        TOTAL FREE ENERGY PREDICTED BY IDOCK:   -4.84 KCAL/MOL
REMARK 923 INTER-LIGAND FREE ENERGY PREDICTED BY IDOCK:   -3.23 KCAL/MOL
REMARK 924 INTRA-LIGAND FREE ENERGY PREDICTED BY IDOCK:   -1.61 KCAL/MOL
REMARK 927      BINDING AFFINITY PREDICTED BY RF-SCORE:    0.00 PKD
ROOT
HETATM    1  C   UNL     1      -8.470   3.661  70.342  1.00  0.00    -0.057 C  
HETATM    2  O   UNL     1      -8.192   3.242  69.012  1.00  0.00    -0.059 OA 
ENDROOT
BRANCH   2   3
HETATM    3  C   UNL     1      -8.946   3.814  68.019  1.00  0.00    -0.126 A  
HETATM    4  C   UNL     1      -8.988   3.094  66.820  1.00  0.00    -0.158 A  
HETATM    5  O   UNL     1      -8.293   1.923  66.693  1.00  0.00    -0.080 OA 
HETATM    6  C   UNL     1      -9.715   3.545  65.726  1.00  0.00    -0.056 A  
HETATM    7  C   UNL     1     -10.389   4.763  65.813  1.00  0.00    -0.268 A  
HETATM    8  H   UNL     1      -8.321   1.434  65.879  1.00  0.00     0.000 HD 
HETATM    9  C   UNL     1     -10.327   5.529  66.988  1.00  0.00    -0.306 A  
HETATM   10  C   UNL     1      -9.628   5.028  68.102  1.00  0.00    -0.182 A  
BRANCH   9  11
HETATM   11  C   UNL     1     -10.972   6.890  67.036  1.00  0.00    -0.334 C  
BRANCH  11  12
HETATM   12  N   UNL     1     -10.120   7.916  66.486  1.00  0.00    -0.448 N  
HETATM   13  C   UNL     1     -10.277   9.225  66.873  1.00  0.00    -0.256 C  
HETATM   14  H   UNL     1      -9.399   7.668  65.808  1.00  0.00     0.000 HD 
HETATM   15  O   UNL     1     -11.118   9.593  67.686  1.00  0.00    -0.214 OA 
BRANCH  13  16
HETATM   16  C   UNL     1      -9.324  10.185  66.188  1.00  0.00    -0.217 C  
BRANCH  16  17
HETATM   17  C   UNL     1      -8.109  10.517  67.054  1.00  0.00    -0.118 C  
BRANCH  17  18
HETATM   18  C   UNL     1      -6.849   9.778  66.588  1.00  0.00    -0.084 C  
BRANCH  18  19
HETATM   19  C   UNL     1      -6.977   9.313  65.138  1.00  0.00    -0.085 C  
BRANCH  19  20
HETATM   20  C   UNL     1      -6.253   8.015  64.924  1.00  0.00    -0.048 C  
HETATM   21  C   UNL     1      -6.728   6.821  65.306  1.00  0.00    -0.051 C  
HETATM   22  C   UNL     1      -5.996   5.518  65.095  1.00  0.00    -0.022 C  
HETATM   23  C   UNL     1      -6.805   4.604  64.176  1.00  0.00    -0.045 C  
HETATM   24  C   UNL     1      -5.738   4.839  66.439  1.00  0.00    -0.018 C  
ENDBRANCH  19  20
ENDBRANCH  18  19
ENDBRANCH  17  18
ENDBRANCH  16  17
ENDBRANCH  13  16
ENDBRANCH  11  12
ENDBRANCH   9  11
ENDBRANCH   2   3
TORSDOF 8
ENDMDL
MODEL      364
REMARK 921   NORMALIZED FREE ENERGY PREDICTED BY IDOCK:   -2.46 KCAL/MOL
REMARK 922        TOTAL FREE ENERGY PREDICTED BY IDOCK:   -4.82 KCAL/MOL
REMARK 923 INTER-LIGAND FREE ENERGY PREDICTED BY IDOCK:   -3.83 KCAL/MOL
REMARK 924 INTRA-LIGAND FREE ENERGY PREDICTED BY IDOCK:   -1.00 KCAL/MOL
REMARK 927      BINDING AFFINITY PREDICTED BY RF-SCORE:    0.00 PKD
ROOT
HETATM    1  C   UNL     1      -7.272   8.320  74.418  1.00  0.00    -0.190 C  
HETATM    2  O   UNL     1      -6.328   8.904  73.530  1.00  0.00    -0.279 OA 
ENDROOT
BRANCH   2   3
HETATM    3  C   UNL     1      -6.514   8.663  72.192  1.00  0.00    -0.070 A  
HETATM    4  C   UNL     1      -5.973   7.459  71.728  1.00  0.00    -0.036 A  
HETATM    5  O   UNL     1      -5.299   6.630  72.583  1.00  0.00    -0.035 OA 
HETATM    6  C   UNL     1      -6.087   7.075  70.399  1.00  0.00    -0.027 A  
HETATM    7  C   UNL     1      -6.724   7.927  69.497  1.00  0.00    -0.042 A  
HETATM    8  H   UNL     1      -4.931   5.813  72.268  1.00  0.00     0.000 HD 
HETATM    9  C   UNL     1      -7.236   9.163  69.925  1.00  0.00    -0.062 A  
HETATM   10  C   UNL     1      -7.156   9.508  71.286  1.00  0.00     0.126 A  
BRANCH   9  11
HETATM   11  C   UNL     1      -7.830  10.121  68.924  1.00  0.00    -0.100 C  
BRANCH  11  12
HETATM   12  N   UNL     1      -8.674   9.451  67.966  1.00  0.00    -0.124 N  
HETATM   13  C   UNL     1     -10.033   9.658  67.977  1.00  0.00    -0.160 C  
HETATM   14  H   UNL     1      -8.262   8.821  67.277  1.00  0.00     0.000 HD 
HETATM   15  O   UNL     1     -10.594  10.405  68.772  1.00  0.00    -0.184 OA 
BRANCH  13  16
HETATM   16  C   UNL     1     -10.784   8.865  66.926  1.00  0.00    -0.153 C  
BRANCH  16  17
HETATM   17  C   UNL     1     -10.191   7.472  66.714  1.00  0.00    -0.324 C  
BRANCH  17  18
HETATM   18  C   UNL     1     -11.124   6.365  67.218  1.00  0.00    -0.416 C  
BRANCH  18  19
HETATM   19  C   UNL     1     -10.632   5.779  68.542  1.00  0.00    -0.299 C  
BRANCH  19  20
HETATM   20  C   UNL     1     -11.123   6.593  69.705  1.00  0.00    -0.390 C  
HETATM   21  C   UNL     1     -10.435   6.764  70.842  1.00  0.00    -0.239 C  
HETATM   22  C   UNL     1     -10.931   7.578  72.011  1.00  0.00    -0.282 C  
HETATM   23  C   UNL     1     -10.002   8.766  72.258  1.00  0.00    -0.302 C  
HETATM   24  C   UNL     1     -11.026   6.700  73.259  1.00  0.00    -0.237 C  
ENDBRANCH  19  20
ENDBRANCH  18  19
ENDBRANCH  17  18
ENDBRANCH  16  17
ENDBRANCH  13  16
ENDBRANCH  11  12
ENDBRANCH   9  11
ENDBRANCH   2   3
TORSDOF 8
ENDMDL
MODEL      365
REMARK 921   NORMALIZED FREE ENERGY PREDICTED BY IDOCK:   -2.45 KCAL/MOL
REMARK 922        TOTAL FREE ENERGY PREDICTED BY IDOCK:   -4.80 KCAL/MOL
REMARK 923 INTER-LIGAND FREE ENERGY PREDICTED BY IDOCK:   -4.54 KCAL/MOL
REMARK 924 INTRA-LIGAND FREE ENERGY PREDICTED BY IDOCK:   -0.25 KCAL/MOL
REMARK 927      BINDING AFFINITY PREDICTED BY RF-SCORE:    0.00 PKD
ROOT
HETATM    1  C   UNL     1     -12.392  14.480  71.637  1.00  0.00    -0.350 C  
HETATM    2  O   UNL     1     -12.165  15.544  70.721  1.00  0.00    -0.341 OA 
ENDROOT
BRANCH   2   3
HETATM    3  C   UNL     1     -11.634  15.201  69.503  1.00  0.00    -0.319 A  
HETATM    4  C   UNL     1     -10.532  15.964  69.103  1.00  0.00    -0.235 A  
HETATM    5  O   UNL     1     -10.071  16.980  69.895  1.00  0.00     0.074 OA 
HETATM    6  C   UNL     1      -9.885  15.731  67.897  1.00  0.00    -0.217 A  
HETATM    7  C   UNL     1     -10.369  14.736  67.048  1.00  0.00    -0.255 A  
HETATM    8  H   UNL     1      -9.323  17.498  69.624  1.00  0.00     0.000 HD 
HETATM    9  C   UNL     1     -11.501  13.986  67.401  1.00  0.00    -0.373 A  
HETATM   10  C   UNL     1     -12.109  14.203  68.651  1.00  0.00    -0.320 A  
BRANCH   9  11
HETATM   11  C   UNL     1     -12.077  12.985  66.433  1.00  0.00    -0.358 C  
BRANCH  11  12
HETATM   12  N   UNL     1     -11.070  12.431  65.562  1.00  0.00    -0.290 N  
HETATM   13  C   UNL     1     -10.628  11.142  65.747  1.00  0.00    -0.227 C  
HETATM   14  H   UNL     1     -10.684  12.997  64.805  1.00  0.00     0.000 HD 
HETATM   15  O   UNL     1     -11.052  10.405  66.631  1.00  0.00    -0.079 OA 
BRANCH  13  16
HETATM   16  C   UNL     1      -9.552  10.715  64.768  1.00  0.00    -0.334 C  
BRANCH  16  17
HETATM   17  C   UNL     1      -9.254   9.218  64.847  1.00  0.00    -0.206 C  
BRANCH  17  18
HETATM   18  C   UNL     1      -8.567   8.835  66.163  1.00  0.00    -0.162 C  
BRANCH  18  19
HETATM   19  C   UNL     1      -7.390   7.890  65.925  1.00  0.00    -0.076 C  
BRANCH  19  20
HETATM   20  C   UNL     1      -7.839   6.638  65.227  1.00  0.00    -0.110 C  
HETATM   21  C   UNL     1      -7.578   5.400  65.669  1.00  0.00    -0.082 C  
HETATM   22  C   UNL     1      -8.026   4.143  64.964  1.00  0.00    -0.093 C  
HETATM   23  C   UNL     1      -8.983   3.352  65.855  1.00  0.00    -0.145 C  
HETATM   24  C   UNL     1      -6.812   3.293  64.589  1.00  0.00    -0.045 C  
ENDBRANCH  19  20
ENDBRANCH  18  19
ENDBRANCH  17  18
ENDBRANCH  16  17
ENDBRANCH  13  16
ENDBRANCH  11  12
ENDBRANCH   9  11
ENDBRANCH   2   3
TORSDOF 8
ENDMDL
MODEL      366
REMARK 921   NORMALIZED FREE ENERGY PREDICTED BY IDOCK:   -2.42 KCAL/MOL
REMARK 922        TOTAL FREE ENERGY PREDICTED BY IDOCK:   -4.76 KCAL/MOL
REMARK 923 INTER-LIGAND FREE ENERGY PREDICTED BY IDOCK:   -4.09 KCAL/MOL
REMARK 924 INTRA-LIGAND FREE ENERGY PREDICTED BY IDOCK:   -0.67 KCAL/MOL
REMARK 927      BINDING AFFINITY PREDICTED BY RF-SCORE:    0.00 PKD
ROOT
HETATM    1  C   UNL     1     -12.089  14.202  67.231  1.00  0.00    -0.372 C  
HETATM    2  O   UNL     1     -11.447  13.446  66.211  1.00  0.00    -0.307 OA 
ENDROOT
BRANCH   2   3
HETATM    3  C   UNL     1     -10.675  12.390  66.625  1.00  0.00    -0.235 A  
HETATM    4  C   UNL     1      -9.303  12.656  66.700  1.00  0.00    -0.236 A  
HETATM    5  O   UNL     1      -8.818  13.887  66.355  1.00  0.00    -0.457 OA 
HETATM    6  C   UNL     1      -8.397  11.687  67.108  1.00  0.00    -0.164 A  
HETATM    7  C   UNL     1      -8.860  10.408  67.415  1.00  0.00    -0.133 A  
HETATM    8  H   UNL     1      -7.887  14.068  66.406  1.00  0.00     0.000 HD 
HETATM    9  C   UNL     1     -10.226  10.099  67.303  1.00  0.00    -0.273 A  
HETATM   10  C   UNL     1     -11.133  11.110  66.939  1.00  0.00    -0.313 A  
BRANCH   9  11
HETATM   11  C   UNL     1     -10.703   8.689  67.536  1.00  0.00    -0.139 C  
BRANCH  11  12
HETATM   12  N   UNL     1      -9.764   7.920  68.316  1.00  0.00    -0.156 N  
HETATM   13  C   UNL     1     -10.210   6.923  69.150  1.00  0.00    -0.187 C  
HETATM   14  H   UNL     1      -8.765   8.116  68.247  1.00  0.00     0.000 HD 
HETATM   15  O   UNL     1     -11.395   6.630  69.277  1.00  0.00    -0.291 OA 
BRANCH  13  16
HETATM   16  C   UNL     1      -9.106   6.225  69.919  1.00  0.00    -0.145 C  
BRANCH  16  17
HETATM   17  C   UNL     1      -9.643   5.399  71.088  1.00  0.00    -0.214 C  
BRANCH  17  18
HETATM   18  C   UNL     1      -8.560   5.107  72.133  1.00  0.00    -0.126 C  
BRANCH  18  19
HETATM   19  C   UNL     1      -8.299   6.322  73.023  1.00  0.00    -0.117 C  
BRANCH  19  20
HETATM   20  C   UNL     1      -7.065   7.056  72.580  1.00  0.00    -0.069 C  
HETATM   21  C   UNL     1      -6.976   8.391  72.503  1.00  0.00    -0.104 C  
HETATM   22  C   UNL     1      -5.737   9.127  72.054  1.00  0.00    -0.069 C  
HETATM   23  C   UNL     1      -5.202   9.998  73.189  1.00  0.00     0.111 C  
HETATM   24  C   UNL     1      -6.051   9.977  70.823  1.00  0.00    -0.092 C  
ENDBRANCH  19  20
ENDBRANCH  18  19
ENDBRANCH  17  18
ENDBRANCH  16  17
ENDBRANCH  13  16
ENDBRANCH  11  12
ENDBRANCH   9  11
ENDBRANCH   2   3
TORSDOF 8
ENDMDL
MODEL      367
REMARK 921   NORMALIZED FREE ENERGY PREDICTED BY IDOCK:   -2.39 KCAL/MOL
REMARK 922        TOTAL FREE ENERGY PREDICTED BY IDOCK:   -4.71 KCAL/MOL
REMARK 923 INTER-LIGAND FREE ENERGY PREDICTED BY IDOCK:   -4.39 KCAL/MOL
REMARK 924 INTRA-LIGAND FREE ENERGY PREDICTED BY IDOCK:   -0.32 KCAL/MOL
REMARK 927      BINDING AFFINITY PREDICTED BY RF-SCORE:    0.00 PKD
ROOT
HETATM    1  C   UNL     1     -12.724  10.836  70.675  1.00  0.00    -0.331 C  
HETATM    2  O   UNL     1     -11.349  11.200  70.649  1.00  0.00    -0.126 OA 
ENDROOT
BRANCH   2   3
HETATM    3  C   UNL     1     -10.523  10.418  69.882  1.00  0.00    -0.218 A  
HETATM    4  C   UNL     1     -10.219   9.167  70.428  1.00  0.00    -0.222 A  
HETATM    5  O   UNL     1     -10.718   8.808  71.650  1.00  0.00    -0.272 OA 
HETATM    6  C   UNL     1      -9.400   8.263  69.765  1.00  0.00    -0.158 A  
HETATM    7  C   UNL     1      -8.837   8.626  68.542  1.00  0.00    -0.142 A  
HETATM    8  H   UNL     1     -10.512   7.958  72.022  1.00  0.00     0.000 HD 
HETATM    9  C   UNL     1      -9.086   9.894  67.991  1.00  0.00    -0.123 A  
HETATM   10  C   UNL     1      -9.962  10.773  68.654  1.00  0.00    -0.189 A  
BRANCH   9  11
HETATM   11  C   UNL     1      -8.392  10.315  66.722  1.00  0.00    -0.124 C  
BRANCH  11  12
HETATM   12  N   UNL     1      -7.949  11.687  66.775  1.00  0.00    -0.224 N  
HETATM   13  C   UNL     1      -6.754  12.005  67.375  1.00  0.00    -0.131 C  
HETATM   14  H   UNL     1      -8.525  12.423  66.366  1.00  0.00     0.000 HD 
HETATM   15  O   UNL     1      -6.011  11.172  67.881  1.00  0.00    -0.046 OA 
BRANCH  13  16
HETATM   16  C   UNL     1      -6.442  13.489  67.372  1.00  0.00     0.017 C  
BRANCH  16  17
HETATM   17  C   UNL     1      -6.319  14.061  68.784  1.00  0.00    -0.090 C  
BRANCH  17  18
HETATM   18  C   UNL     1      -7.036  15.408  68.925  1.00  0.00    -0.131 C  
BRANCH  18  19
HETATM   19  C   UNL     1      -6.120  16.469  69.534  1.00  0.00    -0.199 C  
BRANCH  19  20
HETATM   20  C   UNL     1      -6.780  17.818  69.526  1.00  0.00    -0.100 C  
HETATM   21  C   UNL     1      -7.625  18.232  68.572  1.00  0.00    -0.313 C  
HETATM   22  C   UNL     1      -8.284  19.590  68.563  1.00  0.00    -0.373 C  
HETATM   23  C   UNL     1      -9.801  19.439  68.664  1.00  0.00    -0.522 C  
HETATM   24  C   UNL     1      -7.901  20.349  67.293  1.00  0.00    -0.373 C  
ENDBRANCH  19  20
ENDBRANCH  18  19
ENDBRANCH  17  18
ENDBRANCH  16  17
ENDBRANCH  13  16
ENDBRANCH  11  12
ENDBRANCH   9  11
ENDBRANCH   2   3
TORSDOF 8
ENDMDL
MODEL      368
REMARK 921   NORMALIZED FREE ENERGY PREDICTED BY IDOCK:   -2.27 KCAL/MOL
REMARK 922        TOTAL FREE ENERGY PREDICTED BY IDOCK:   -4.54 KCAL/MOL
REMARK 923 INTER-LIGAND FREE ENERGY PREDICTED BY IDOCK:   -3.66 KCAL/MOL
REMARK 924 INTRA-LIGAND FREE ENERGY PREDICTED BY IDOCK:   -0.88 KCAL/MOL
REMARK 927      BINDING AFFINITY PREDICTED BY RF-SCORE:    0.00 PKD
ROOT
HETATM    1  C   UNL     1     -10.356   4.180  64.398  1.00  0.00    -0.138 C  
HETATM    2  O   UNL     1      -9.608   4.257  65.605  1.00  0.00    -0.160 OA 
ENDROOT
BRANCH   2   3
HETATM    3  C   UNL     1      -9.773   5.393  66.357  1.00  0.00    -0.166 A  
HETATM    4  C   UNL     1      -9.849   5.182  67.738  1.00  0.00    -0.156 A  
HETATM    5  O   UNL     1      -9.779   3.915  68.248  1.00  0.00    -0.140 OA 
HETATM    6  C   UNL     1     -10.010   6.236  68.627  1.00  0.00    -0.166 A  
HETATM    7  C   UNL     1     -10.137   7.533  68.128  1.00  0.00    -0.215 A  
HETATM    8  H   UNL     1      -9.829   3.771  69.185  1.00  0.00     0.000 HD 
HETATM    9  C   UNL     1     -10.112   7.770  66.744  1.00  0.00    -0.341 A  
HETATM   10  C   UNL     1      -9.895   6.693  65.865  1.00  0.00     0.355 A  
BRANCH   9  11
HETATM   11  C   UNL     1     -10.353   9.159  66.211  1.00  0.00    -0.096 C  
BRANCH  11  12
HETATM   12  N   UNL     1      -9.489  10.135  66.829  1.00  0.00    -0.163 N  
HETATM   13  C   UNL     1      -8.298  10.478  66.235  1.00  0.00    -0.152 C  
HETATM   14  H   UNL     1      -9.763  10.572  67.709  1.00  0.00     0.000 HD 
HETATM   15  O   UNL     1      -7.910   9.997  65.175  1.00  0.00    -0.125 OA 
BRANCH  13  16
HETATM   16  C   UNL     1      -7.493  11.496  67.017  1.00  0.00    -0.151 C  
BRANCH  16  17
HETATM   17  C   UNL     1      -8.182  11.908  68.318  1.00  0.00    -0.157 C  
BRANCH  17  18
HETATM   18  C   UNL     1      -8.365  13.427  68.418  1.00  0.00    -0.137 C  
BRANCH  18  19
HETATM   19  C   UNL     1      -9.665  13.787  69.137  1.00  0.00     0.263 C  
BRANCH  19  20
HETATM   20  C   UNL     1     -10.715  14.231  68.159  1.00  0.00    -0.249 C  
HETATM   21  C   UNL     1     -10.744  13.858  66.872  1.00  0.00    -0.284 C  
HETATM   22  C   UNL     1     -11.797  14.308  65.889  1.00  0.00    -0.386 C  
HETATM   23  C   UNL     1     -12.591  13.105  65.382  1.00  0.00    -0.512 C  
HETATM   24  C   UNL     1     -11.143  15.051  64.725  1.00  0.00    -0.388 C  
ENDBRANCH  19  20
ENDBRANCH  18  19
ENDBRANCH  17  18
ENDBRANCH  16  17
ENDBRANCH  13  16
ENDBRANCH  11  12
ENDBRANCH   9  11
ENDBRANCH   2   3
TORSDOF 8
ENDMDL
MODEL      369
REMARK 921   NORMALIZED FREE ENERGY PREDICTED BY IDOCK:   -2.25 KCAL/MOL
REMARK 922        TOTAL FREE ENERGY PREDICTED BY IDOCK:   -4.51 KCAL/MOL
REMARK 923 INTER-LIGAND FREE ENERGY PREDICTED BY IDOCK:   -3.91 KCAL/MOL
REMARK 924 INTRA-LIGAND FREE ENERGY PREDICTED BY IDOCK:   -0.59 KCAL/MOL
REMARK 927      BINDING AFFINITY PREDICTED BY RF-SCORE:    0.00 PKD
ROOT
HETATM    1  C   UNL     1      -7.687   4.064  67.348  1.00  0.00    -0.080 C  
HETATM    2  O   UNL     1      -9.030   4.070  67.816  1.00  0.00    -0.109 OA 
ENDROOT
BRANCH   2   3
HETATM    3  C   UNL     1      -9.659   5.288  67.855  1.00  0.00    -0.134 A  
HETATM    4  C   UNL     1     -10.655   5.470  66.888  1.00  0.00    -0.278 A  
HETATM    5  O   UNL     1     -10.925   4.482  65.982  1.00  0.00    -0.568 OA 
HETATM    6  C   UNL     1     -11.383   6.649  66.807  1.00  0.00     0.199 A  
HETATM    7  C   UNL     1     -11.089   7.691  67.686  1.00  0.00     0.115 A  
HETATM    8  H   UNL     1     -11.601   4.605  65.325  1.00  0.00     0.000 HD 
HETATM    9  C   UNL     1     -10.064   7.555  68.636  1.00  0.00    -0.194 A  
HETATM   10  C   UNL     1      -9.375   6.332  68.736  1.00  0.00    -0.124 A  
BRANCH   9  11
HETATM   11  C   UNL     1      -9.686   8.722  69.512  1.00  0.00    -0.172 C  
BRANCH  11  12
HETATM   12  N   UNL     1      -9.831   9.984  68.828  1.00  0.00    -0.161 N  
HETATM   13  C   UNL     1     -10.637  10.965  69.352  1.00  0.00    -0.197 C  
HETATM   14  H   UNL     1      -9.333  10.148  67.953  1.00  0.00     0.000 HD 
HETATM   15  O   UNL     1     -11.260  10.838  70.401  1.00  0.00    -0.292 OA 
BRANCH  13  16
HETATM   16  C   UNL     1     -10.705  12.221  68.505  1.00  0.00    -0.261 C  
BRANCH  16  17
HETATM   17  C   UNL     1      -9.361  12.562  67.861  1.00  0.00    -0.200 C  
BRANCH  17  18
HETATM   18  C   UNL     1      -9.055  14.063  67.924  1.00  0.00    -0.188 C  
BRANCH  18  19
HETATM   19  C   UNL     1      -7.675  14.328  68.524  1.00  0.00    -0.137 C  
BRANCH  19  20
HETATM   20  C   UNL     1      -7.286  15.770  68.362  1.00  0.00    -0.117 C  
HETATM   21  C   UNL     1      -8.004  16.665  67.669  1.00  0.00    -0.188 C  
HETATM   22  C   UNL     1      -7.610  18.112  67.503  1.00  0.00    -0.217 C  
HETATM   23  C   UNL     1      -8.660  19.020  68.142  1.00  0.00    -0.355 C  
HETATM   24  C   UNL     1      -7.443  18.442  66.020  1.00  0.00    -0.256 C  
ENDBRANCH  19  20
ENDBRANCH  18  19
ENDBRANCH  17  18
ENDBRANCH  16  17
ENDBRANCH  13  16
ENDBRANCH  11  12
ENDBRANCH   9  11
ENDBRANCH   2   3
TORSDOF 8
ENDMDL
MODEL      370
REMARK 921   NORMALIZED FREE ENERGY PREDICTED BY IDOCK:   -2.24 KCAL/MOL
REMARK 922        TOTAL FREE ENERGY PREDICTED BY IDOCK:   -4.50 KCAL/MOL
REMARK 923 INTER-LIGAND FREE ENERGY PREDICTED BY IDOCK:   -3.46 KCAL/MOL
REMARK 924 INTRA-LIGAND FREE ENERGY PREDICTED BY IDOCK:   -1.04 KCAL/MOL
REMARK 927      BINDING AFFINITY PREDICTED BY RF-SCORE:    0.00 PKD
ROOT
HETATM    1  C   UNL     1     -11.256  13.278  66.670  1.00  0.00    -0.306 C  
HETATM    2  O   UNL     1     -12.063  12.250  67.232  1.00  0.00    -0.548 OA 
ENDROOT
BRANCH   2   3
HETATM    3  C   UNL     1     -11.435  11.062  67.510  1.00  0.00    -0.185 A  
HETATM    4  C   UNL     1     -11.588  10.607  68.824  1.00  0.00    -0.239 A  
HETATM    5  O   UNL     1     -12.302  11.341  69.731  1.00  0.00    -0.276 OA 
HETATM    6  C   UNL     1     -11.015   9.418  69.253  1.00  0.00    -0.137 A  
HETATM    7  C   UNL     1     -10.238   8.678  68.362  1.00  0.00    -0.232 A  
HETATM    8  H   UNL     1     -12.406  11.033  70.623  1.00  0.00     0.000 HD 
HETATM    9  C   UNL     1     -10.028   9.134  67.050  1.00  0.00    -0.294 A  
HETATM   10  C   UNL     1     -10.662  10.314  66.622  1.00  0.00    -0.183 A  
BRANCH   9  11
HETATM   11  C   UNL     1      -9.104   8.381  66.128  1.00  0.00    -0.189 C  
BRANCH  11  12
HETATM   12  N   UNL     1      -7.850   9.067  65.937  1.00  0.00    -0.100 N  
HETATM   13  C   UNL     1      -6.751   8.721  66.686  1.00  0.00    -0.072 C  
HETATM   14  H   UNL     1      -7.778   9.812  65.243  1.00  0.00     0.000 HD 
HETATM   15  O   UNL     1      -6.765   7.834  67.533  1.00  0.00    -0.064 OA 
BRANCH  13  16
HETATM   16  C   UNL     1      -5.518   9.550  66.386  1.00  0.00    -0.045 C  
BRANCH  16  17
HETATM   17  C   UNL     1      -5.866  10.952  65.887  1.00  0.00    -0.130 C  
BRANCH  17  18
HETATM   18  C   UNL     1      -6.539  11.801  66.971  1.00  0.00    -0.140 C  
BRANCH  18  19
HETATM   19  C   UNL     1      -5.515  12.366  67.955  1.00  0.00    -0.073 C  
BRANCH  19  20
HETATM   20  C   UNL     1      -5.708  11.780  69.326  1.00  0.00    -0.062 C  
HETATM   21  C   UNL     1      -6.060  10.507  69.553  1.00  0.00    -0.050 C  
HETATM   22  C   UNL     1      -6.258   9.922  70.930  1.00  0.00    -0.070 C  
HETATM   23  C   UNL     1      -5.247   8.804  71.176  1.00  0.00    -0.029 C  
HETATM   24  C   UNL     1      -7.687   9.400  71.076  1.00  0.00    -0.031 C  
ENDBRANCH  19  20
ENDBRANCH  18  19
ENDBRANCH  17  18
ENDBRANCH  16  17
ENDBRANCH  13  16
ENDBRANCH  11  12
ENDBRANCH   9  11
ENDBRANCH   2   3
TORSDOF 8
ENDMDL
MODEL      371
REMARK 921   NORMALIZED FREE ENERGY PREDICTED BY IDOCK:   -2.22 KCAL/MOL
REMARK 922        TOTAL FREE ENERGY PREDICTED BY IDOCK:   -4.46 KCAL/MOL
REMARK 923 INTER-LIGAND FREE ENERGY PREDICTED BY IDOCK:   -3.57 KCAL/MOL
REMARK 924 INTRA-LIGAND FREE ENERGY PREDICTED BY IDOCK:   -0.89 KCAL/MOL
REMARK 927      BINDING AFFINITY PREDICTED BY RF-SCORE:    0.00 PKD
ROOT
HETATM    1  C   UNL     1      -8.306   7.620  74.560  1.00  0.00    -0.200 C  
HETATM    2  O   UNL     1      -7.830   8.303  73.406  1.00  0.00    -0.203 OA 
ENDROOT
BRANCH   2   3
HETATM    3  C   UNL     1      -8.004   7.667  72.203  1.00  0.00    -0.105 A  
HETATM    4  C   UNL     1      -6.943   7.808  71.302  1.00  0.00    -0.050 A  
HETATM    5  O   UNL     1      -5.847   8.554  71.637  1.00  0.00    -0.038 OA 
HETATM    6  C   UNL     1      -6.972   7.216  70.046  1.00  0.00    -0.061 A  
HETATM    7  C   UNL     1      -8.102   6.495  69.661  1.00  0.00    -0.125 A  
HETATM    8  H   UNL     1      -5.126   8.650  71.026  1.00  0.00     0.000 HD 
HETATM    9  C   UNL     1      -9.201   6.375  70.526  1.00  0.00    -0.162 A  
HETATM   10  C   UNL     1      -9.128   6.938  71.813  1.00  0.00    -0.138 A  
BRANCH   9  11
HETATM   11  C   UNL     1     -10.456   5.682  70.062  1.00  0.00    -0.297 C  
BRANCH  11  12
HETATM   12  N   UNL     1     -11.607   6.063  70.843  1.00  0.00    -0.183 N  
HETATM   13  C   UNL     1     -12.442   7.062  70.403  1.00  0.00     0.085 C  
HETATM   14  H   UNL     1     -11.803   5.588  71.724  1.00  0.00     0.000 HD 
HETATM   15  O   UNL     1     -12.270   7.670  69.352  1.00  0.00     1.200 OA 
BRANCH  13  16
HETATM   16  C   UNL     1     -13.590   7.362  71.345  1.00  0.00    -0.410 C  
BRANCH  16  17
HETATM   17  C   UNL     1     -13.203   8.361  72.436  1.00  0.00    -0.251 C  
BRANCH  17  18
HETATM   18  C   UNL     1     -13.388   9.813  71.981  1.00  0.00    -0.547 C  
BRANCH  18  19
HETATM   19  C   UNL     1     -12.086  10.396  71.431  1.00  0.00    -0.424 C  
BRANCH  19  20
HETATM   20  C   UNL     1     -12.247  10.812  69.997  1.00  0.00    -0.409 C  
HETATM   21  C   UNL     1     -11.231  11.191  69.209  1.00  0.00    -0.331 C  
HETATM   22  C   UNL     1     -11.395  11.613  67.769  1.00  0.00    -0.356 C  
HETATM   23  C   UNL     1     -10.644  10.651  66.850  1.00  0.00    -0.311 C  
HETATM   24  C   UNL     1     -10.890  13.043  67.582  1.00  0.00    -0.256 C  
ENDBRANCH  19  20
ENDBRANCH  18  19
ENDBRANCH  17  18
ENDBRANCH  16  17
ENDBRANCH  13  16
ENDBRANCH  11  12
ENDBRANCH   9  11
ENDBRANCH   2   3
TORSDOF 8
ENDMDL
MODEL      372
REMARK 921   NORMALIZED FREE ENERGY PREDICTED BY IDOCK:   -2.19 KCAL/MOL
REMARK 922        TOTAL FREE ENERGY PREDICTED BY IDOCK:   -4.42 KCAL/MOL
REMARK 923 INTER-LIGAND FREE ENERGY PREDICTED BY IDOCK:   -3.44 KCAL/MOL
REMARK 924 INTRA-LIGAND FREE ENERGY PREDICTED BY IDOCK:   -0.98 KCAL/MOL
REMARK 927      BINDING AFFINITY PREDICTED BY RF-SCORE:    0.00 PKD
ROOT
HETATM    1  C   UNL     1     -12.439   6.802  71.402  1.00  0.00    -0.329 C  
HETATM    2  O   UNL     1     -11.046   6.708  71.129  1.00  0.00    -0.255 OA 
ENDROOT
BRANCH   2   3
HETATM    3  C   UNL     1     -10.480   7.766  70.464  1.00  0.00    -0.217 A  
HETATM    4  C   UNL     1      -9.857   8.714  71.283  1.00  0.00    -0.238 A  
HETATM    5  O   UNL     1      -9.861   8.562  72.642  1.00  0.00    -0.281 OA 
HETATM    6  C   UNL     1      -9.236   9.837  70.753  1.00  0.00     0.123 A  
HETATM    7  C   UNL     1      -9.265  10.043  69.373  1.00  0.00    -0.229 A  
HETATM    8  H   UNL     1      -9.438   9.205  73.198  1.00  0.00     0.000 HD 
HETATM    9  C   UNL     1      -9.922   9.132  68.531  1.00  0.00    -0.192 A  
HETATM   10  C   UNL     1     -10.499   7.974  69.084  1.00  0.00    -0.217 A  
BRANCH   9  11
HETATM   11  C   UNL     1     -10.037   9.416  67.055  1.00  0.00    -0.240 C  
BRANCH  11  12
HETATM   12  N   UNL     1      -8.839   9.055  66.338  1.00  0.00    -0.139 N  
HETATM   13  C   UNL     1      -8.695   9.397  65.015  1.00  0.00    -0.186 C  
HETATM   14  H   UNL     1      -8.095   8.544  66.815  1.00  0.00     0.000 HD 
HETATM   15  O   UNL     1      -9.546  10.014  64.382  1.00  0.00    -0.296 OA 
BRANCH  13  16
HETATM   16  C   UNL     1      -7.394   8.925  64.396  1.00  0.00    -0.099 C  
BRANCH  16  17
HETATM   17  C   UNL     1      -7.506   7.519  63.806  1.00  0.00    -0.108 C  
BRANCH  17  18
HETATM   18  C   UNL     1      -8.086   6.516  64.809  1.00  0.00    -0.112 C  
BRANCH  18  19
HETATM   19  C   UNL     1      -7.063   6.142  65.881  1.00  0.00    -0.070 C  
BRANCH  19  20
HETATM   20  C   UNL     1      -7.731   5.929  67.210  1.00  0.00    -0.101 C  
HETATM   21  C   UNL     1      -7.110   5.430  68.288  1.00  0.00    -0.066 C  
HETATM   22  C   UNL     1      -7.783   5.212  69.621  1.00  0.00    -0.068 C  
HETATM   23  C   UNL     1      -7.127   6.085  70.690  1.00  0.00    -0.075 C  
HETATM   24  C   UNL     1      -7.710   3.736  70.010  1.00  0.00    -0.048 C  
ENDBRANCH  19  20
ENDBRANCH  18  19
ENDBRANCH  17  18
ENDBRANCH  16  17
ENDBRANCH  13  16
ENDBRANCH  11  12
ENDBRANCH   9  11
ENDBRANCH   2   3
TORSDOF 8
ENDMDL
MODEL      373
REMARK 921   NORMALIZED FREE ENERGY PREDICTED BY IDOCK:   -1.94 KCAL/MOL
REMARK 922        TOTAL FREE ENERGY PREDICTED BY IDOCK:   -4.05 KCAL/MOL
REMARK 923 INTER-LIGAND FREE ENERGY PREDICTED BY IDOCK:   -3.12 KCAL/MOL
REMARK 924 INTRA-LIGAND FREE ENERGY PREDICTED BY IDOCK:   -0.93 KCAL/MOL
REMARK 927      BINDING AFFINITY PREDICTED BY RF-SCORE:    0.00 PKD
ROOT
HETATM    1  C   UNL     1     -12.668  10.675  70.237  1.00  0.00    -0.209 C  
HETATM    2  O   UNL     1     -11.924  11.844  69.919  1.00  0.00    -0.316 OA 
ENDROOT
BRANCH   2   3
HETATM    3  C   UNL     1     -10.988  11.723  68.923  1.00  0.00    -0.239 A  
HETATM    4  C   UNL     1     -10.930  12.800  68.032  1.00  0.00    -0.239 A  
HETATM    5  O   UNL     1     -11.781  13.862  68.176  1.00  0.00    -0.313 OA 
HETATM    6  C   UNL     1     -10.030  12.822  66.975  1.00  0.00    -0.231 A  
HETATM    7  C   UNL     1      -9.189  11.728  66.776  1.00  0.00    -0.196 A  
HETATM    8  H   UNL     1     -11.741  14.593  67.572  1.00  0.00     0.000 HD 
HETATM    9  C   UNL     1      -9.257  10.612  67.626  1.00  0.00    -0.153 A  
HETATM   10  C   UNL     1     -10.139  10.634  68.721  1.00  0.00    -0.203 A  
BRANCH   9  11
HETATM   11  C   UNL     1      -8.418   9.393  67.341  1.00  0.00    -0.125 C  
BRANCH  11  12
HETATM   12  N   UNL     1      -7.321   9.260  68.268  1.00  0.00    -0.078 N  
HETATM   13  C   UNL     1      -6.214   8.521  67.928  1.00  0.00    -0.056 C  
HETATM   14  H   UNL     1      -7.367   9.717  69.179  1.00  0.00     0.000 HD 
HETATM   15  O   UNL     1      -6.089   7.951  66.849  1.00  0.00    -0.049 OA 
BRANCH  13  16
HETATM   16  C   UNL     1      -5.160   8.456  69.016  1.00  0.00    -0.031 C  
BRANCH  16  17
HETATM   17  C   UNL     1      -5.661   7.735  70.268  1.00  0.00    -0.023 C  
BRANCH  17  18
HETATM   18  C   UNL     1      -5.986   6.262  69.994  1.00  0.00    -0.026 C  
BRANCH  18  19
HETATM   19  C   UNL     1      -7.475   5.973  70.183  1.00  0.00    -0.090 C  
BRANCH  19  20
HETATM   20  C   UNL     1      -8.135   5.673  68.867  1.00  0.00    -0.100 C  
HETATM   21  C   UNL     1      -7.787   4.652  68.072  1.00  0.00    -0.081 C  
HETATM   22  C   UNL     1      -8.448   4.354  66.748  1.00  0.00    -0.105 C  
HETATM   23  C   UNL     1      -9.128   2.986  66.795  1.00  0.00    -0.179 C  
HETATM   24  C   UNL     1      -7.414   4.404  65.624  1.00  0.00    -0.081 C  
ENDBRANCH  19  20
ENDBRANCH  18  19
ENDBRANCH  17  18
ENDBRANCH  16  17
ENDBRANCH  13  16
ENDBRANCH  11  12
ENDBRANCH   9  11
ENDBRANCH   2   3
TORSDOF 8
ENDMDL
MODEL      374
REMARK 921   NORMALIZED FREE ENERGY PREDICTED BY IDOCK:   -1.84 KCAL/MOL
REMARK 922        TOTAL FREE ENERGY PREDICTED BY IDOCK:   -3.91 KCAL/MOL
REMARK 923 INTER-LIGAND FREE ENERGY PREDICTED BY IDOCK:   -3.36 KCAL/MOL
REMARK 924 INTRA-LIGAND FREE ENERGY PREDICTED BY IDOCK:   -0.55 KCAL/MOL
REMARK 927      BINDING AFFINITY PREDICTED BY RF-SCORE:    0.00 PKD
ROOT
HETATM    1  C   UNL     1     -12.674  10.659  70.202  1.00  0.00    -0.159 C  
HETATM    2  O   UNL     1     -11.793  11.727  69.876  1.00  0.00    -0.313 OA 
ENDROOT
BRANCH   2   3
HETATM    3  C   UNL     1     -10.952  11.524  68.811  1.00  0.00    -0.222 A  
HETATM    4  C   UNL     1     -10.686  12.662  68.042  1.00  0.00    -0.226 A  
HETATM    5  O   UNL     1     -11.264  13.860  68.359  1.00  0.00    -0.240 OA 
HETATM    6  C   UNL     1      -9.849  12.613  66.936  1.00  0.00    -0.234 A  
HETATM    7  C   UNL     1      -9.289  11.391  66.561  1.00  0.00    -0.204 A  
HETATM    8  H   UNL     1     -11.084  14.633  67.838  1.00  0.00     0.000 HD 
HETATM    9  C   UNL     1      -9.575  10.223  67.285  1.00  0.00    -0.186 A  
HETATM   10  C   UNL     1     -10.384  10.306  68.434  1.00  0.00    -0.202 A  
BRANCH   9  11
HETATM   11  C   UNL     1      -9.049   8.893  66.812  1.00  0.00    -0.143 C  
BRANCH  11  12
HETATM   12  N   UNL     1      -7.958   8.419  67.628  1.00  0.00    -0.109 N  
HETATM   13  C   UNL     1      -7.089   7.473  67.139  1.00  0.00    -0.085 C  
HETATM   14  H   UNL     1      -7.830   8.788  68.571  1.00  0.00     0.000 HD 
HETATM   15  O   UNL     1      -7.180   6.991  66.015  1.00  0.00    -0.071 OA 
BRANCH  13  16
HETATM   16  C   UNL     1      -6.013   7.061  68.123  1.00  0.00    -0.029 C  
BRANCH  16  17
HETATM   17  C   UNL     1      -6.592   6.431  69.390  1.00  0.00    -0.044 C  
BRANCH  17  18
HETATM   18  C   UNL     1      -7.486   5.225  69.078  1.00  0.00    -0.070 C  
BRANCH  18  19
HETATM   19  C   UNL     1      -8.930   5.471  69.513  1.00  0.00    -0.129 C  
BRANCH  19  20
HETATM   20  C   UNL     1      -9.122   5.121  70.961  1.00  0.00    -0.178 C  
HETATM   21  C   UNL     1      -8.487   5.735  71.970  1.00  0.00    -0.126 C  
HETATM   22  C   UNL     1      -8.677   5.379  73.424  1.00  0.00    -0.115 C  
HETATM   23  C   UNL     1      -9.263   6.568  74.184  1.00  0.00    -0.196 C  
HETATM   24  C   UNL     1      -7.344   4.951  74.037  1.00  0.00    -0.082 C  
ENDBRANCH  19  20
ENDBRANCH  18  19
ENDBRANCH  17  18
ENDBRANCH  16  17
ENDBRANCH  13  16
ENDBRANCH  11  12
ENDBRANCH   9  11
ENDBRANCH   2   3
TORSDOF 8
ENDMDL
MODEL      375
REMARK 921   NORMALIZED FREE ENERGY PREDICTED BY IDOCK:   -1.81 KCAL/MOL
REMARK 922        TOTAL FREE ENERGY PREDICTED BY IDOCK:   -3.86 KCAL/MOL
REMARK 923 INTER-LIGAND FREE ENERGY PREDICTED BY IDOCK:   -3.70 KCAL/MOL
REMARK 924 INTRA-LIGAND FREE ENERGY PREDICTED BY IDOCK:   -0.16 KCAL/MOL
REMARK 927      BINDING AFFINITY PREDICTED BY RF-SCORE:    0.00 PKD
ROOT
HETATM    1  C   UNL     1     -10.980  14.018  67.262  1.00  0.00    -0.295 C  
HETATM    2  O   UNL     1     -10.218  13.613  66.132  1.00  0.00    -0.289 OA 
ENDROOT
BRANCH   2   3
HETATM    3  C   UNL     1      -9.318  12.596  66.332  1.00  0.00    -0.198 A  
HETATM    4  C   UNL     1      -8.165  12.958  67.036  1.00  0.00    -0.080 A  
HETATM    5  O   UNL     1      -7.986  14.248  67.452  1.00  0.00    -0.179 OA 
HETATM    6  C   UNL     1      -7.167  12.036  67.320  1.00  0.00    -0.150 A  
HETATM    7  C   UNL     1      -7.301  10.726  66.859  1.00  0.00    -0.119 A  
HETATM    8  H   UNL     1      -7.203  14.495  67.930  1.00  0.00     0.000 HD 
HETATM    9  C   UNL     1      -8.426  10.345  66.110  1.00  0.00    -0.149 A  
HETATM   10  C   UNL     1      -9.450  11.282  65.880  1.00  0.00    -0.247 A  
BRANCH   9  11
HETATM   11  C   UNL     1      -8.513   8.957  65.530  1.00  0.00    -0.159 C  
BRANCH  11  12
HETATM   12  N   UNL     1      -8.668   7.950  66.552  1.00  0.00    -0.140 N  
HETATM   13  C   UNL     1      -7.652   7.060  66.805  1.00  0.00    -0.090 C  
HETATM   14  H   UNL     1      -9.534   7.900  67.089  1.00  0.00     0.000 HD 
HETATM   15  O   UNL     1      -6.584   7.066  66.202  1.00  0.00    -0.049 OA 
BRANCH  13  16
HETATM   16  C   UNL     1      -7.977   6.050  67.887  1.00  0.00    -0.106 C  
BRANCH  16  17
HETATM   17  C   UNL     1      -6.735   5.607  68.662  1.00  0.00    -0.057 C  
BRANCH  17  18
HETATM   18  C   UNL     1      -7.037   4.454  69.625  1.00  0.00    -0.050 C  
BRANCH  18  19
HETATM   19  C   UNL     1      -8.539   4.301  69.862  1.00  0.00    -0.101 C  
BRANCH  19  20
HETATM   20  C   UNL     1      -9.028   5.301  70.871  1.00  0.00    -0.160 C  
HETATM   21  C   UNL     1     -10.000   6.192  70.630  1.00  0.00    -0.229 C  
HETATM   22  C   UNL     1     -10.487   7.199  71.642  1.00  0.00    -0.218 C  
HETATM   23  C   UNL     1     -11.958   6.945  71.971  1.00  0.00    -0.342 C  
HETATM   24  C   UNL     1     -10.292   8.617  71.107  1.00  0.00    -0.294 C  
ENDBRANCH  19  20
ENDBRANCH  18  19
ENDBRANCH  17  18
ENDBRANCH  16  17
ENDBRANCH  13  16
ENDBRANCH  11  12
ENDBRANCH   9  11
ENDBRANCH   2   3
TORSDOF 8
ENDMDL
MODEL      376
REMARK 921   NORMALIZED FREE ENERGY PREDICTED BY IDOCK:   -1.79 KCAL/MOL
REMARK 922        TOTAL FREE ENERGY PREDICTED BY IDOCK:   -3.83 KCAL/MOL
REMARK 923 INTER-LIGAND FREE ENERGY PREDICTED BY IDOCK:   -4.22 KCAL/MOL
REMARK 924 INTRA-LIGAND FREE ENERGY PREDICTED BY IDOCK:    0.39 KCAL/MOL
REMARK 927      BINDING AFFINITY PREDICTED BY RF-SCORE:    0.00 PKD
ROOT
HETATM    1  C   UNL     1     -11.510   5.943  72.529  1.00  0.00    -0.298 C  
HETATM    2  O   UNL     1     -10.125   5.953  72.206  1.00  0.00    -0.178 OA 
ENDROOT
BRANCH   2   3
HETATM    3  C   UNL     1      -9.660   7.055  71.534  1.00  0.00    -0.158 A  
HETATM    4  C   UNL     1     -10.489   8.180  71.601  1.00  0.00    -0.228 A  
HETATM    5  O   UNL     1     -11.675   8.125  72.281  1.00  0.00    -0.329 OA 
HETATM    6  C   UNL     1     -10.149   9.372  70.975  1.00  0.00    -0.353 A  
HETATM    7  C   UNL     1      -8.971   9.437  70.231  1.00  0.00    -0.277 A  
HETATM    8  H   UNL     1     -12.238   8.889  72.326  1.00  0.00     0.000 HD 
HETATM    9  C   UNL     1      -8.143   8.310  70.107  1.00  0.00    -0.112 A  
HETATM   10  C   UNL     1      -8.480   7.129  70.794  1.00  0.00    -0.133 A  
BRANCH   9  11
HETATM   11  C   UNL     1      -6.927   8.360  69.218  1.00  0.00    -0.054 C  
BRANCH  11  12
HETATM   12  N   UNL     1      -7.276   8.341  67.819  1.00  0.00    -0.086 N  
HETATM   13  C   UNL     1      -7.222   9.497  67.077  1.00  0.00    -0.087 C  
HETATM   14  H   UNL     1      -7.563   7.467  67.378  1.00  0.00     0.000 HD 
HETATM   15  O   UNL     1      -6.881  10.580  67.541  1.00  0.00    -0.073 OA 
BRANCH  13  16
HETATM   16  C   UNL     1      -7.642   9.319  65.632  1.00  0.00    -0.094 C  
BRANCH  16  17
HETATM   17  C   UNL     1      -8.438  10.514  65.105  1.00  0.00    -0.170 C  
BRANCH  17  18
HETATM   18  C   UNL     1      -9.864  10.123  64.699  1.00  0.00    -0.361 C  
BRANCH  18  19
HETATM   19  C   UNL     1     -10.787  10.032  65.913  1.00  0.00     0.317 C  
BRANCH  19  20
HETATM   20  C   UNL     1     -10.455  11.096  66.921  1.00  0.00    -0.289 C  
HETATM   21  C   UNL     1     -11.374  11.791  67.605  1.00  0.00    -0.370 C  
HETATM   22  C   UNL     1     -11.040  12.863  68.614  1.00  0.00    -0.307 C  
HETATM   23  C   UNL     1     -11.538  12.456  69.999  1.00  0.00    -0.216 C  
HETATM   24  C   UNL     1     -11.658  14.194  68.188  1.00  0.00    -0.365 C  
ENDBRANCH  19  20
ENDBRANCH  18  19
ENDBRANCH  17  18
ENDBRANCH  16  17
ENDBRANCH  13  16
ENDBRANCH  11  12
ENDBRANCH   9  11
ENDBRANCH   2   3
TORSDOF 8
ENDMDL
MODEL      377
REMARK 921   NORMALIZED FREE ENERGY PREDICTED BY IDOCK:   -1.73 KCAL/MOL
REMARK 922        TOTAL FREE ENERGY PREDICTED BY IDOCK:   -3.75 KCAL/MOL
REMARK 923 INTER-LIGAND FREE ENERGY PREDICTED BY IDOCK:   -2.48 KCAL/MOL
REMARK 924 INTRA-LIGAND FREE ENERGY PREDICTED BY IDOCK:   -1.26 KCAL/MOL
REMARK 927      BINDING AFFINITY PREDICTED BY RF-SCORE:    0.00 PKD
ROOT
HETATM    1  C   UNL     1     -12.557  11.012  70.237  1.00  0.00    -0.243 C  
HETATM    2  O   UNL     1     -11.593  12.035  70.019  1.00  0.00    -0.279 OA 
ENDROOT
BRANCH   2   3
HETATM    3  C   UNL     1     -11.162  12.205  68.728  1.00  0.00    -0.264 A  
HETATM    4  C   UNL     1     -10.972  13.535  68.338  1.00  0.00    -0.266 A  
HETATM    5  O   UNL     1     -11.233  14.554  69.211  1.00  0.00    -0.258 OA 
HETATM    6  C   UNL     1     -10.533  13.863  67.062  1.00  0.00    -0.278 A  
HETATM    7  C   UNL     1     -10.311  12.843  66.136  1.00  0.00    -0.286 A  
HETATM    8  H   UNL     1     -11.104  15.458  68.947  1.00  0.00     0.000 HD 
HETATM    9  C   UNL     1     -10.538  11.502  66.485  1.00  0.00    -0.301 A  
HETATM   10  C   UNL     1     -10.932  11.189  67.798  1.00  0.00    -0.315 A  
BRANCH   9  11
HETATM   11  C   UNL     1     -10.395  10.418  65.448  1.00  0.00    -0.200 C  
BRANCH  11  12
HETATM   12  N   UNL     1      -9.016  10.172  65.106  1.00  0.00    -0.177 N  
HETATM   13  C   UNL     1      -8.367   9.067  65.601  1.00  0.00    -0.132 C  
HETATM   14  H   UNL     1      -8.520  10.821  64.494  1.00  0.00     0.000 HD 
HETATM   15  O   UNL     1      -8.902   8.244  66.336  1.00  0.00    -0.135 OA 
BRANCH  13  16
HETATM   16  C   UNL     1      -6.917   8.962  65.172  1.00  0.00    -0.080 C  
BRANCH  16  17
HETATM   17  C   UNL     1      -5.958   9.546  66.210  1.00  0.00    -0.059 C  
BRANCH  17  18
HETATM   18  C   UNL     1      -5.723   8.586  67.382  1.00  0.00    -0.039 C  
BRANCH  18  19
HETATM   19  C   UNL     1      -6.215   9.182  68.700  1.00  0.00    -0.045 C  
BRANCH  19  20
HETATM   20  C   UNL     1      -5.888  10.646  68.783  1.00  0.00    -0.040 C  
HETATM   21  C   UNL     1      -6.718  11.622  68.388  1.00  0.00    -0.064 C  
HETATM   22  C   UNL     1      -6.386  13.092  68.467  1.00  0.00    -0.081 C  
HETATM   23  C   UNL     1      -7.357  13.800  69.410  1.00  0.00     0.182 C  
HETATM   24  C   UNL     1      -6.437  13.716  67.072  1.00  0.00     0.877 C  
ENDBRANCH  19  20
ENDBRANCH  18  19
ENDBRANCH  17  18
ENDBRANCH  16  17
ENDBRANCH  13  16
ENDBRANCH  11  12
ENDBRANCH   9  11
ENDBRANCH   2   3
TORSDOF 8
ENDMDL
MODEL      378
REMARK 921   NORMALIZED FREE ENERGY PREDICTED BY IDOCK:   -1.36 KCAL/MOL
REMARK 922        TOTAL FREE ENERGY PREDICTED BY IDOCK:   -3.21 KCAL/MOL
REMARK 923 INTER-LIGAND FREE ENERGY PREDICTED BY IDOCK:   -3.13 KCAL/MOL
REMARK 924 INTRA-LIGAND FREE ENERGY PREDICTED BY IDOCK:   -0.08 KCAL/MOL
REMARK 927      BINDING AFFINITY PREDICTED BY RF-SCORE:    0.00 PKD
ROOT
HETATM    1  C   UNL     1     -12.347  12.935  66.425  1.00  0.00    -0.075 C  
HETATM    2  O   UNL     1     -11.747  11.738  65.944  1.00  0.00    -0.397 OA 
ENDROOT
BRANCH   2   3
HETATM    3  C   UNL     1     -10.717  11.226  66.692  1.00  0.00    -0.272 A  
HETATM    4  C   UNL     1     -11.062  10.854  67.996  1.00  0.00    -0.293 A  
HETATM    5  O   UNL     1     -12.341  11.029  68.448  1.00  0.00    -0.762 OA 
HETATM    6  C   UNL     1     -10.128  10.315  68.870  1.00  0.00    -0.216 A  
HETATM    7  C   UNL     1      -8.805  10.176  68.450  1.00  0.00    -0.123 A  
HETATM    8  H   UNL     1     -12.576  10.777  69.333  1.00  0.00     0.000 HD 
HETATM    9  C   UNL     1      -8.419  10.584  67.163  1.00  0.00    -0.127 A  
HETATM   10  C   UNL     1      -9.393  11.078  66.276  1.00  0.00    -0.206 A  
BRANCH   9  11
HETATM   11  C   UNL     1      -6.970  10.525  66.755  1.00  0.00    -0.104 C  
BRANCH  11  12
HETATM   12  N   UNL     1      -6.311   9.346  67.261  1.00  0.00    -0.061 N  
HETATM   13  C   UNL     1      -6.573   8.115  66.709  1.00  0.00    -0.057 C  
HETATM   14  H   UNL     1      -5.647   9.426  68.032  1.00  0.00     0.000 HD 
HETATM   15  O   UNL     1      -7.355   7.947  65.779  1.00  0.00    -0.073 OA 
BRANCH  13  16
HETATM   16  C   UNL     1      -5.823   6.974  67.366  1.00  0.00    -0.024 C  
BRANCH  16  17
HETATM   17  C   UNL     1      -6.135   6.854  68.858  1.00  0.00    -0.026 C  
BRANCH  17  18
HETATM   18  C   UNL     1      -7.528   6.265  69.111  1.00  0.00    -0.094 C  
BRANCH  18  19
HETATM   19  C   UNL     1      -7.452   4.778  69.452  1.00  0.00    -0.053 C  
BRANCH  19  20
HETATM   20  C   UNL     1      -7.558   4.561  70.935  1.00  0.00    -0.056 C  
HETATM   21  C   UNL     1      -6.882   3.616  71.603  1.00  0.00    -0.027 C  
HETATM   22  C   UNL     1      -6.993   3.397  73.092  1.00  0.00    -0.040 C  
HETATM   23  C   UNL     1      -5.644   3.649  73.764  1.00  0.00    -0.003 C  
HETATM   24  C   UNL     1      -7.480   1.976  73.377  1.00  0.00    -0.040 C  
ENDBRANCH  19  20
ENDBRANCH  18  19
ENDBRANCH  17  18
ENDBRANCH  16  17
ENDBRANCH  13  16
ENDBRANCH  11  12
ENDBRANCH   9  11
ENDBRANCH   2   3
TORSDOF 8
ENDMDL
MODEL      379
REMARK 921   NORMALIZED FREE ENERGY PREDICTED BY IDOCK:   -1.34 KCAL/MOL
REMARK 922        TOTAL FREE ENERGY PREDICTED BY IDOCK:   -3.18 KCAL/MOL
REMARK 923 INTER-LIGAND FREE ENERGY PREDICTED BY IDOCK:   -2.34 KCAL/MOL
REMARK 924 INTRA-LIGAND FREE ENERGY PREDICTED BY IDOCK:   -0.84 KCAL/MOL
REMARK 927      BINDING AFFINITY PREDICTED BY RF-SCORE:    0.00 PKD
ROOT
HETATM    1  C   UNL     1     -10.784   3.901  65.346  1.00  0.00     0.345 C  
HETATM    2  O   UNL     1      -9.689   4.804  65.256  1.00  0.00    -0.155 OA 
ENDROOT
BRANCH   2   3
HETATM    3  C   UNL     1      -8.824   4.826  66.321  1.00  0.00    -0.114 A  
HETATM    4  C   UNL     1      -8.617   6.088  66.887  1.00  0.00    -0.108 A  
HETATM    5  O   UNL     1      -9.238   7.190  66.367  1.00  0.00    -0.165 OA 
HETATM    6  C   UNL     1      -7.772   6.267  67.975  1.00  0.00    -0.103 A  
HETATM    7  C   UNL     1      -7.086   5.168  68.490  1.00  0.00    -0.062 A  
HETATM    8  H   UNL     1      -9.098   8.047  66.751  1.00  0.00     0.000 HD 
HETATM    9  C   UNL     1      -7.238   3.897  67.913  1.00  0.00    -0.059 A  
HETATM   10  C   UNL     1      -8.140   3.729  66.845  1.00  0.00    -0.095 A  
BRANCH   9  11
HETATM   11  C   UNL     1      -6.415   2.738  68.411  1.00  0.00    -0.029 C  
BRANCH  11  12
HETATM   12  N   UNL     1      -7.039   2.068  69.525  1.00  0.00    -0.036 N  
HETATM   13  C   UNL     1      -6.912   2.576  70.796  1.00  0.00    -0.033 C  
HETATM   14  H   UNL     1      -7.577   1.215  69.370  1.00  0.00     0.000 HD 
HETATM   15  O   UNL     1      -6.286   3.598  71.054  1.00  0.00    -0.018 OA 
BRANCH  13  16
HETATM   16  C   UNL     1      -7.603   1.746  71.860  1.00  0.00    -0.040 C  
BRANCH  16  17
HETATM   17  C   UNL     1      -9.076   1.495  71.538  1.00  0.00    -0.126 C  
BRANCH  17  18
HETATM   18  C   UNL     1      -9.782   2.761  71.039  1.00  0.00    -0.160 C  
BRANCH  18  19
HETATM   19  C   UNL     1      -9.675   3.898  72.054  1.00  0.00    -0.232 C  
BRANCH  19  20
HETATM   20  C   UNL     1      -9.349   5.197  71.373  1.00  0.00    -0.189 C  
HETATM   21  C   UNL     1      -9.992   6.349  71.612  1.00  0.00    -0.195 C  
HETATM   22  C   UNL     1      -9.667   7.652  70.924  1.00  0.00    -0.175 C  
HETATM   23  C   UNL     1      -9.189   8.682  71.946  1.00  0.00    -0.345 C  
HETATM   24  C   UNL     1     -10.895   8.167  70.173  1.00  0.00    -0.241 C  
ENDBRANCH  19  20
ENDBRANCH  18  19
ENDBRANCH  17  18
ENDBRANCH  16  17
ENDBRANCH  13  16
ENDBRANCH  11  12
ENDBRANCH   9  11
ENDBRANCH   2   3
TORSDOF 8
ENDMDL
MODEL      380
REMARK 921   NORMALIZED FREE ENERGY PREDICTED BY IDOCK:   -1.27 KCAL/MOL
REMARK 922        TOTAL FREE ENERGY PREDICTED BY IDOCK:   -3.07 KCAL/MOL
REMARK 923 INTER-LIGAND FREE ENERGY PREDICTED BY IDOCK:   -3.55 KCAL/MOL
REMARK 924 INTRA-LIGAND FREE ENERGY PREDICTED BY IDOCK:    0.48 KCAL/MOL
REMARK 927      BINDING AFFINITY PREDICTED BY RF-SCORE:    0.00 PKD
ROOT
HETATM    1  C   UNL     1     -11.513   6.012  72.463  1.00  0.00    -0.290 C  
HETATM    2  O   UNL     1     -10.352   6.277  71.686  1.00  0.00    -0.205 OA 
ENDROOT
BRANCH   2   3
HETATM    3  C   UNL     1     -10.241   7.541  71.163  1.00  0.00    -0.193 A  
HETATM    4  C   UNL     1     -11.440   8.258  71.091  1.00  0.00    -0.273 A  
HETATM    5  O   UNL     1     -12.612   7.687  71.504  1.00  0.00    -0.322 OA 
HETATM    6  C   UNL     1     -11.484   9.552  70.590  1.00  0.00    -0.362 A  
HETATM    7  C   UNL     1     -10.311  10.137  70.114  1.00  0.00    -0.280 A  
HETATM    8  H   UNL     1     -13.426   8.174  71.455  1.00  0.00     0.000 HD 
HETATM    9  C   UNL     1      -9.101   9.424  70.130  1.00  0.00    -0.262 A  
HETATM   10  C   UNL     1      -9.069   8.134  70.691  1.00  0.00    -0.156 A  
BRANCH   9  11
HETATM   11  C   UNL     1      -7.862  10.025  69.519  1.00  0.00    -0.154 C  
BRANCH  11  12
HETATM   12  N   UNL     1      -7.350   9.227  68.432  1.00  0.00    -0.077 N  
HETATM   13  C   UNL     1      -7.585   9.599  67.130  1.00  0.00    -0.091 C  
HETATM   14  H   UNL     1      -6.811   8.384  68.631  1.00  0.00     0.000 HD 
HETATM   15  O   UNL     1      -8.219  10.602  66.820  1.00  0.00    -0.123 OA 
BRANCH  13  16
HETATM   16  C   UNL     1      -7.004   8.646  66.105  1.00  0.00    -0.080 C  
BRANCH  16  17
HETATM   17  C   UNL     1      -7.980   8.352  64.965  1.00  0.00    -0.139 C  
BRANCH  17  18
HETATM   18  C   UNL     1      -8.074   6.853  64.658  1.00  0.00    -0.082 C  
BRANCH  18  19
HETATM   19  C   UNL     1      -8.825   6.103  65.757  1.00  0.00    -0.133 C  
BRANCH  19  20
HETATM   20  C   UNL     1      -7.875   5.330  66.627  1.00  0.00    -0.100 C  
HETATM   21  C   UNL     1      -7.969   5.261  67.962  1.00  0.00    -0.091 C  
HETATM   22  C   UNL     1      -7.011   4.489  68.834  1.00  0.00    -0.051 C  
HETATM   23  C   UNL     1      -7.751   3.369  69.566  1.00  0.00    -0.050 C  
HETATM   24  C   UNL     1      -6.335   5.430  69.831  1.00  0.00    -0.030 C  
ENDBRANCH  19  20
ENDBRANCH  18  19
ENDBRANCH  17  18
ENDBRANCH  16  17
ENDBRANCH  13  16
ENDBRANCH  11  12
ENDBRANCH   9  11
ENDBRANCH   2   3
TORSDOF 8
ENDMDL
MODEL      381
REMARK 921   NORMALIZED FREE ENERGY PREDICTED BY IDOCK:   -1.04 KCAL/MOL
REMARK 922        TOTAL FREE ENERGY PREDICTED BY IDOCK:   -2.73 KCAL/MOL
REMARK 923 INTER-LIGAND FREE ENERGY PREDICTED BY IDOCK:   -3.10 KCAL/MOL
REMARK 924 INTRA-LIGAND FREE ENERGY PREDICTED BY IDOCK:    0.37 KCAL/MOL
REMARK 927      BINDING AFFINITY PREDICTED BY RF-SCORE:    0.00 PKD
ROOT
HETATM    1  C   UNL     1      -7.244   2.762  72.606  1.00  0.00    -0.039 C  
HETATM    2  O   UNL     1      -8.652   2.864  72.427  1.00  0.00    -0.073 OA 
ENDROOT
BRANCH   2   3
HETATM    3  C   UNL     1      -9.098   3.923  71.676  1.00  0.00    -0.116 A  
HETATM    4  C   UNL     1     -10.094   4.697  72.281  1.00  0.00    -0.189 A  
HETATM    5  O   UNL     1     -10.568   4.367  73.520  1.00  0.00    -0.180 OA 
HETATM    6  C   UNL     1     -10.640   5.804  71.645  1.00  0.00    -0.302 A  
HETATM    7  C   UNL     1     -10.211   6.130  70.359  1.00  0.00    -0.256 A  
HETATM    8  H   UNL     1     -11.245   4.892  73.931  1.00  0.00     0.000 HD 
HETATM    9  C   UNL     1      -9.247   5.344  69.709  1.00  0.00    -0.169 A  
HETATM   10  C   UNL     1      -8.668   4.258  70.391  1.00  0.00    -0.118 A  
BRANCH   9  11
HETATM   11  C   UNL     1      -8.865   5.643  68.282  1.00  0.00    -0.108 C  
BRANCH  11  12
HETATM   12  N   UNL     1      -7.866   6.679  68.192  1.00  0.00    -0.108 N  
HETATM   13  C   UNL     1      -8.228   8.000  68.297  1.00  0.00    -0.123 C  
HETATM   14  H   UNL     1      -6.886   6.430  68.052  1.00  0.00     0.000 HD 
HETATM   15  O   UNL     1      -9.385   8.370  68.471  1.00  0.00    -0.139 OA 
BRANCH  13  16
HETATM   16  C   UNL     1      -7.070   8.968  68.158  1.00  0.00    -0.078 C  
BRANCH  16  17
HETATM   17  C   UNL     1      -6.123   8.583  67.021  1.00  0.00    -0.055 C  
BRANCH  17  18
HETATM   18  C   UNL     1      -6.640   9.051  65.656  1.00  0.00    -0.068 C  
BRANCH  18  19
HETATM   19  C   UNL     1      -6.512  10.566  65.499  1.00  0.00    -0.106 C  
BRANCH  19  20
HETATM   20  C   UNL     1      -7.230  11.284  66.606  1.00  0.00    -0.126 C  
HETATM   21  C   UNL     1      -8.434  11.856  66.469  1.00  0.00    -0.097 C  
HETATM   22  C   UNL     1      -9.152  12.581  67.581  1.00  0.00    -0.187 C  
HETATM   23  C   UNL     1     -10.462  11.868  67.914  1.00  0.00    -0.225 C  
HETATM   24  C   UNL     1      -9.416  14.031  67.176  1.00  0.00    -0.241 C  
ENDBRANCH  19  20
ENDBRANCH  18  19
ENDBRANCH  17  18
ENDBRANCH  16  17
ENDBRANCH  13  16
ENDBRANCH  11  12
ENDBRANCH   9  11
ENDBRANCH   2   3
TORSDOF 8
ENDMDL
MODEL      382
REMARK 921   NORMALIZED FREE ENERGY PREDICTED BY IDOCK:   -1.00 KCAL/MOL
REMARK 922        TOTAL FREE ENERGY PREDICTED BY IDOCK:   -2.67 KCAL/MOL
REMARK 923 INTER-LIGAND FREE ENERGY PREDICTED BY IDOCK:   -3.06 KCAL/MOL
REMARK 924 INTRA-LIGAND FREE ENERGY PREDICTED BY IDOCK:    0.39 KCAL/MOL
REMARK 927      BINDING AFFINITY PREDICTED BY RF-SCORE:    0.00 PKD
ROOT
HETATM    1  C   UNL     1     -11.482   6.046  72.488  1.00  0.00    -0.290 C  
HETATM    2  O   UNL     1     -10.176   6.372  72.030  1.00  0.00    -0.192 OA 
ENDROOT
BRANCH   2   3
HETATM    3  C   UNL     1     -10.042   7.557  71.352  1.00  0.00    -0.186 A  
HETATM    4  C   UNL     1     -11.231   8.074  70.827  1.00  0.00    -0.265 A  
HETATM    5  O   UNL     1     -12.409   7.398  70.987  1.00  0.00    -0.411 OA 
HETATM    6  C   UNL     1     -11.255   9.269  70.121  1.00  0.00    -0.237 A  
HETATM    7  C   UNL     1     -10.058   9.951  69.899  1.00  0.00    -0.297 A  
HETATM    8  H   UNL     1     -13.216   7.749  70.631  1.00  0.00     0.000 HD 
HETATM    9  C   UNL     1      -8.843   9.432  70.373  1.00  0.00    -0.290 A  
HETATM   10  C   UNL     1      -8.850   8.247  71.132  1.00  0.00    -0.182 A  
BRANCH   9  11
HETATM   11  C   UNL     1      -7.545  10.122  70.040  1.00  0.00    -0.152 C  
BRANCH  11  12
HETATM   12  N   UNL     1      -6.508   9.185  69.683  1.00  0.00    -0.042 N  
HETATM   13  C   UNL     1      -6.230   8.932  68.361  1.00  0.00    -0.054 C  
HETATM   14  H   UNL     1      -5.979   8.710  70.415  1.00  0.00     0.000 HD 
HETATM   15  O   UNL     1      -6.822   9.471  67.432  1.00  0.00    -0.081 OA 
BRANCH  13  16
HETATM   16  C   UNL     1      -5.133   7.907  68.150  1.00  0.00    -0.031 C  
BRANCH  16  17
HETATM   17  C   UNL     1      -5.428   6.972  66.977  1.00  0.00    -0.018 C  
BRANCH  17  18
HETATM   18  C   UNL     1      -5.412   5.497  67.397  1.00  0.00    -0.012 C  
BRANCH  18  19
HETATM   19  C   UNL     1      -6.694   5.111  68.133  1.00  0.00    -0.055 C  
BRANCH  19  20
HETATM   20  C   UNL     1      -7.890   5.774  67.513  1.00  0.00    -0.101 C  
HETATM   21  C   UNL     1      -9.101   5.205  67.427  1.00  0.00    -0.116 C  
HETATM   22  C   UNL     1     -10.301   5.871  66.799  1.00  0.00    -0.302 C  
HETATM   23  C   UNL     1     -11.398   6.071  67.844  1.00  0.00     0.252 C  
HETATM   24  C   UNL     1     -10.815   5.029  65.632  1.00  0.00    -0.003 C  
ENDBRANCH  19  20
ENDBRANCH  18  19
ENDBRANCH  17  18
ENDBRANCH  16  17
ENDBRANCH  13  16
ENDBRANCH  11  12
ENDBRANCH   9  11
ENDBRANCH   2   3
TORSDOF 8
ENDMDL
MODEL      383
REMARK 921   NORMALIZED FREE ENERGY PREDICTED BY IDOCK:   -0.58 KCAL/MOL
REMARK 922        TOTAL FREE ENERGY PREDICTED BY IDOCK:   -2.06 KCAL/MOL
REMARK 923 INTER-LIGAND FREE ENERGY PREDICTED BY IDOCK:   -3.15 KCAL/MOL
REMARK 924 INTRA-LIGAND FREE ENERGY PREDICTED BY IDOCK:    1.08 KCAL/MOL
REMARK 927      BINDING AFFINITY PREDICTED BY RF-SCORE:    0.00 PKD
ROOT
HETATM    1  C   UNL     1     -11.661  11.536  63.868  1.00  0.00    -0.154 C  
HETATM    2  O   UNL     1     -11.797  10.996  65.177  1.00  0.00     0.418 OA 
ENDROOT
BRANCH   2   3
HETATM    3  C   UNL     1     -10.900  11.437  66.118  1.00  0.00    -0.255 A  
HETATM    4  C   UNL     1     -10.636  10.533  67.152  1.00  0.00    -0.264 A  
HETATM    5  O   UNL     1     -11.268   9.321  67.188  1.00  0.00    -0.217 OA 
HETATM    6  C   UNL     1      -9.745  10.837  68.173  1.00  0.00    -0.169 A  
HETATM    7  C   UNL     1      -9.128  12.087  68.188  1.00  0.00    -0.191 A  
HETATM    8  H   UNL     1     -11.088   8.706  67.890  1.00  0.00     0.000 HD 
HETATM    9  C   UNL     1      -9.410  13.033  67.188  1.00  0.00    -0.230 A  
HETATM   10  C   UNL     1     -10.274  12.684  66.134  1.00  0.00    -0.272 A  
BRANCH   9  11
HETATM   11  C   UNL     1      -8.818  14.416  67.269  1.00  0.00    -0.213 C  
BRANCH  11  12
HETATM   12  N   UNL     1      -7.857  14.534  68.338  1.00  0.00    -0.127 N  
HETATM   13  C   UNL     1      -8.235  15.051  69.554  1.00  0.00    -0.106 C  
HETATM   14  H   UNL     1      -6.893  14.232  68.192  1.00  0.00     0.000 HD 
HETATM   15  O   UNL     1      -9.376  15.427  69.802  1.00  0.00    -0.253 OA 
BRANCH  13  16
HETATM   16  C   UNL     1      -7.108  15.133  70.564  1.00  0.00     0.476 C  
BRANCH  16  17
HETATM   17  C   UNL     1      -5.891  15.880  70.019  1.00  0.00    -0.168 C  
BRANCH  17  18
HETATM   18  C   UNL     1      -6.239  16.735  68.795  1.00  0.00    -0.151 C  
BRANCH  18  19
HETATM   19  C   UNL     1      -7.369  17.717  69.102  1.00  0.00    -0.114 C  
BRANCH  19  20
HETATM   20  C   UNL     1      -7.383  18.847  68.112  1.00  0.00    -0.286 C  
HETATM   21  C   UNL     1      -6.423  19.054  67.199  1.00  0.00    -0.190 C  
HETATM   22  C   UNL     1      -6.436  20.192  66.208  1.00  0.00    -0.230 C  
HETATM   23  C   UNL     1      -6.503  19.647  64.782  1.00  0.00    -0.215 C  
HETATM   24  C   UNL     1      -5.193  21.062  66.394  1.00  0.00    -0.235 C  
ENDBRANCH  19  20
ENDBRANCH  18  19
ENDBRANCH  17  18
ENDBRANCH  16  17
ENDBRANCH  13  16
ENDBRANCH  11  12
ENDBRANCH   9  11
ENDBRANCH   2   3
TORSDOF 8
ENDMDL
MODEL      384
REMARK 921   NORMALIZED FREE ENERGY PREDICTED BY IDOCK:    4.54 KCAL/MOL
REMARK 922        TOTAL FREE ENERGY PREDICTED BY IDOCK:    5.46 KCAL/MOL
REMARK 923 INTER-LIGAND FREE ENERGY PREDICTED BY IDOCK:    2.58 KCAL/MOL
REMARK 924 INTRA-LIGAND FREE ENERGY PREDICTED BY IDOCK:    2.88 KCAL/MOL
REMARK 927      BINDING AFFINITY PREDICTED BY RF-SCORE:    0.00 PKD
ROOT
HETATM    1  C   UNL     1     -11.287   3.529  65.546  1.00  0.00     2.937 C  
HETATM    2  O   UNL     1     -10.852   4.658  64.797  1.00  0.00     0.005 OA 
ENDROOT
BRANCH   2   3
HETATM    3  C   UNL     1     -10.135   5.607  65.482  1.00  0.00     0.481 A  
HETATM    4  C   UNL     1     -10.881   6.375  66.382  1.00  0.00     0.171 A  
HETATM    5  O   UNL     1     -12.226   6.169  66.516  1.00  0.00     1.114 OA 
HETATM    6  C   UNL     1     -10.293   7.371  67.150  1.00  0.00    -0.377 A  
HETATM    7  C   UNL     1      -8.932   7.636  66.992  1.00  0.00    -0.148 A  
HETATM    8  H   UNL     1     -12.733   6.691  67.128  1.00  0.00     0.000 HD 
HETATM    9  C   UNL     1      -8.168   6.913  66.063  1.00  0.00    -0.125 A  
HETATM   10  C   UNL     1      -8.773   5.873  65.334  1.00  0.00    -0.109 A  
BRANCH   9  11
HETATM   11  C   UNL     1      -6.725   7.276  65.826  1.00  0.00    -0.052 C  
BRANCH  11  12
HETATM   12  N   UNL     1      -5.878   6.879  66.924  1.00  0.00    -0.021 N  
HETATM   13  C   UNL     1      -6.185   7.261  68.208  1.00  0.00    -0.036 C  
HETATM   14  H   UNL     1      -5.049   6.311  66.747  1.00  0.00     0.000 HD 
HETATM   15  O   UNL     1      -7.168   7.938  68.493  1.00  0.00    -0.081 OA 
BRANCH  13  16
HETATM   16  C   UNL     1      -5.187   6.787  69.246  1.00  0.00    -0.014 C  
BRANCH  16  17
HETATM   17  C   UNL     1      -5.379   5.314  69.607  1.00  0.00    -0.004 C  
BRANCH  17  18
HETATM   18  C   UNL     1      -6.819   5.007  70.031  1.00  0.00    -0.048 C  
BRANCH  18  19
HETATM   19  C   UNL     1      -7.318   5.998  71.082  1.00  0.00    -0.084 C  
BRANCH  19  20
HETATM   20  C   UNL     1      -8.361   6.912  70.506  1.00  0.00    -0.129 C  
HETATM   21  C   UNL     1      -9.501   7.237  71.133  1.00  0.00    -0.156 C  
HETATM   22  C   UNL     1     -10.550   8.151  70.551  1.00  0.00    -0.228 C  
HETATM   23  C   UNL     1     -10.702   9.398  71.421  1.00  0.00    -0.407 C  
HETATM   24  C   UNL     1     -11.882   7.411  70.433  1.00  0.00    -0.114 C  
ENDBRANCH  19  20
ENDBRANCH  18  19
ENDBRANCH  17  18
ENDBRANCH  16  17
ENDBRANCH  13  16
ENDBRANCH  11  12
ENDBRANCH   9  11
ENDBRANCH   2   3
TORSDOF 8
ENDMDL
MODEL      385
REMARK 921   NORMALIZED FREE ENERGY PREDICTED BY IDOCK:    9.30 KCAL/MOL
REMARK 922        TOTAL FREE ENERGY PREDICTED BY IDOCK:   12.44 KCAL/MOL
REMARK 923 INTER-LIGAND FREE ENERGY PREDICTED BY IDOCK:    9.58 KCAL/MOL
REMARK 924 INTRA-LIGAND FREE ENERGY PREDICTED BY IDOCK:    2.86 KCAL/MOL
REMARK 927      BINDING AFFINITY PREDICTED BY RF-SCORE:    0.00 PKD
ROOT
HETATM    1  C   UNL     1      -7.607   2.693  72.352  1.00  0.00    -0.052 C  
HETATM    2  O   UNL     1      -8.794   2.151  71.786  1.00  0.00    -0.069 OA 
ENDROOT
BRANCH   2   3
HETATM    3  C   UNL     1      -9.141   2.605  70.539  1.00  0.00    -0.115 A  
HETATM    4  C   UNL     1     -10.513   2.790  70.338  1.00  0.00     1.830 A  
HETATM    5  O   UNL     1     -11.402   2.505  71.337  1.00  0.00     2.456 OA 
HETATM    6  C   UNL     1     -11.014   3.250  69.128  1.00  0.00     5.248 A  
HETATM    7  C   UNL     1     -10.133   3.498  68.076  1.00  0.00     0.583 A  
HETATM    8  H   UNL     1     -12.334   2.631  71.201  1.00  0.00     0.000 HD 
HETATM    9  C   UNL     1      -8.755   3.276  68.234  1.00  0.00    -0.137 A  
HETATM   10  C   UNL     1      -8.263   2.861  69.484  1.00  0.00    -0.072 A  
BRANCH   9  11
HETATM   11  C   UNL     1      -7.824   3.448  67.062  1.00  0.00    -0.079 C  
BRANCH  11  12
HETATM   12  N   UNL     1      -7.233   4.763  67.025  1.00  0.00    -0.075 N  
HETATM   13  C   UNL     1      -8.030   5.881  67.090  1.00  0.00    -0.102 C  
HETATM   14  H   UNL     1      -6.220   4.864  66.953  1.00  0.00     0.000 HD 
HETATM   15  O   UNL     1      -9.252   5.833  67.183  1.00  0.00    -0.115 OA 
BRANCH  13  16
HETATM   16  C   UNL     1      -7.263   7.186  67.015  1.00  0.00    -0.091 C  
BRANCH  16  17
HETATM   17  C   UNL     1      -6.285   7.221  65.841  1.00  0.00    -0.038 C  
BRANCH  17  18
HETATM   18  C   UNL     1      -5.422   8.489  65.846  1.00  0.00    -0.031 C  
BRANCH  18  19
HETATM   19  C   UNL     1      -5.299   9.076  67.251  1.00  0.00    -0.037 C  
BRANCH  19  20
HETATM   20  C   UNL     1      -6.625   9.064  67.957  1.00  0.00    -0.061 C  
HETATM   21  C   UNL     1      -6.954   9.908  68.945  1.00  0.00    -0.062 C  
HETATM   22  C   UNL     1      -8.285   9.892  69.656  1.00  0.00    -0.178 C  
HETATM   23  C   UNL     1      -9.022  11.210  69.423  1.00  0.00     0.301 C  
HETATM   24  C   UNL     1      -8.077   9.648  71.151  1.00  0.00     0.472 C  
ENDBRANCH  19  20
ENDBRANCH  18  19
ENDBRANCH  17  18
ENDBRANCH  16  17
ENDBRANCH  13  16
ENDBRANCH  11  12
ENDBRANCH   9  11
ENDBRANCH   2   3
TORSDOF 8
ENDMDL
MODEL      386
REMARK 921   NORMALIZED FREE ENERGY PREDICTED BY IDOCK:   37.80 KCAL/MOL
REMARK 922        TOTAL FREE ENERGY PREDICTED BY IDOCK:   54.27 KCAL/MOL
REMARK 923 INTER-LIGAND FREE ENERGY PREDICTED BY IDOCK:   51.88 KCAL/MOL
REMARK 924 INTRA-LIGAND FREE ENERGY PREDICTED BY IDOCK:    2.39 KCAL/MOL
REMARK 927      BINDING AFFINITY PREDICTED BY RF-SCORE:    0.00 PKD
ROOT
HETATM    1  C   UNL     1     -11.238   3.612  65.464  1.00  0.00     2.158 C  
HETATM    2  O   UNL     1     -11.289   4.242  64.189  1.00  0.00    -0.106 OA 
ENDROOT
BRANCH   2   3
HETATM    3  C   UNL     1     -10.992   5.581  64.156  1.00  0.00     3.682 A  
HETATM    4  C   UNL     1     -12.031   6.426  64.560  1.00  0.00    10.500 A  
HETATM    5  O   UNL     1     -13.240   5.906  64.931  1.00  0.00     4.153 OA 
HETATM    6  C   UNL     1     -11.878   7.806  64.584  1.00  0.00    16.765 A  
HETATM    7  C   UNL     1     -10.673   8.364  64.160  1.00  0.00     9.335 A  
HETATM    8  H   UNL     1     -13.946   6.479  65.206  1.00  0.00     0.000 HD 
HETATM    9  C   UNL     1      -9.629   7.543  63.704  1.00  0.00     3.675 A  
HETATM   10  C   UNL     1      -9.786   6.145  63.738  1.00  0.00     3.110 A  
BRANCH   9  11
HETATM   11  C   UNL     1      -8.369   8.159  63.151  1.00  0.00    -0.018 C  
BRANCH  11  12
HETATM   12  N   UNL     1      -7.457   8.559  64.194  1.00  0.00    -0.106 N  
HETATM   13  C   UNL     1      -7.938   9.086  65.369  1.00  0.00    -0.111 C  
HETATM   14  H   UNL     1      -6.452   8.449  64.060  1.00  0.00     0.000 HD 
HETATM   15  O   UNL     1      -9.133   9.240  65.599  1.00  0.00    -0.186 OA 
BRANCH  13  16
HETATM   16  C   UNL     1      -6.855   9.480  66.354  1.00  0.00    -0.083 C  
BRANCH  16  17
HETATM   17  C   UNL     1      -5.535   8.756  66.089  1.00  0.00    -0.037 C  
BRANCH  17  18
HETATM   18  C   UNL     1      -5.598   7.277  66.486  1.00  0.00    -0.024 C  
BRANCH  18  19
HETATM   19  C   UNL     1      -5.953   7.109  67.963  1.00  0.00    -0.030 C  
BRANCH  19  20
HETATM   20  C   UNL     1      -7.432   6.911  68.141  1.00  0.00    -0.099 C  
HETATM   21  C   UNL     1      -8.125   7.359  69.197  1.00  0.00    -0.120 C  
HETATM   22  C   UNL     1      -9.609   7.155  69.377  1.00  0.00    -0.153 C  
HETATM   23  C   UNL     1     -10.327   8.503  69.398  1.00  0.00    -0.218 C  
HETATM   24  C   UNL     1      -9.879   6.380  70.667  1.00  0.00    -0.206 C  
ENDBRANCH  19  20
ENDBRANCH  18  19
ENDBRANCH  17  18
ENDBRANCH  16  17
ENDBRANCH  13  16
ENDBRANCH  11  12
ENDBRANCH   9  11
ENDBRANCH   2   3
TORSDOF 8
ENDMDL
