MODEL        1
REMARK 921   NORMALIZED FREE ENERGY PREDICTED BY IDOCK:   -3.86 KCAL/MOL
REMARK 922        TOTAL FREE ENERGY PREDICTED BY IDOCK:   -5.09 KCAL/MOL
REMARK 923 INTER-LIGAND FREE ENERGY PREDICTED BY IDOCK:   -4.76 KCAL/MOL
REMARK 924 INTRA-LIGAND FREE ENERGY PREDICTED BY IDOCK:   -0.33 KCAL/MOL
REMARK 927      BINDING AFFINITY PREDICTED BY RF-SCORE:    0.00 PKD
ROOT
HETATM    1  C   UNL     1      -9.921  14.081  68.247  1.00  0.00    -0.236 C  
HETATM    2  N   UNL     1     -10.432  13.720  66.848  1.00  0.00    -0.271 N  
HETATM    3  C   UNL     1      -9.670  12.496  66.362  1.00  0.00    -0.249 C  
HETATM    4  C   UNL     1     -10.161  14.904  65.926  1.00  0.00    -0.325 C  
ENDROOT
BRANCH   2   5
HETATM    5  C   UNL     1     -11.949  13.442  66.957  1.00  0.00    -0.379 C  
BRANCH   5   6
HETATM    6  C   UNL     1     -12.783  13.928  65.761  1.00  0.00    -0.461 C  
BRANCH   6   7
HETATM    7  O   UNL     1     -13.124  12.827  64.899  1.00  0.00    -0.833 OA 
BRANCH   7   8
HETATM    8  C   UNL     1     -12.390  12.759  63.764  1.00  0.00    -0.446 C  
HETATM    9  N   UNL     1     -12.352  13.960  63.154  1.00  0.00    -1.106 N  
HETATM   10  O   UNL     1     -11.825  11.755  63.360  1.00  0.00    -0.453 OA 
HETATM   11  H1  UNL     1     -11.799  13.908  62.298  1.00  0.00     0.000 HD 
HETATM   12  H2  UNL     1     -12.811  14.802  63.499  1.00  0.00     0.000 HD 
ENDBRANCH   7   8
ENDBRANCH   6   7
ENDBRANCH   5   6
ENDBRANCH   2   5
TORSDOF 4
ENDMDL
MODEL        2
REMARK 921   NORMALIZED FREE ENERGY PREDICTED BY IDOCK:   -3.82 KCAL/MOL
REMARK 922        TOTAL FREE ENERGY PREDICTED BY IDOCK:   -5.05 KCAL/MOL
REMARK 923 INTER-LIGAND FREE ENERGY PREDICTED BY IDOCK:   -4.95 KCAL/MOL
REMARK 924 INTRA-LIGAND FREE ENERGY PREDICTED BY IDOCK:   -0.10 KCAL/MOL
REMARK 927      BINDING AFFINITY PREDICTED BY RF-SCORE:    0.00 PKD
ROOT
HETATM    1  C   UNL     1     -10.070  13.593  67.745  1.00  0.00    -0.242 C  
HETATM    2  N   UNL     1     -11.303  14.495  67.859  1.00  0.00    -0.295 N  
HETATM    3  C   UNL     1     -10.851  15.942  67.720  1.00  0.00    -0.324 C  
HETATM    4  C   UNL     1     -11.927  14.273  69.233  1.00  0.00    -0.335 C  
ENDROOT
BRANCH   2   5
HETATM    5  C   UNL     1     -12.286  14.093  66.735  1.00  0.00    -0.394 C  
BRANCH   5   6
HETATM    6  C   UNL     1     -11.904  12.817  65.968  1.00  0.00    -0.439 C  
BRANCH   6   7
HETATM    7  O   UNL     1     -12.913  12.486  64.998  1.00  0.00    -0.779 OA 
BRANCH   7   8
HETATM    8  C   UNL     1     -12.531  12.666  63.712  1.00  0.00    -0.420 C  
HETATM    9  N   UNL     1     -12.315  11.478  63.113  1.00  0.00    -0.932 N  
HETATM   10  O   UNL     1     -12.419  13.751  63.165  1.00  0.00    -0.786 OA 
HETATM   11  H1  UNL     1     -12.027  11.613  62.144  1.00  0.00     0.000 HD 
HETATM   12  H2  UNL     1     -12.423  10.571  63.566  1.00  0.00     0.000 HD 
ENDBRANCH   7   8
ENDBRANCH   6   7
ENDBRANCH   5   6
ENDBRANCH   2   5
TORSDOF 4
ENDMDL
MODEL        3
REMARK 921   NORMALIZED FREE ENERGY PREDICTED BY IDOCK:   -3.80 KCAL/MOL
REMARK 922        TOTAL FREE ENERGY PREDICTED BY IDOCK:   -5.03 KCAL/MOL
REMARK 923 INTER-LIGAND FREE ENERGY PREDICTED BY IDOCK:   -4.90 KCAL/MOL
REMARK 924 INTRA-LIGAND FREE ENERGY PREDICTED BY IDOCK:   -0.13 KCAL/MOL
REMARK 927      BINDING AFFINITY PREDICTED BY RF-SCORE:    0.00 PKD
ROOT
HETATM    1  C   UNL     1     -10.778  16.104  67.563  1.00  0.00    -0.304 C  
HETATM    2  N   UNL     1     -10.813  15.034  66.467  1.00  0.00    -0.316 N  
HETATM    3  C   UNL     1      -9.541  14.204  66.570  1.00  0.00    -0.296 C  
HETATM    4  C   UNL     1     -10.866  15.741  65.117  1.00  0.00    -0.428 C  
ENDROOT
BRANCH   2   5
HETATM    5  C   UNL     1     -12.076  14.173  66.689  1.00  0.00    -0.451 C  
BRANCH   5   6
HETATM    6  C   UNL     1     -12.999  14.051  65.466  1.00  0.00    -0.316 C  
BRANCH   6   7
HETATM    7  O   UNL     1     -12.978  12.710  64.945  1.00  0.00    -0.830 OA 
BRANCH   7   8
HETATM    8  C   UNL     1     -12.264  12.565  63.804  1.00  0.00    -0.525 C  
HETATM    9  N   UNL     1     -12.399  13.654  63.022  1.00  0.00    -1.004 N  
HETATM   10  O   UNL     1     -11.578  11.593  63.531  1.00  0.00    -0.428 OA 
HETATM   11  H1  UNL     1     -11.861  13.545  62.162  1.00  0.00     0.000 HD 
HETATM   12  H2  UNL     1     -12.960  14.473  63.256  1.00  0.00     0.000 HD 
ENDBRANCH   7   8
ENDBRANCH   6   7
ENDBRANCH   5   6
ENDBRANCH   2   5
TORSDOF 4
ENDMDL
MODEL        4
REMARK 921   NORMALIZED FREE ENERGY PREDICTED BY IDOCK:   -3.73 KCAL/MOL
REMARK 922        TOTAL FREE ENERGY PREDICTED BY IDOCK:   -4.93 KCAL/MOL
REMARK 923 INTER-LIGAND FREE ENERGY PREDICTED BY IDOCK:   -4.68 KCAL/MOL
REMARK 924 INTRA-LIGAND FREE ENERGY PREDICTED BY IDOCK:   -0.25 KCAL/MOL
REMARK 927      BINDING AFFINITY PREDICTED BY RF-SCORE:    0.00 PKD
ROOT
HETATM    1  C   UNL     1     -10.048  13.727  66.692  1.00  0.00    -0.277 C  
HETATM    2  N   UNL     1     -11.494  13.460  67.124  1.00  0.00    -0.322 N  
HETATM    3  C   UNL     1     -11.706  14.086  68.495  1.00  0.00    -0.352 C  
HETATM    4  C   UNL     1     -11.693  11.950  67.204  1.00  0.00    -0.236 C  
ENDROOT
BRANCH   2   5
HETATM    5  C   UNL     1     -12.426  14.084  66.061  1.00  0.00    -0.455 C  
BRANCH   5   6
HETATM    6  C   UNL     1     -11.713  14.613  64.806  1.00  0.00    -0.428 C  
BRANCH   6   7
HETATM    7  O   UNL     1     -12.370  14.148  63.614  1.00  0.00    -0.741 OA 
BRANCH   7   8
HETATM    8  C   UNL     1     -12.225  12.823  63.377  1.00  0.00    -0.504 C  
HETATM    9  N   UNL     1     -10.952  12.541  63.038  1.00  0.00    -0.604 N  
HETATM   10  O   UNL     1     -13.118  11.997  63.475  1.00  0.00    -0.764 OA 
HETATM   11  H1  UNL     1     -10.842  11.543  62.860  1.00  0.00     0.000 HD 
HETATM   12  H2  UNL     1     -10.202  13.230  62.970  1.00  0.00     0.000 HD 
ENDBRANCH   7   8
ENDBRANCH   6   7
ENDBRANCH   5   6
ENDBRANCH   2   5
TORSDOF 4
ENDMDL
MODEL        5
REMARK 921   NORMALIZED FREE ENERGY PREDICTED BY IDOCK:   -3.70 KCAL/MOL
REMARK 922        TOTAL FREE ENERGY PREDICTED BY IDOCK:   -4.90 KCAL/MOL
REMARK 923 INTER-LIGAND FREE ENERGY PREDICTED BY IDOCK:   -4.75 KCAL/MOL
REMARK 924 INTRA-LIGAND FREE ENERGY PREDICTED BY IDOCK:   -0.15 KCAL/MOL
REMARK 927      BINDING AFFINITY PREDICTED BY RF-SCORE:    0.00 PKD
ROOT
HETATM    1  C   UNL     1     -10.854  15.814  65.491  1.00  0.00    -0.332 C  
HETATM    2  N   UNL     1     -10.835  14.901  66.722  1.00  0.00    -0.314 N  
HETATM    3  C   UNL     1     -10.737  15.776  67.964  1.00  0.00    -0.296 C  
HETATM    4  C   UNL     1      -9.610  13.997  66.622  1.00  0.00    -0.289 C  
ENDROOT
BRANCH   2   5
HETATM    5  C   UNL     1     -12.137  14.069  66.712  1.00  0.00    -0.447 C  
BRANCH   5   6
HETATM    6  C   UNL     1     -12.055  12.750  65.926  1.00  0.00    -0.426 C  
BRANCH   6   7
HETATM    7  O   UNL     1     -13.100  12.679  64.940  1.00  0.00    -0.850 OA 
BRANCH   7   8
HETATM    8  C   UNL     1     -12.658  12.564  63.666  1.00  0.00    -0.392 C  
HETATM    9  N   UNL     1     -12.432  13.781  63.133  1.00  0.00    -1.074 N  
HETATM   10  O   UNL     1     -12.471  11.506  63.088  1.00  0.00    -0.326 OA 
HETATM   11  H1  UNL     1     -12.099  13.694  62.173  1.00  0.00     0.000 HD 
HETATM   12  H2  UNL     1     -12.575  14.665  63.621  1.00  0.00     0.000 HD 
ENDBRANCH   7   8
ENDBRANCH   6   7
ENDBRANCH   5   6
ENDBRANCH   2   5
TORSDOF 4
ENDMDL
MODEL        6
REMARK 921   NORMALIZED FREE ENERGY PREDICTED BY IDOCK:   -3.69 KCAL/MOL
REMARK 922        TOTAL FREE ENERGY PREDICTED BY IDOCK:   -4.89 KCAL/MOL
REMARK 923 INTER-LIGAND FREE ENERGY PREDICTED BY IDOCK:   -4.60 KCAL/MOL
REMARK 924 INTRA-LIGAND FREE ENERGY PREDICTED BY IDOCK:   -0.28 KCAL/MOL
REMARK 927      BINDING AFFINITY PREDICTED BY RF-SCORE:    0.00 PKD
ROOT
HETATM    1  C   UNL     1      -9.659  14.031  66.825  1.00  0.00    -0.286 C  
HETATM    2  N   UNL     1     -10.900  14.924  66.726  1.00  0.00    -0.314 N  
HETATM    3  C   UNL     1     -10.825  15.702  65.420  1.00  0.00    -0.381 C  
HETATM    4  C   UNL     1     -10.886  15.887  67.908  1.00  0.00    -0.327 C  
ENDROOT
BRANCH   2   5
HETATM    5  C   UNL     1     -12.144  14.008  66.774  1.00  0.00    -0.447 C  
BRANCH   5   6
HETATM    6  C   UNL     1     -13.002  14.015  65.499  1.00  0.00    -0.316 C  
BRANCH   6   7
HETATM    7  O   UNL     1     -13.114  12.688  64.955  1.00  0.00    -0.850 OA 
BRANCH   7   8
HETATM    8  C   UNL     1     -12.172  12.382  64.032  1.00  0.00    -0.490 C  
HETATM    9  N   UNL     1     -12.280  13.191  62.960  1.00  0.00    -0.850 N  
HETATM   10  O   UNL     1     -11.330  11.508  64.162  1.00  0.00    -0.342 OA 
HETATM   11  H1  UNL     1     -11.570  12.961  62.265  1.00  0.00     0.000 HD 
HETATM   12  H2  UNL     1     -12.975  13.931  62.858  1.00  0.00     0.000 HD 
ENDBRANCH   7   8
ENDBRANCH   6   7
ENDBRANCH   5   6
ENDBRANCH   2   5
TORSDOF 4
ENDMDL
MODEL        7
REMARK 921   NORMALIZED FREE ENERGY PREDICTED BY IDOCK:   -3.64 KCAL/MOL
REMARK 922        TOTAL FREE ENERGY PREDICTED BY IDOCK:   -4.82 KCAL/MOL
REMARK 923 INTER-LIGAND FREE ENERGY PREDICTED BY IDOCK:   -4.67 KCAL/MOL
REMARK 924 INTRA-LIGAND FREE ENERGY PREDICTED BY IDOCK:   -0.15 KCAL/MOL
REMARK 927      BINDING AFFINITY PREDICTED BY RF-SCORE:    0.00 PKD
ROOT
HETATM    1  C   UNL     1      -9.739  13.445  68.129  1.00  0.00    -0.226 C  
HETATM    2  N   UNL     1     -11.270  13.471  68.085  1.00  0.00    -0.259 N  
HETATM    3  C   UNL     1     -11.787  13.606  69.510  1.00  0.00    -0.337 C  
HETATM    4  C   UNL     1     -11.749  12.155  67.479  1.00  0.00    -0.315 C  
ENDROOT
BRANCH   2   5
HETATM    5  C   UNL     1     -11.696  14.669  67.206  1.00  0.00    -0.385 C  
BRANCH   5   6
HETATM    6  C   UNL     1     -10.576  15.266  66.339  1.00  0.00    -0.308 C  
BRANCH   6   7
HETATM    7  O   UNL     1     -10.660  14.773  64.990  1.00  0.00    -0.386 OA 
BRANCH   7   8
HETATM    8  C   UNL     1     -11.577  15.405  64.221  1.00  0.00    -0.191 C  
HETATM    9  N   UNL     1     -12.505  14.532  63.781  1.00  0.00    -1.065 N  
HETATM   10  O   UNL     1     -11.576  16.600  63.978  1.00  0.00    -1.197 OA 
HETATM   11  H1  UNL     1     -13.197  15.008  63.202  1.00  0.00     0.000 HD 
HETATM   12  H2  UNL     1     -12.514  13.535  63.997  1.00  0.00     0.000 HD 
ENDBRANCH   7   8
ENDBRANCH   6   7
ENDBRANCH   5   6
ENDBRANCH   2   5
TORSDOF 4
ENDMDL
MODEL        8
REMARK 921   NORMALIZED FREE ENERGY PREDICTED BY IDOCK:   -3.60 KCAL/MOL
REMARK 922        TOTAL FREE ENERGY PREDICTED BY IDOCK:   -4.77 KCAL/MOL
REMARK 923 INTER-LIGAND FREE ENERGY PREDICTED BY IDOCK:   -4.61 KCAL/MOL
REMARK 924 INTRA-LIGAND FREE ENERGY PREDICTED BY IDOCK:   -0.16 KCAL/MOL
REMARK 927      BINDING AFFINITY PREDICTED BY RF-SCORE:    0.00 PKD
ROOT
HETATM    1  C   UNL     1      -9.220  16.346  68.711  1.00  0.00    -0.239 C  
HETATM    2  N   UNL     1     -10.296  16.454  67.625  1.00  0.00    -0.277 N  
HETATM    3  C   UNL     1     -10.660  17.922  67.458  1.00  0.00    -0.376 C  
HETATM    4  C   UNL     1     -11.516  15.663  68.086  1.00  0.00    -0.322 C  
ENDROOT
BRANCH   2   5
HETATM    5  C   UNL     1      -9.713  15.859  66.323  1.00  0.00    -0.306 C  
BRANCH   5   6
HETATM    6  C   UNL     1     -10.704  15.769  65.152  1.00  0.00    -0.435 C  
BRANCH   6   7
HETATM    7  O   UNL     1     -10.979  14.396  64.822  1.00  0.00    -0.387 OA 
BRANCH   7   8
HETATM    8  C   UNL     1     -12.260  14.156  64.456  1.00  0.00    -0.445 C  
HETATM    9  N   UNL     1     -12.383  14.196  63.114  1.00  0.00    -1.046 N  
HETATM   10  O   UNL     1     -13.171  13.916  65.231  1.00  0.00    -0.774 OA 
HETATM   11  H1  UNL     1     -13.348  14.014  62.839  1.00  0.00     0.000 HD 
HETATM   12  H2  UNL     1     -11.619  14.382  62.466  1.00  0.00     0.000 HD 
ENDBRANCH   7   8
ENDBRANCH   6   7
ENDBRANCH   5   6
ENDBRANCH   2   5
TORSDOF 4
ENDMDL
MODEL        9
REMARK 921   NORMALIZED FREE ENERGY PREDICTED BY IDOCK:   -3.55 KCAL/MOL
REMARK 922        TOTAL FREE ENERGY PREDICTED BY IDOCK:   -4.71 KCAL/MOL
REMARK 923 INTER-LIGAND FREE ENERGY PREDICTED BY IDOCK:   -4.43 KCAL/MOL
REMARK 924 INTRA-LIGAND FREE ENERGY PREDICTED BY IDOCK:   -0.28 KCAL/MOL
REMARK 927      BINDING AFFINITY PREDICTED BY RF-SCORE:    0.00 PKD
ROOT
HETATM    1  C   UNL     1      -9.516  13.767  67.197  1.00  0.00    -0.244 C  
HETATM    2  N   UNL     1     -10.299  12.468  66.981  1.00  0.00    -0.224 N  
HETATM    3  C   UNL     1      -9.909  11.486  68.078  1.00  0.00    -0.188 C  
HETATM    4  C   UNL     1      -9.914  11.904  65.617  1.00  0.00    -0.241 C  
ENDROOT
BRANCH   2   5
HETATM    5  C   UNL     1     -11.805  12.811  67.031  1.00  0.00    -0.361 C  
BRANCH   5   6
HETATM    6  C   UNL     1     -12.160  14.232  66.564  1.00  0.00    -0.429 C  
BRANCH   6   7
HETATM    7  O   UNL     1     -13.038  14.188  65.426  1.00  0.00    -0.743 OA 
BRANCH   7   8
HETATM    8  C   UNL     1     -12.403  14.205  64.230  1.00  0.00    -0.365 C  
HETATM    9  N   UNL     1     -11.711  15.352  64.080  1.00  0.00    -0.894 N  
HETATM   10  O   UNL     1     -12.436  13.300  63.412  1.00  0.00    -0.741 OA 
HETATM   11  H1  UNL     1     -11.232  15.364  63.179  1.00  0.00     0.000 HD 
HETATM   12  H2  UNL     1     -11.671  16.101  64.770  1.00  0.00     0.000 HD 
ENDBRANCH   7   8
ENDBRANCH   6   7
ENDBRANCH   5   6
ENDBRANCH   2   5
TORSDOF 4
ENDMDL
MODEL       10
REMARK 921   NORMALIZED FREE ENERGY PREDICTED BY IDOCK:   -3.50 KCAL/MOL
REMARK 922        TOTAL FREE ENERGY PREDICTED BY IDOCK:   -4.65 KCAL/MOL
REMARK 923 INTER-LIGAND FREE ENERGY PREDICTED BY IDOCK:   -4.59 KCAL/MOL
REMARK 924 INTRA-LIGAND FREE ENERGY PREDICTED BY IDOCK:   -0.06 KCAL/MOL
REMARK 927      BINDING AFFINITY PREDICTED BY RF-SCORE:    0.00 PKD
ROOT
HETATM    1  C   UNL     1     -11.860  11.705  68.821  1.00  0.00    -0.325 C  
HETATM    2  N   UNL     1     -11.442  13.002  68.121  1.00  0.00    -0.297 N  
HETATM    3  C   UNL     1      -9.923  13.019  68.014  1.00  0.00    -0.233 C  
HETATM    4  C   UNL     1     -11.917  14.174  68.972  1.00  0.00    -0.340 C  
ENDROOT
BRANCH   2   5
HETATM    5  C   UNL     1     -12.112  13.023  66.729  1.00  0.00    -0.300 C  
BRANCH   5   6
HETATM    6  C   UNL     1     -11.216  13.531  65.587  1.00  0.00    -0.292 C  
BRANCH   6   7
HETATM    7  O   UNL     1     -11.299  14.962  65.474  1.00  0.00    -0.347 OA 
BRANCH   7   8
HETATM    8  C   UNL     1     -11.809  15.401  64.299  1.00  0.00    -0.199 C  
HETATM    9  N   UNL     1     -12.373  14.382  63.620  1.00  0.00    -1.106 N  
HETATM   10  O   UNL     1     -11.781  16.560  63.917  1.00  0.00    -1.148 OA 
HETATM   11  H1  UNL     1     -12.758  14.713  62.735  1.00  0.00     0.000 HD 
HETATM   12  H2  UNL     1     -12.410  13.417  63.946  1.00  0.00     0.000 HD 
ENDBRANCH   7   8
ENDBRANCH   6   7
ENDBRANCH   5   6
ENDBRANCH   2   5
TORSDOF 4
ENDMDL
MODEL       11
REMARK 921   NORMALIZED FREE ENERGY PREDICTED BY IDOCK:   -3.50 KCAL/MOL
REMARK 922        TOTAL FREE ENERGY PREDICTED BY IDOCK:   -4.65 KCAL/MOL
REMARK 923 INTER-LIGAND FREE ENERGY PREDICTED BY IDOCK:   -4.55 KCAL/MOL
REMARK 924 INTRA-LIGAND FREE ENERGY PREDICTED BY IDOCK:   -0.09 KCAL/MOL
REMARK 927      BINDING AFFINITY PREDICTED BY RF-SCORE:    0.00 PKD
ROOT
HETATM    1  C   UNL     1     -10.797  16.682  67.997  1.00  0.00    -0.337 C  
HETATM    2  N   UNL     1      -9.867  17.091  66.850  1.00  0.00    -0.261 N  
HETATM    3  C   UNL     1      -8.471  17.303  67.421  1.00  0.00    -0.200 C  
HETATM    4  C   UNL     1     -10.391  18.394  66.256  1.00  0.00    -0.415 C  
ENDROOT
BRANCH   2   5
HETATM    5  C   UNL     1      -9.888  15.958  65.800  1.00  0.00    -0.345 C  
BRANCH   5   6
HETATM    6  C   UNL     1     -10.961  14.882  66.031  1.00  0.00    -0.334 C  
BRANCH   6   7
HETATM    7  O   UNL     1     -10.927  13.896  64.984  1.00  0.00    -0.330 OA 
BRANCH   7   8
HETATM    8  C   UNL     1     -12.146  13.518  64.532  1.00  0.00    -0.416 C  
HETATM    9  N   UNL     1     -12.379  14.038  63.311  1.00  0.00    -1.145 N  
HETATM   10  O   UNL     1     -12.917  12.791  65.138  1.00  0.00    -0.768 OA 
HETATM   11  H1  UNL     1     -13.297  13.753  62.971  1.00  0.00     0.000 HD 
HETATM   12  H2  UNL     1     -11.728  14.633  62.799  1.00  0.00     0.000 HD 
ENDBRANCH   7   8
ENDBRANCH   6   7
ENDBRANCH   5   6
ENDBRANCH   2   5
TORSDOF 4
ENDMDL
MODEL       12
REMARK 921   NORMALIZED FREE ENERGY PREDICTED BY IDOCK:   -3.49 KCAL/MOL
REMARK 922        TOTAL FREE ENERGY PREDICTED BY IDOCK:   -4.64 KCAL/MOL
REMARK 923 INTER-LIGAND FREE ENERGY PREDICTED BY IDOCK:   -4.54 KCAL/MOL
REMARK 924 INTRA-LIGAND FREE ENERGY PREDICTED BY IDOCK:   -0.10 KCAL/MOL
REMARK 927      BINDING AFFINITY PREDICTED BY RF-SCORE:    0.00 PKD
ROOT
HETATM    1  C   UNL     1     -11.692  14.001  69.343  1.00  0.00    -0.315 C  
HETATM    2  N   UNL     1     -11.007  13.329  68.149  1.00  0.00    -0.246 N  
HETATM    3  C   UNL     1     -10.679  11.893  68.533  1.00  0.00    -0.224 C  
HETATM    4  C   UNL     1      -9.723  14.094  67.847  1.00  0.00    -0.224 C  
ENDROOT
BRANCH   2   5
HETATM    5  C   UNL     1     -11.981  13.391  66.950  1.00  0.00    -0.385 C  
BRANCH   5   6
HETATM    6  C   UNL     1     -11.843  12.238  65.944  1.00  0.00    -0.354 C  
BRANCH   6   7
HETATM    7  O   UNL     1     -12.834  12.346  64.907  1.00  0.00    -0.711 OA 
BRANCH   7   8
HETATM    8  C   UNL     1     -12.329  12.619  63.680  1.00  0.00    -0.492 C  
HETATM    9  N   UNL     1     -11.580  11.589  63.238  1.00  0.00    -0.863 N  
HETATM   10  O   UNL     1     -12.541  13.645  63.053  1.00  0.00    -0.729 OA 
HETATM   11  H1  UNL     1     -11.200  11.795  62.314  1.00  0.00     0.000 HD 
HETATM   12  H2  UNL     1     -11.416  10.726  63.756  1.00  0.00     0.000 HD 
ENDBRANCH   7   8
ENDBRANCH   6   7
ENDBRANCH   5   6
ENDBRANCH   2   5
TORSDOF 4
ENDMDL
MODEL       13
REMARK 921   NORMALIZED FREE ENERGY PREDICTED BY IDOCK:   -3.39 KCAL/MOL
REMARK 922        TOTAL FREE ENERGY PREDICTED BY IDOCK:   -4.52 KCAL/MOL
REMARK 923 INTER-LIGAND FREE ENERGY PREDICTED BY IDOCK:   -4.44 KCAL/MOL
REMARK 924 INTRA-LIGAND FREE ENERGY PREDICTED BY IDOCK:   -0.08 KCAL/MOL
REMARK 927      BINDING AFFINITY PREDICTED BY RF-SCORE:    0.00 PKD
ROOT
HETATM    1  C   UNL     1      -8.214  18.869  66.805  1.00  0.00    -0.279 C  
HETATM    2  N   UNL     1      -9.686  18.700  67.194  1.00  0.00    -0.294 N  
HETATM    3  C   UNL     1     -10.242  20.068  67.566  1.00  0.00    -0.411 C  
HETATM    4  C   UNL     1      -9.753  17.766  68.398  1.00  0.00    -0.333 C  
ENDROOT
BRANCH   2   5
HETATM    5  C   UNL     1     -10.428  18.093  65.982  1.00  0.00    -0.335 C  
BRANCH   5   6
HETATM    6  C   UNL     1     -10.299  16.567  65.844  1.00  0.00    -0.350 C  
BRANCH   6   7
HETATM    7  O   UNL     1     -10.985  16.104  64.667  1.00  0.00    -0.642 OA 
BRANCH   7   8
HETATM    8  C   UNL     1     -11.601  14.908  64.815  1.00  0.00    -0.410 C  
HETATM    9  N   UNL     1     -12.437  14.677  63.783  1.00  0.00    -1.068 N  
HETATM   10  O   UNL     1     -11.411  14.137  65.742  1.00  0.00    -0.316 OA 
HETATM   11  H1  UNL     1     -12.901  13.776  63.894  1.00  0.00     0.000 HD 
HETATM   12  H2  UNL     1     -12.584  15.314  63.001  1.00  0.00     0.000 HD 
ENDBRANCH   7   8
ENDBRANCH   6   7
ENDBRANCH   5   6
ENDBRANCH   2   5
TORSDOF 4
ENDMDL
MODEL       14
REMARK 921   NORMALIZED FREE ENERGY PREDICTED BY IDOCK:   -3.32 KCAL/MOL
REMARK 922        TOTAL FREE ENERGY PREDICTED BY IDOCK:   -4.42 KCAL/MOL
REMARK 923 INTER-LIGAND FREE ENERGY PREDICTED BY IDOCK:   -4.22 KCAL/MOL
REMARK 924 INTRA-LIGAND FREE ENERGY PREDICTED BY IDOCK:   -0.20 KCAL/MOL
REMARK 927      BINDING AFFINITY PREDICTED BY RF-SCORE:    0.00 PKD
ROOT
HETATM    1  C   UNL     1      -9.499  12.390  67.509  1.00  0.00    -0.187 C  
HETATM    2  N   UNL     1     -10.818  11.642  67.292  1.00  0.00    -0.241 N  
HETATM    3  C   UNL     1     -11.439  11.365  68.654  1.00  0.00    -0.296 C  
HETATM    4  C   UNL     1     -10.505  10.327  66.585  1.00  0.00    -0.194 C  
ENDROOT
BRANCH   2   5
HETATM    5  C   UNL     1     -11.729  12.534  66.420  1.00  0.00    -0.397 C  
BRANCH   5   6
HETATM    6  C   UNL     1     -10.985  13.447  65.432  1.00  0.00    -0.286 C  
BRANCH   6   7
HETATM    7  O   UNL     1     -10.846  12.805  64.152  1.00  0.00    -0.354 OA 
BRANCH   7   8
HETATM    8  C   UNL     1     -11.975  12.802  63.404  1.00  0.00    -0.535 C  
HETATM    9  N   UNL     1     -12.260  11.553  62.986  1.00  0.00    -0.941 N  
HETATM   10  O   UNL     1     -12.650  13.789  63.159  1.00  0.00    -0.793 OA 
HETATM   11  H1  UNL     1     -13.111  11.551  62.423  1.00  0.00     0.000 HD 
HETATM   12  H2  UNL     1     -11.704  10.726  63.203  1.00  0.00     0.000 HD 
ENDBRANCH   7   8
ENDBRANCH   6   7
ENDBRANCH   5   6
ENDBRANCH   2   5
TORSDOF 4
ENDMDL
MODEL       15
REMARK 921   NORMALIZED FREE ENERGY PREDICTED BY IDOCK:   -3.29 KCAL/MOL
REMARK 922        TOTAL FREE ENERGY PREDICTED BY IDOCK:   -4.39 KCAL/MOL
REMARK 923 INTER-LIGAND FREE ENERGY PREDICTED BY IDOCK:   -4.27 KCAL/MOL
REMARK 924 INTRA-LIGAND FREE ENERGY PREDICTED BY IDOCK:   -0.12 KCAL/MOL
REMARK 927      BINDING AFFINITY PREDICTED BY RF-SCORE:    0.00 PKD
ROOT
HETATM    1  C   UNL     1      -9.008  10.615  66.663  1.00  0.00    -0.150 C  
HETATM    2  N   UNL     1     -10.247  11.297  67.249  1.00  0.00    -0.190 N  
HETATM    3  C   UNL     1      -9.788  12.302  68.297  1.00  0.00    -0.217 C  
HETATM    4  C   UNL     1     -11.115  10.225  67.900  1.00  0.00    -0.276 C  
ENDROOT
BRANCH   2   5
HETATM    5  C   UNL     1     -11.000  11.986  66.088  1.00  0.00    -0.302 C  
BRANCH   5   6
HETATM    6  C   UNL     1     -10.701  11.413  64.694  1.00  0.00    -0.314 C  
BRANCH   6   7
HETATM    7  O   UNL     1     -10.929  12.405  63.677  1.00  0.00    -0.410 OA 
BRANCH   7   8
HETATM    8  C   UNL     1     -12.233  12.695  63.463  1.00  0.00    -0.547 C  
HETATM    9  N   UNL     1     -12.407  14.027  63.347  1.00  0.00    -1.154 N  
HETATM   10  O   UNL     1     -13.124  11.867  63.367  1.00  0.00    -0.710 OA 
HETATM   11  H1  UNL     1     -13.390  14.246  63.186  1.00  0.00     0.000 HD 
HETATM   12  H2  UNL     1     -11.660  14.718  63.413  1.00  0.00     0.000 HD 
ENDBRANCH   7   8
ENDBRANCH   6   7
ENDBRANCH   5   6
ENDBRANCH   2   5
TORSDOF 4
ENDMDL
MODEL       16
REMARK 921   NORMALIZED FREE ENERGY PREDICTED BY IDOCK:   -3.26 KCAL/MOL
REMARK 922        TOTAL FREE ENERGY PREDICTED BY IDOCK:   -4.36 KCAL/MOL
REMARK 923 INTER-LIGAND FREE ENERGY PREDICTED BY IDOCK:   -4.24 KCAL/MOL
REMARK 924 INTRA-LIGAND FREE ENERGY PREDICTED BY IDOCK:   -0.12 KCAL/MOL
REMARK 927      BINDING AFFINITY PREDICTED BY RF-SCORE:    0.00 PKD
ROOT
HETATM    1  C   UNL     1     -10.987  15.082  67.535  1.00  0.00    -0.307 C  
HETATM    2  N   UNL     1     -10.736  15.835  68.845  1.00  0.00    -0.235 N  
HETATM    3  C   UNL     1     -10.650  17.322  68.533  1.00  0.00    -0.350 C  
HETATM    4  C   UNL     1      -9.413  15.347  69.426  1.00  0.00    -0.267 C  
ENDROOT
BRANCH   2   5
HETATM    5  C   UNL     1     -11.908  15.519  69.802  1.00  0.00    -0.359 C  
BRANCH   5   6
HETATM    6  C   UNL     1     -11.501  15.265  71.262  1.00  0.00    -0.380 C  
BRANCH   6   7
HETATM    7  O   UNL     1     -12.060  16.269  72.127  1.00  0.00    -0.496 OA 
BRANCH   7   8
HETATM    8  C   UNL     1     -12.622  15.781  73.258  1.00  0.00    -0.511 C  
HETATM    9  N   UNL     1     -13.904  16.187  73.361  1.00  0.00    -0.788 N  
HETATM   10  O   UNL     1     -12.055  15.058  74.061  1.00  0.00    -0.545 OA 
HETATM   11  H1  UNL     1     -14.327  15.819  74.212  1.00  0.00     0.000 HD 
HETATM   12  H2  UNL     1     -14.382  16.779  72.682  1.00  0.00     0.000 HD 
ENDBRANCH   7   8
ENDBRANCH   6   7
ENDBRANCH   5   6
ENDBRANCH   2   5
TORSDOF 4
ENDMDL
MODEL       17
REMARK 921   NORMALIZED FREE ENERGY PREDICTED BY IDOCK:   -3.18 KCAL/MOL
REMARK 922        TOTAL FREE ENERGY PREDICTED BY IDOCK:   -4.26 KCAL/MOL
REMARK 923 INTER-LIGAND FREE ENERGY PREDICTED BY IDOCK:   -4.21 KCAL/MOL
REMARK 924 INTRA-LIGAND FREE ENERGY PREDICTED BY IDOCK:   -0.05 KCAL/MOL
REMARK 927      BINDING AFFINITY PREDICTED BY RF-SCORE:    0.00 PKD
ROOT
HETATM    1  C   UNL     1     -10.567  10.480  67.577  1.00  0.00    -0.259 C  
HETATM    2  N   UNL     1     -10.220  11.294  66.327  1.00  0.00    -0.229 N  
HETATM    3  C   UNL     1      -9.542  10.368  65.327  1.00  0.00    -0.259 C  
HETATM    4  C   UNL     1      -9.263  12.409  66.738  1.00  0.00    -0.212 C  
ENDROOT
BRANCH   2   5
HETATM    5  C   UNL     1     -11.536  11.877  65.764  1.00  0.00    -0.265 C  
BRANCH   5   6
HETATM    6  C   UNL     1     -11.802  13.346  66.131  1.00  0.00    -0.385 C  
BRANCH   6   7
HETATM    7  O   UNL     1     -12.836  13.899  65.298  1.00  0.00    -0.689 OA 
BRANCH   7   8
HETATM    8  C   UNL     1     -12.380  14.583  64.222  1.00  0.00    -0.369 C  
HETATM    9  N   UNL     1     -12.530  13.850  63.100  1.00  0.00    -1.079 N  
HETATM   10  O   UNL     1     -11.918  15.711  64.259  1.00  0.00    -0.463 OA 
HETATM   11  H1  UNL     1     -12.187  14.365  62.290  1.00  0.00     0.000 HD 
HETATM   12  H2  UNL     1     -12.930  12.913  63.067  1.00  0.00     0.000 HD 
ENDBRANCH   7   8
ENDBRANCH   6   7
ENDBRANCH   5   6
ENDBRANCH   2   5
TORSDOF 4
ENDMDL
MODEL       18
REMARK 921   NORMALIZED FREE ENERGY PREDICTED BY IDOCK:   -3.16 KCAL/MOL
REMARK 922        TOTAL FREE ENERGY PREDICTED BY IDOCK:   -4.24 KCAL/MOL
REMARK 923 INTER-LIGAND FREE ENERGY PREDICTED BY IDOCK:   -4.14 KCAL/MOL
REMARK 924 INTRA-LIGAND FREE ENERGY PREDICTED BY IDOCK:   -0.10 KCAL/MOL
REMARK 927      BINDING AFFINITY PREDICTED BY RF-SCORE:    0.00 PKD
ROOT
HETATM    1  C   UNL     1     -11.426  12.339  67.482  1.00  0.00    -0.347 C  
HETATM    2  N   UNL     1     -11.459  13.555  66.550  1.00  0.00    -0.326 N  
HETATM    3  C   UNL     1     -12.590  13.358  65.549  1.00  0.00    -0.465 C  
HETATM    4  C   UNL     1     -10.122  13.627  65.819  1.00  0.00    -0.298 C  
ENDROOT
BRANCH   2   5
HETATM    5  C   UNL     1     -11.680  14.812  67.421  1.00  0.00    -0.350 C  
BRANCH   5   6
HETATM    6  C   UNL     1     -11.850  14.535  68.924  1.00  0.00    -0.324 C  
BRANCH   6   7
HETATM    7  O   UNL     1     -11.785  15.758  69.677  1.00  0.00    -0.334 OA 
BRANCH   7   8
HETATM    8  C   UNL     1     -12.464  15.730  70.848  1.00  0.00    -0.402 C  
HETATM    9  N   UNL     1     -13.740  15.346  70.644  1.00  0.00    -0.841 N  
HETATM   10  O   UNL     1     -11.983  15.995  71.938  1.00  0.00    -0.447 OA 
HETATM   11  H1  UNL     1     -14.251  15.325  71.526  1.00  0.00     0.000 HD 
HETATM   12  H2  UNL     1     -14.138  15.111  69.735  1.00  0.00     0.000 HD 
ENDBRANCH   7   8
ENDBRANCH   6   7
ENDBRANCH   5   6
ENDBRANCH   2   5
TORSDOF 4
ENDMDL
MODEL       19
REMARK 921   NORMALIZED FREE ENERGY PREDICTED BY IDOCK:   -3.16 KCAL/MOL
REMARK 922        TOTAL FREE ENERGY PREDICTED BY IDOCK:   -4.23 KCAL/MOL
REMARK 923 INTER-LIGAND FREE ENERGY PREDICTED BY IDOCK:   -4.12 KCAL/MOL
REMARK 924 INTRA-LIGAND FREE ENERGY PREDICTED BY IDOCK:   -0.11 KCAL/MOL
REMARK 927      BINDING AFFINITY PREDICTED BY RF-SCORE:    0.00 PKD
ROOT
HETATM    1  C   UNL     1      -8.643  11.392  66.590  1.00  0.00    -0.170 C  
HETATM    2  N   UNL     1     -10.131  11.187  66.894  1.00  0.00    -0.208 N  
HETATM    3  C   UNL     1     -10.423  11.776  68.267  1.00  0.00    -0.206 C  
HETATM    4  C   UNL     1     -10.411   9.687  66.899  1.00  0.00    -0.238 C  
ENDROOT
BRANCH   2   5
HETATM    5  C   UNL     1     -10.940  11.895  65.785  1.00  0.00    -0.311 C  
BRANCH   5   6
HETATM    6  C   UNL     1     -12.029  12.854  66.291  1.00  0.00    -0.408 C  
BRANCH   6   7
HETATM    7  O   UNL     1     -12.842  13.322  65.200  1.00  0.00    -0.670 OA 
BRANCH   7   8
HETATM    8  C   UNL     1     -12.235  14.232  64.402  1.00  0.00    -0.447 C  
HETATM    9  N   UNL     1     -12.522  13.989  63.107  1.00  0.00    -1.070 N  
HETATM   10  O   UNL     1     -11.542  15.154  64.800  1.00  0.00    -0.398 OA 
HETATM   11  H1  UNL     1     -12.065  14.675  62.506  1.00  0.00     0.000 HD 
HETATM   12  H2  UNL     1     -13.114  13.228  62.776  1.00  0.00     0.000 HD 
ENDBRANCH   7   8
ENDBRANCH   6   7
ENDBRANCH   5   6
ENDBRANCH   2   5
TORSDOF 4
ENDMDL
MODEL       20
REMARK 921   NORMALIZED FREE ENERGY PREDICTED BY IDOCK:   -3.15 KCAL/MOL
REMARK 922        TOTAL FREE ENERGY PREDICTED BY IDOCK:   -4.21 KCAL/MOL
REMARK 923 INTER-LIGAND FREE ENERGY PREDICTED BY IDOCK:   -4.12 KCAL/MOL
REMARK 924 INTRA-LIGAND FREE ENERGY PREDICTED BY IDOCK:   -0.09 KCAL/MOL
REMARK 927      BINDING AFFINITY PREDICTED BY RF-SCORE:    0.00 PKD
ROOT
HETATM    1  C   UNL     1     -11.040  13.054  64.284  1.00  0.00    -0.385 C  
HETATM    2  N   UNL     1     -11.000  14.013  65.478  1.00  0.00    -0.301 N  
HETATM    3  C   UNL     1      -9.811  13.638  66.352  1.00  0.00    -0.296 C  
HETATM    4  C   UNL     1     -12.297  13.847  66.263  1.00  0.00    -0.449 C  
ENDROOT
BRANCH   2   5
HETATM    5  C   UNL     1     -10.871  15.450  64.924  1.00  0.00    -0.425 C  
BRANCH   5   6
HETATM    6  C   UNL     1     -10.500  16.515  65.968  1.00  0.00    -0.310 C  
BRANCH   6   7
HETATM    7  O   UNL     1     -10.297  17.793  65.341  1.00  0.00    -0.602 OA 
BRANCH   7   8
HETATM    8  C   UNL     1     -10.434  18.852  66.174  1.00  0.00    -0.457 C  
HETATM    9  N   UNL     1     -10.595  18.434  67.445  1.00  0.00    -0.420 N  
HETATM   10  O   UNL     1     -10.397  20.021  65.825  1.00  0.00    -0.479 OA 
HETATM   11  H1  UNL     1     -10.699  19.232  68.072  1.00  0.00     0.000 HD 
HETATM   12  H2  UNL     1     -10.612  17.458  67.738  1.00  0.00     0.000 HD 
ENDBRANCH   7   8
ENDBRANCH   6   7
ENDBRANCH   5   6
ENDBRANCH   2   5
TORSDOF 4
ENDMDL
MODEL       21
REMARK 921   NORMALIZED FREE ENERGY PREDICTED BY IDOCK:   -3.14 KCAL/MOL
REMARK 922        TOTAL FREE ENERGY PREDICTED BY IDOCK:   -4.20 KCAL/MOL
REMARK 923 INTER-LIGAND FREE ENERGY PREDICTED BY IDOCK:   -4.09 KCAL/MOL
REMARK 924 INTRA-LIGAND FREE ENERGY PREDICTED BY IDOCK:   -0.11 KCAL/MOL
REMARK 927      BINDING AFFINITY PREDICTED BY RF-SCORE:    0.00 PKD
ROOT
HETATM    1  C   UNL     1     -10.556  13.872  64.738  1.00  0.00    -0.426 C  
HETATM    2  N   UNL     1     -11.829  13.053  64.974  1.00  0.00    -0.342 N  
HETATM    3  C   UNL     1     -12.264  12.452  63.644  1.00  0.00    -0.557 C  
HETATM    4  C   UNL     1     -12.908  13.995  65.498  1.00  0.00    -0.419 C  
ENDROOT
BRANCH   2   5
HETATM    5  C   UNL     1     -11.500  11.958  66.014  1.00  0.00    -0.281 C  
BRANCH   5   6
HETATM    6  C   UNL     1     -11.595  12.410  67.480  1.00  0.00    -0.365 C  
BRANCH   6   7
HETATM    7  O   UNL     1     -12.015  11.321  68.321  1.00  0.00    -0.582 OA 
BRANCH   7   8
HETATM    8  C   UNL     1     -11.539  11.379  69.588  1.00  0.00    -0.330 C  
HETATM    9  N   UNL     1     -10.227  11.073  69.613  1.00  0.00    -0.438 N  
HETATM   10  O   UNL     1     -12.201  11.685  70.566  1.00  0.00    -0.356 OA 
HETATM   11  H1  UNL     1      -9.868  11.116  70.567  1.00  0.00     0.000 HD 
HETATM   12  H2  UNL     1      -9.670  10.831  68.793  1.00  0.00     0.000 HD 
ENDBRANCH   7   8
ENDBRANCH   6   7
ENDBRANCH   5   6
ENDBRANCH   2   5
TORSDOF 4
ENDMDL
MODEL       22
REMARK 921   NORMALIZED FREE ENERGY PREDICTED BY IDOCK:   -3.12 KCAL/MOL
REMARK 922        TOTAL FREE ENERGY PREDICTED BY IDOCK:   -4.19 KCAL/MOL
REMARK 923 INTER-LIGAND FREE ENERGY PREDICTED BY IDOCK:   -4.05 KCAL/MOL
REMARK 924 INTRA-LIGAND FREE ENERGY PREDICTED BY IDOCK:   -0.13 KCAL/MOL
REMARK 927      BINDING AFFINITY PREDICTED BY RF-SCORE:    0.00 PKD
ROOT
HETATM    1  C   UNL     1     -12.130  13.702  66.145  1.00  0.00    -0.436 C  
HETATM    2  N   UNL     1     -11.077  14.641  66.744  1.00  0.00    -0.328 N  
HETATM    3  C   UNL     1      -9.837  13.821  67.071  1.00  0.00    -0.251 C  
HETATM    4  C   UNL     1     -11.654  15.245  68.020  1.00  0.00    -0.312 C  
ENDROOT
BRANCH   2   5
HETATM    5  C   UNL     1     -10.777  15.740  65.700  1.00  0.00    -0.348 C  
BRANCH   5   6
HETATM    6  C   UNL     1      -9.883  16.884  66.204  1.00  0.00    -0.297 C  
BRANCH   6   7
HETATM    7  O   UNL     1     -10.318  18.145  65.667  1.00  0.00    -0.603 OA 
BRANCH   7   8
HETATM    8  C   UNL     1     -10.359  19.153  66.570  1.00  0.00    -0.442 C  
HETATM    9  N   UNL     1      -9.962  20.310  66.004  1.00  0.00    -0.622 N  
HETATM   10  O   UNL     1     -10.724  19.035  67.728  1.00  0.00    -0.415 OA 
HETATM   11  H1  UNL     1      -9.993  21.069  66.684  1.00  0.00     0.000 HD 
HETATM   12  H2  UNL     1      -9.671  20.412  65.032  1.00  0.00     0.000 HD 
ENDBRANCH   7   8
ENDBRANCH   6   7
ENDBRANCH   5   6
ENDBRANCH   2   5
TORSDOF 4
ENDMDL
MODEL       23
REMARK 921   NORMALIZED FREE ENERGY PREDICTED BY IDOCK:   -3.09 KCAL/MOL
REMARK 922        TOTAL FREE ENERGY PREDICTED BY IDOCK:   -4.15 KCAL/MOL
REMARK 923 INTER-LIGAND FREE ENERGY PREDICTED BY IDOCK:   -4.04 KCAL/MOL
REMARK 924 INTRA-LIGAND FREE ENERGY PREDICTED BY IDOCK:   -0.10 KCAL/MOL
REMARK 927      BINDING AFFINITY PREDICTED BY RF-SCORE:    0.00 PKD
ROOT
HETATM    1  C   UNL     1     -12.396  14.364  64.206  1.00  0.00    -0.373 C  
HETATM    2  N   UNL     1     -11.281  13.516  64.827  1.00  0.00    -0.337 N  
HETATM    3  C   UNL     1     -10.756  12.563  63.762  1.00  0.00    -0.445 C  
HETATM    4  C   UNL     1     -11.877  12.724  65.986  1.00  0.00    -0.439 C  
ENDROOT
BRANCH   2   5
HETATM    5  C   UNL     1     -10.179  14.478  65.326  1.00  0.00    -0.402 C  
BRANCH   5   6
HETATM    6  C   UNL     1     -10.689  15.681  66.135  1.00  0.00    -0.303 C  
BRANCH   6   7
HETATM    7  O   UNL     1     -10.372  16.915  65.467  1.00  0.00    -0.572 OA 
BRANCH   7   8
HETATM    8  C   UNL     1      -9.878  17.879  66.279  1.00  0.00    -0.301 C  
HETATM    9  N   UNL     1     -10.549  17.901  67.447  1.00  0.00    -0.383 N  
HETATM   10  O   UNL     1      -8.942  18.611  66.001  1.00  0.00    -0.489 OA 
HETATM   11  H1  UNL     1     -10.177  18.626  68.059  1.00  0.00     0.000 HD 
HETATM   12  H2  UNL     1     -11.322  17.279  67.686  1.00  0.00     0.000 HD 
ENDBRANCH   7   8
ENDBRANCH   6   7
ENDBRANCH   5   6
ENDBRANCH   2   5
TORSDOF 4
ENDMDL
MODEL       24
REMARK 921   NORMALIZED FREE ENERGY PREDICTED BY IDOCK:   -3.09 KCAL/MOL
REMARK 922        TOTAL FREE ENERGY PREDICTED BY IDOCK:   -4.15 KCAL/MOL
REMARK 923 INTER-LIGAND FREE ENERGY PREDICTED BY IDOCK:   -3.99 KCAL/MOL
REMARK 924 INTRA-LIGAND FREE ENERGY PREDICTED BY IDOCK:   -0.15 KCAL/MOL
REMARK 927      BINDING AFFINITY PREDICTED BY RF-SCORE:    0.00 PKD
ROOT
HETATM    1  C   UNL     1     -10.259  12.218  64.119  1.00  0.00    -0.349 C  
HETATM    2  N   UNL     1     -10.356  11.716  65.563  1.00  0.00    -0.254 N  
HETATM    3  C   UNL     1      -9.205  12.317  66.357  1.00  0.00    -0.203 C  
HETATM    4  C   UNL     1     -10.239  10.195  65.545  1.00  0.00    -0.218 C  
ENDROOT
BRANCH   2   5
HETATM    5  C   UNL     1     -11.728  12.156  66.124  1.00  0.00    -0.315 C  
BRANCH   5   6
HETATM    6  C   UNL     1     -12.457  13.219  65.288  1.00  0.00    -0.489 C  
BRANCH   6   7
HETATM    7  O   UNL     1     -12.145  14.541  65.761  1.00  0.00    -0.350 OA 
BRANCH   7   8
HETATM    8  C   UNL     1     -11.517  15.326  64.853  1.00  0.00    -0.343 C  
HETATM    9  N   UNL     1     -12.271  15.459  63.744  1.00  0.00    -0.955 N  
HETATM   10  O   UNL     1     -10.431  15.855  65.024  1.00  0.00    -0.518 OA 
HETATM   11  H1  UNL     1     -11.798  16.050  63.060  1.00  0.00     0.000 HD 
HETATM   12  H2  UNL     1     -13.185  15.028  63.607  1.00  0.00     0.000 HD 
ENDBRANCH   7   8
ENDBRANCH   6   7
ENDBRANCH   5   6
ENDBRANCH   2   5
TORSDOF 4
ENDMDL
MODEL       25
REMARK 921   NORMALIZED FREE ENERGY PREDICTED BY IDOCK:   -3.07 KCAL/MOL
REMARK 922        TOTAL FREE ENERGY PREDICTED BY IDOCK:   -4.12 KCAL/MOL
REMARK 923 INTER-LIGAND FREE ENERGY PREDICTED BY IDOCK:   -4.00 KCAL/MOL
REMARK 924 INTRA-LIGAND FREE ENERGY PREDICTED BY IDOCK:   -0.11 KCAL/MOL
REMARK 927      BINDING AFFINITY PREDICTED BY RF-SCORE:    0.00 PKD
ROOT
HETATM    1  C   UNL     1     -12.779  13.851  65.431  1.00  0.00    -0.490 C  
HETATM    2  N   UNL     1     -11.271  14.121  65.432  1.00  0.00    -0.315 N  
HETATM    3  C   UNL     1     -11.036  15.520  64.880  1.00  0.00    -0.436 C  
HETATM    4  C   UNL     1     -10.604  13.086  64.532  1.00  0.00    -0.393 C  
ENDROOT
BRANCH   2   5
HETATM    5  C   UNL     1     -10.770  13.990  66.888  1.00  0.00    -0.285 C  
BRANCH   5   6
HETATM    6  C   UNL     1     -11.871  13.735  67.930  1.00  0.00    -0.378 C  
BRANCH   6   7
HETATM    7  O   UNL     1     -11.925  14.809  68.886  1.00  0.00    -0.303 OA 
BRANCH   7   8
HETATM    8  C   UNL     1     -12.450  14.463  70.085  1.00  0.00    -0.339 C  
HETATM    9  N   UNL     1     -13.271  15.432  70.538  1.00  0.00    -0.707 N  
HETATM   10  O   UNL     1     -12.228  13.413  70.665  1.00  0.00    -0.356 OA 
HETATM   11  H1  UNL     1     -13.667  15.171  71.440  1.00  0.00     0.000 HD 
HETATM   12  H2  UNL     1     -13.469  16.303  70.046  1.00  0.00     0.000 HD 
ENDBRANCH   7   8
ENDBRANCH   6   7
ENDBRANCH   5   6
ENDBRANCH   2   5
TORSDOF 4
ENDMDL
MODEL       26
REMARK 921   NORMALIZED FREE ENERGY PREDICTED BY IDOCK:   -3.06 KCAL/MOL
REMARK 922        TOTAL FREE ENERGY PREDICTED BY IDOCK:   -4.10 KCAL/MOL
REMARK 923 INTER-LIGAND FREE ENERGY PREDICTED BY IDOCK:   -4.01 KCAL/MOL
REMARK 924 INTRA-LIGAND FREE ENERGY PREDICTED BY IDOCK:   -0.09 KCAL/MOL
REMARK 927      BINDING AFFINITY PREDICTED BY RF-SCORE:    0.00 PKD
ROOT
HETATM    1  C   UNL     1     -10.148  13.411  65.886  1.00  0.00    -0.293 C  
HETATM    2  N   UNL     1     -11.532  13.375  66.542  1.00  0.00    -0.327 N  
HETATM    3  C   UNL     1     -11.622  12.120  67.398  1.00  0.00    -0.340 C  
HETATM    4  C   UNL     1     -12.580  13.328  65.435  1.00  0.00    -0.468 C  
ENDROOT
BRANCH   2   5
HETATM    5  C   UNL     1     -11.684  14.658  67.391  1.00  0.00    -0.390 C  
BRANCH   5   6
HETATM    6  C   UNL     1     -11.975  14.417  68.880  1.00  0.00    -0.302 C  
BRANCH   6   7
HETATM    7  O   UNL     1     -12.074  15.665  69.588  1.00  0.00    -0.364 OA 
BRANCH   7   8
HETATM    8  C   UNL     1     -12.635  15.568  70.816  1.00  0.00    -0.452 C  
HETATM    9  N   UNL     1     -13.786  14.869  70.755  1.00  0.00    -0.628 N  
HETATM   10  O   UNL     1     -12.156  16.030  71.839  1.00  0.00    -0.448 OA 
HETATM   11  H1  UNL     1     -14.209  14.795  71.680  1.00  0.00     0.000 HD 
HETATM   12  H2  UNL     1     -14.179  14.470  69.903  1.00  0.00     0.000 HD 
ENDBRANCH   7   8
ENDBRANCH   6   7
ENDBRANCH   5   6
ENDBRANCH   2   5
TORSDOF 4
ENDMDL
MODEL       27
REMARK 921   NORMALIZED FREE ENERGY PREDICTED BY IDOCK:   -3.06 KCAL/MOL
REMARK 922        TOTAL FREE ENERGY PREDICTED BY IDOCK:   -4.10 KCAL/MOL
REMARK 923 INTER-LIGAND FREE ENERGY PREDICTED BY IDOCK:   -3.98 KCAL/MOL
REMARK 924 INTRA-LIGAND FREE ENERGY PREDICTED BY IDOCK:   -0.12 KCAL/MOL
REMARK 927      BINDING AFFINITY PREDICTED BY RF-SCORE:    0.00 PKD
ROOT
HETATM    1  C   UNL     1     -12.305  12.226  63.801  1.00  0.00    -0.538 C  
HETATM    2  N   UNL     1     -11.644  12.890  65.015  1.00  0.00    -0.318 N  
HETATM    3  C   UNL     1     -12.669  13.798  65.679  1.00  0.00    -0.478 C  
HETATM    4  C   UNL     1     -10.461  13.714  64.518  1.00  0.00    -0.390 C  
ENDROOT
BRANCH   2   5
HETATM    5  C   UNL     1     -11.173  11.767  65.967  1.00  0.00    -0.296 C  
BRANCH   5   6
HETATM    6  C   UNL     1     -11.300  12.094  67.463  1.00  0.00    -0.326 C  
BRANCH   6   7
HETATM    7  O   UNL     1     -12.283  11.248  68.086  1.00  0.00    -0.622 OA 
BRANCH   7   8
HETATM    8  C   UNL     1     -11.881  10.690  69.252  1.00  0.00    -0.237 C  
HETATM    9  N   UNL     1     -11.400   9.449  69.039  1.00  0.00    -0.441 N  
HETATM   10  O   UNL     1     -11.928  11.240  70.340  1.00  0.00    -0.334 OA 
HETATM   11  H1  UNL     1     -11.097   9.028  69.918  1.00  0.00     0.000 HD 
HETATM   12  H2  UNL     1     -11.347   8.994  68.128  1.00  0.00     0.000 HD 
ENDBRANCH   7   8
ENDBRANCH   6   7
ENDBRANCH   5   6
ENDBRANCH   2   5
TORSDOF 4
ENDMDL
MODEL       28
REMARK 921   NORMALIZED FREE ENERGY PREDICTED BY IDOCK:   -3.02 KCAL/MOL
REMARK 922        TOTAL FREE ENERGY PREDICTED BY IDOCK:   -4.06 KCAL/MOL
REMARK 923 INTER-LIGAND FREE ENERGY PREDICTED BY IDOCK:   -3.96 KCAL/MOL
REMARK 924 INTRA-LIGAND FREE ENERGY PREDICTED BY IDOCK:   -0.10 KCAL/MOL
REMARK 927      BINDING AFFINITY PREDICTED BY RF-SCORE:    0.00 PKD
ROOT
HETATM    1  C   UNL     1      -7.999  12.374  68.319  1.00  0.00    -0.160 C  
HETATM    2  N   UNL     1      -9.452  12.513  67.855  1.00  0.00    -0.190 N  
HETATM    3  C   UNL     1      -9.888  13.955  68.076  1.00  0.00    -0.234 C  
HETATM    4  C   UNL     1     -10.310  11.574  68.698  1.00  0.00    -0.210 C  
ENDROOT
BRANCH   2   5
HETATM    5  C   UNL     1      -9.510  12.121  66.361  1.00  0.00    -0.233 C  
BRANCH   5   6
HETATM    6  C   UNL     1     -10.925  12.063  65.763  1.00  0.00    -0.307 C  
BRANCH   6   7
HETATM    7  O   UNL     1     -11.032  12.936  64.625  1.00  0.00    -0.301 OA 
BRANCH   7   8
HETATM    8  C   UNL     1     -12.298  13.124  64.183  1.00  0.00    -0.348 C  
HETATM    9  N   UNL     1     -12.362  14.206  63.381  1.00  0.00    -1.144 N  
HETATM   10  O   UNL     1     -13.244  12.404  64.455  1.00  0.00    -0.834 OA 
HETATM   11  H1  UNL     1     -13.315  14.348  63.048  1.00  0.00     0.000 HD 
HETATM   12  H2  UNL     1     -11.568  14.800  63.142  1.00  0.00     0.000 HD 
ENDBRANCH   7   8
ENDBRANCH   6   7
ENDBRANCH   5   6
ENDBRANCH   2   5
TORSDOF 4
ENDMDL
MODEL       29
REMARK 921   NORMALIZED FREE ENERGY PREDICTED BY IDOCK:   -3.01 KCAL/MOL
REMARK 922        TOTAL FREE ENERGY PREDICTED BY IDOCK:   -4.05 KCAL/MOL
REMARK 923 INTER-LIGAND FREE ENERGY PREDICTED BY IDOCK:   -3.91 KCAL/MOL
REMARK 924 INTRA-LIGAND FREE ENERGY PREDICTED BY IDOCK:   -0.13 KCAL/MOL
REMARK 927      BINDING AFFINITY PREDICTED BY RF-SCORE:    0.00 PKD
ROOT
HETATM    1  C   UNL     1     -10.172  13.174  65.624  1.00  0.00    -0.286 C  
HETATM    2  N   UNL     1     -11.381  14.037  65.251  1.00  0.00    -0.311 N  
HETATM    3  C   UNL     1     -12.017  13.451  63.998  1.00  0.00    -0.464 C  
HETATM    4  C   UNL     1     -10.885  15.452  64.971  1.00  0.00    -0.444 C  
ENDROOT
BRANCH   2   5
HETATM    5  C   UNL     1     -12.359  14.023  66.448  1.00  0.00    -0.431 C  
BRANCH   5   6
HETATM    6  C   UNL     1     -11.691  13.899  67.826  1.00  0.00    -0.366 C  
BRANCH   6   7
HETATM    7  O   UNL     1     -11.840  15.118  68.575  1.00  0.00    -0.329 OA 
BRANCH   7   8
HETATM    8  C   UNL     1     -12.053  14.938  69.900  1.00  0.00    -0.332 C  
HETATM    9  N   UNL     1     -11.332  13.894  70.356  1.00  0.00    -0.495 N  
HETATM   10  O   UNL     1     -12.780  15.635  70.589  1.00  0.00    -0.454 OA 
HETATM   11  H1  UNL     1     -11.492  13.759  71.354  1.00  0.00     0.000 HD 
HETATM   12  H2  UNL     1     -10.713  13.321  69.783  1.00  0.00     0.000 HD 
ENDBRANCH   7   8
ENDBRANCH   6   7
ENDBRANCH   5   6
ENDBRANCH   2   5
TORSDOF 4
ENDMDL
MODEL       30
REMARK 921   NORMALIZED FREE ENERGY PREDICTED BY IDOCK:   -3.00 KCAL/MOL
REMARK 922        TOTAL FREE ENERGY PREDICTED BY IDOCK:   -4.04 KCAL/MOL
REMARK 923 INTER-LIGAND FREE ENERGY PREDICTED BY IDOCK:   -3.89 KCAL/MOL
REMARK 924 INTRA-LIGAND FREE ENERGY PREDICTED BY IDOCK:   -0.15 KCAL/MOL
REMARK 927      BINDING AFFINITY PREDICTED BY RF-SCORE:    0.00 PKD
ROOT
HETATM    1  C   UNL     1     -10.654  15.658  65.410  1.00  0.00    -0.415 C  
HETATM    2  N   UNL     1     -11.269  14.433  66.095  1.00  0.00    -0.330 N  
HETATM    3  C   UNL     1     -12.539  14.054  65.345  1.00  0.00    -0.505 C  
HETATM    4  C   UNL     1     -11.607  14.815  67.533  1.00  0.00    -0.361 C  
ENDROOT
BRANCH   2   5
HETATM    5  C   UNL     1     -10.223  13.297  66.057  1.00  0.00    -0.291 C  
BRANCH   5   6
HETATM    6  C   UNL     1     -10.724  11.977  65.450  1.00  0.00    -0.287 C  
BRANCH   6   7
HETATM    7  O   UNL     1      -9.692  11.354  64.664  1.00  0.00    -0.240 OA 
BRANCH   7   8
HETATM    8  C   UNL     1     -10.123  10.828  63.493  1.00  0.00    -0.302 C  
HETATM    9  N   UNL     1     -11.286  11.397  63.120  1.00  0.00    -0.864 N  
HETATM   10  O   UNL     1      -9.530   9.973  62.855  1.00  0.00    -0.294 OA 
HETATM   11  H1  UNL     1     -11.610  11.001  62.238  1.00  0.00     0.000 HD 
HETATM   12  H2  UNL     1     -11.774  12.122  63.646  1.00  0.00     0.000 HD 
ENDBRANCH   7   8
ENDBRANCH   6   7
ENDBRANCH   5   6
ENDBRANCH   2   5
TORSDOF 4
ENDMDL
MODEL       31
REMARK 921   NORMALIZED FREE ENERGY PREDICTED BY IDOCK:   -2.99 KCAL/MOL
REMARK 922        TOTAL FREE ENERGY PREDICTED BY IDOCK:   -4.02 KCAL/MOL
REMARK 923 INTER-LIGAND FREE ENERGY PREDICTED BY IDOCK:   -3.96 KCAL/MOL
REMARK 924 INTRA-LIGAND FREE ENERGY PREDICTED BY IDOCK:   -0.06 KCAL/MOL
REMARK 927      BINDING AFFINITY PREDICTED BY RF-SCORE:    0.00 PKD
ROOT
HETATM    1  C   UNL     1     -10.634  12.661  67.840  1.00  0.00    -0.220 C  
HETATM    2  N   UNL     1     -11.187  14.039  67.463  1.00  0.00    -0.298 N  
HETATM    3  C   UNL     1     -12.226  13.853  66.366  1.00  0.00    -0.449 C  
HETATM    4  C   UNL     1     -10.030  14.889  66.947  1.00  0.00    -0.242 C  
ENDROOT
BRANCH   2   5
HETATM    5  C   UNL     1     -11.805  14.663  68.735  1.00  0.00    -0.313 C  
BRANCH   5   6
HETATM    6  C   UNL     1     -12.118  13.662  69.859  1.00  0.00    -0.341 C  
BRANCH   6   7
HETATM    7  O   UNL     1     -12.266  14.342  71.118  1.00  0.00    -0.328 OA 
BRANCH   7   8
HETATM    8  C   UNL     1     -13.500  14.240  71.666  1.00  0.00    -0.376 C  
HETATM    9  N   UNL     1     -14.353  15.097  71.071  1.00  0.00    -0.725 N  
HETATM   10  O   UNL     1     -13.803  13.466  72.560  1.00  0.00    -0.668 OA 
HETATM   11  H1  UNL     1     -15.282  15.020  71.483  1.00  0.00     0.000 HD 
HETATM   12  H2  UNL     1     -14.103  15.733  70.314  1.00  0.00     0.000 HD 
ENDBRANCH   7   8
ENDBRANCH   6   7
ENDBRANCH   5   6
ENDBRANCH   2   5
TORSDOF 4
ENDMDL
MODEL       32
REMARK 921   NORMALIZED FREE ENERGY PREDICTED BY IDOCK:   -2.98 KCAL/MOL
REMARK 922        TOTAL FREE ENERGY PREDICTED BY IDOCK:   -4.01 KCAL/MOL
REMARK 923 INTER-LIGAND FREE ENERGY PREDICTED BY IDOCK:   -3.91 KCAL/MOL
REMARK 924 INTRA-LIGAND FREE ENERGY PREDICTED BY IDOCK:   -0.10 KCAL/MOL
REMARK 927      BINDING AFFINITY PREDICTED BY RF-SCORE:    0.00 PKD
ROOT
HETATM    1  C   UNL     1      -8.438  18.334  66.593  1.00  0.00    -0.265 C  
HETATM    2  N   UNL     1      -9.968  18.304  66.524  1.00  0.00    -0.354 N  
HETATM    3  C   UNL     1     -10.434  19.520  65.735  1.00  0.00    -0.425 C  
HETATM    4  C   UNL     1     -10.508  18.368  67.949  1.00  0.00    -0.391 C  
ENDROOT
BRANCH   2   5
HETATM    5  C   UNL     1     -10.383  16.984  65.836  1.00  0.00    -0.298 C  
BRANCH   5   6
HETATM    6  C   UNL     1     -10.593  15.797  66.789  1.00  0.00    -0.309 C  
BRANCH   6   7
HETATM    7  O   UNL     1     -10.958  14.614  66.056  1.00  0.00    -0.312 OA 
BRANCH   7   8
HETATM    8  C   UNL     1     -11.877  13.835  66.674  1.00  0.00    -0.412 C  
HETATM    9  N   UNL     1     -12.253  14.387  67.845  1.00  0.00    -0.620 N  
HETATM   10  O   UNL     1     -12.319  12.790  66.224  1.00  0.00    -0.521 OA 
HETATM   11  H1  UNL     1     -12.945  13.801  68.310  1.00  0.00     0.000 HD 
HETATM   12  H2  UNL     1     -11.894  15.268  68.214  1.00  0.00     0.000 HD 
ENDBRANCH   7   8
ENDBRANCH   6   7
ENDBRANCH   5   6
ENDBRANCH   2   5
TORSDOF 4
ENDMDL
MODEL       33
REMARK 921   NORMALIZED FREE ENERGY PREDICTED BY IDOCK:   -2.97 KCAL/MOL
REMARK 922        TOTAL FREE ENERGY PREDICTED BY IDOCK:   -3.99 KCAL/MOL
REMARK 923 INTER-LIGAND FREE ENERGY PREDICTED BY IDOCK:   -3.77 KCAL/MOL
REMARK 924 INTRA-LIGAND FREE ENERGY PREDICTED BY IDOCK:   -0.22 KCAL/MOL
REMARK 927      BINDING AFFINITY PREDICTED BY RF-SCORE:    0.00 PKD
ROOT
HETATM    1  C   UNL     1      -7.785  17.335  66.412  1.00  0.00    -0.311 C  
HETATM    2  N   UNL     1      -8.429  17.525  67.789  1.00  0.00    -0.222 N  
HETATM    3  C   UNL     1      -8.259  18.981  68.199  1.00  0.00    -0.314 C  
HETATM    4  C   UNL     1      -7.706  16.617  68.779  1.00  0.00    -0.233 C  
ENDROOT
BRANCH   2   5
HETATM    5  C   UNL     1      -9.920  17.135  67.671  1.00  0.00    -0.283 C  
BRANCH   5   6
HETATM    6  C   UNL     1     -10.178  15.647  67.386  1.00  0.00    -0.264 C  
BRANCH   6   7
HETATM    7  O   UNL     1     -11.254  15.489  66.443  1.00  0.00    -0.240 OA 
BRANCH   7   8
HETATM    8  C   UNL     1     -10.879  15.594  65.146  1.00  0.00    -0.431 C  
HETATM    9  N   UNL     1     -10.092  14.557  64.798  1.00  0.00    -0.552 N  
HETATM   10  O   UNL     1     -11.224  16.490  64.393  1.00  0.00    -0.919 OA 
HETATM   11  H1  UNL     1      -9.810  14.636  63.821  1.00  0.00     0.000 HD 
HETATM   12  H2  UNL     1      -9.816  13.801  65.423  1.00  0.00     0.000 HD 
ENDBRANCH   7   8
ENDBRANCH   6   7
ENDBRANCH   5   6
ENDBRANCH   2   5
TORSDOF 4
ENDMDL
MODEL       34
REMARK 921   NORMALIZED FREE ENERGY PREDICTED BY IDOCK:   -2.95 KCAL/MOL
REMARK 922        TOTAL FREE ENERGY PREDICTED BY IDOCK:   -3.97 KCAL/MOL
REMARK 923 INTER-LIGAND FREE ENERGY PREDICTED BY IDOCK:   -3.83 KCAL/MOL
REMARK 924 INTRA-LIGAND FREE ENERGY PREDICTED BY IDOCK:   -0.13 KCAL/MOL
REMARK 927      BINDING AFFINITY PREDICTED BY RF-SCORE:    0.00 PKD
ROOT
HETATM    1  C   UNL     1      -9.424  11.617  68.321  1.00  0.00    -0.191 C  
HETATM    2  N   UNL     1     -10.664  10.720  68.408  1.00  0.00    -0.201 N  
HETATM    3  C   UNL     1     -10.798  10.228  69.842  1.00  0.00    -0.302 C  
HETATM    4  C   UNL     1     -10.459   9.537  67.468  1.00  0.00    -0.275 C  
ENDROOT
BRANCH   2   5
HETATM    5  C   UNL     1     -11.885  11.563  67.976  1.00  0.00    -0.217 C  
BRANCH   5   6
HETATM    6  C   UNL     1     -11.565  12.724  67.022  1.00  0.00    -0.360 C  
BRANCH   6   7
HETATM    7  O   UNL     1     -11.559  12.274  65.656  1.00  0.00    -0.359 OA 
BRANCH   7   8
HETATM    8  C   UNL     1     -12.617  12.696  64.924  1.00  0.00    -0.450 C  
HETATM    9  N   UNL     1     -12.918  13.975  65.225  1.00  0.00    -0.767 N  
HETATM   10  O   UNL     1     -13.203  12.021  64.094  1.00  0.00    -0.712 OA 
HETATM   11  H1  UNL     1     -13.715  14.293  64.673  1.00  0.00     0.000 HD 
HETATM   12  H2  UNL     1     -12.419  14.545  65.908  1.00  0.00     0.000 HD 
ENDBRANCH   7   8
ENDBRANCH   6   7
ENDBRANCH   5   6
ENDBRANCH   2   5
TORSDOF 4
ENDMDL
MODEL       35
REMARK 921   NORMALIZED FREE ENERGY PREDICTED BY IDOCK:   -2.93 KCAL/MOL
REMARK 922        TOTAL FREE ENERGY PREDICTED BY IDOCK:   -3.95 KCAL/MOL
REMARK 923 INTER-LIGAND FREE ENERGY PREDICTED BY IDOCK:   -3.83 KCAL/MOL
REMARK 924 INTRA-LIGAND FREE ENERGY PREDICTED BY IDOCK:   -0.12 KCAL/MOL
REMARK 927      BINDING AFFINITY PREDICTED BY RF-SCORE:    0.00 PKD
ROOT
HETATM    1  C   UNL     1      -9.619   8.905  71.652  1.00  0.00    -0.293 C  
HETATM    2  N   UNL     1     -10.733   9.056  70.610  1.00  0.00    -0.223 N  
HETATM    3  C   UNL     1     -10.874   7.735  69.867  1.00  0.00    -0.226 C  
HETATM    4  C   UNL     1     -10.326  10.160  69.639  1.00  0.00    -0.247 C  
ENDROOT
BRANCH   2   5
HETATM    5  C   UNL     1     -12.031   9.432  71.359  1.00  0.00    -0.371 C  
BRANCH   5   6
HETATM    6  C   UNL     1     -12.613  10.807  70.995  1.00  0.00    -0.420 C  
BRANCH   6   7
HETATM    7  O   UNL     1     -13.250  11.408  72.136  1.00  0.00    -0.490 OA 
BRANCH   7   8
HETATM    8  C   UNL     1     -13.402  12.750  72.048  1.00  0.00    -0.466 C  
HETATM    9  N   UNL     1     -12.526  13.267  71.165  1.00  0.00    -0.350 N  
HETATM   10  O   UNL     1     -14.231  13.398  72.667  1.00  0.00    -0.747 OA 
HETATM   11  H1  UNL     1     -12.640  14.279  71.098  1.00  0.00     0.000 HD 
HETATM   12  H2  UNL     1     -11.843  12.724  70.637  1.00  0.00     0.000 HD 
ENDBRANCH   7   8
ENDBRANCH   6   7
ENDBRANCH   5   6
ENDBRANCH   2   5
TORSDOF 4
ENDMDL
MODEL       36
REMARK 921   NORMALIZED FREE ENERGY PREDICTED BY IDOCK:   -2.93 KCAL/MOL
REMARK 922        TOTAL FREE ENERGY PREDICTED BY IDOCK:   -3.95 KCAL/MOL
REMARK 923 INTER-LIGAND FREE ENERGY PREDICTED BY IDOCK:   -3.84 KCAL/MOL
REMARK 924 INTRA-LIGAND FREE ENERGY PREDICTED BY IDOCK:   -0.11 KCAL/MOL
REMARK 927      BINDING AFFINITY PREDICTED BY RF-SCORE:    0.00 PKD
ROOT
HETATM    1  C   UNL     1     -12.127  14.351  64.260  1.00  0.00    -0.436 C  
HETATM    2  N   UNL     1     -11.759  12.875  64.443  1.00  0.00    -0.349 N  
HETATM    3  C   UNL     1     -10.295  12.697  64.067  1.00  0.00    -0.389 C  
HETATM    4  C   UNL     1     -12.641  12.049  63.512  1.00  0.00    -0.507 C  
ENDROOT
BRANCH   2   5
HETATM    5  C   UNL     1     -12.019  12.504  65.920  1.00  0.00    -0.409 C  
BRANCH   5   6
HETATM    6  C   UNL     1     -11.276  13.377  66.945  1.00  0.00    -0.308 C  
BRANCH   6   7
HETATM    7  O   UNL     1     -12.209  14.077  67.787  1.00  0.00    -0.334 OA 
BRANCH   7   8
HETATM    8  C   UNL     1     -11.655  14.641  68.886  1.00  0.00    -0.310 C  
HETATM    9  N   UNL     1     -11.365  13.698  69.805  1.00  0.00    -0.458 N  
HETATM   10  O   UNL     1     -11.429  15.833  69.018  1.00  0.00    -0.341 OA 
HETATM   11  H1  UNL     1     -10.948  14.123  70.633  1.00  0.00     0.000 HD 
HETATM   12  H2  UNL     1     -11.540  12.700  69.689  1.00  0.00     0.000 HD 
ENDBRANCH   7   8
ENDBRANCH   6   7
ENDBRANCH   5   6
ENDBRANCH   2   5
TORSDOF 4
ENDMDL
MODEL       37
REMARK 921   NORMALIZED FREE ENERGY PREDICTED BY IDOCK:   -2.91 KCAL/MOL
REMARK 922        TOTAL FREE ENERGY PREDICTED BY IDOCK:   -3.92 KCAL/MOL
REMARK 923 INTER-LIGAND FREE ENERGY PREDICTED BY IDOCK:   -3.75 KCAL/MOL
REMARK 924 INTRA-LIGAND FREE ENERGY PREDICTED BY IDOCK:   -0.17 KCAL/MOL
REMARK 927      BINDING AFFINITY PREDICTED BY RF-SCORE:    0.00 PKD
ROOT
HETATM    1  C   UNL     1      -8.999  15.047  69.000  1.00  0.00    -0.205 C  
HETATM    2  N   UNL     1     -10.095  14.939  67.935  1.00  0.00    -0.226 N  
HETATM    3  C   UNL     1     -10.803  16.283  67.841  1.00  0.00    -0.330 C  
HETATM    4  C   UNL     1     -11.079  13.861  68.375  1.00  0.00    -0.255 C  
ENDROOT
BRANCH   2   5
HETATM    5  C   UNL     1      -9.418  14.556  66.599  1.00  0.00    -0.283 C  
BRANCH   5   6
HETATM    6  C   UNL     1     -10.344  14.584  65.373  1.00  0.00    -0.382 C  
BRANCH   6   7
HETATM    7  O   UNL     1     -10.296  13.329  64.671  1.00  0.00    -0.381 OA 
BRANCH   7   8
HETATM    8  C   UNL     1     -11.510  12.783  64.420  1.00  0.00    -0.354 C  
HETATM    9  N   UNL     1     -11.758  12.774  63.095  1.00  0.00    -0.825 N  
HETATM   10  O   UNL     1     -12.263  12.342  65.272  1.00  0.00    -0.508 OA 
HETATM   11  H1  UNL     1     -12.672  12.363  62.906  1.00  0.00     0.000 HD 
HETATM   12  H2  UNL     1     -11.121  13.129  62.382  1.00  0.00     0.000 HD 
ENDBRANCH   7   8
ENDBRANCH   6   7
ENDBRANCH   5   6
ENDBRANCH   2   5
TORSDOF 4
ENDMDL
MODEL       38
REMARK 921   NORMALIZED FREE ENERGY PREDICTED BY IDOCK:   -2.89 KCAL/MOL
REMARK 922        TOTAL FREE ENERGY PREDICTED BY IDOCK:   -3.90 KCAL/MOL
REMARK 923 INTER-LIGAND FREE ENERGY PREDICTED BY IDOCK:   -3.68 KCAL/MOL
REMARK 924 INTRA-LIGAND FREE ENERGY PREDICTED BY IDOCK:   -0.23 KCAL/MOL
REMARK 927      BINDING AFFINITY PREDICTED BY RF-SCORE:    0.00 PKD
ROOT
HETATM    1  C   UNL     1     -10.993  15.890  64.997  1.00  0.00    -0.412 C  
HETATM    2  N   UNL     1     -10.588  15.617  66.449  1.00  0.00    -0.305 N  
HETATM    3  C   UNL     1      -9.179  15.040  66.451  1.00  0.00    -0.295 C  
HETATM    4  C   UNL     1     -11.568  14.604  67.031  1.00  0.00    -0.371 C  
ENDROOT
BRANCH   2   5
HETATM    5  C   UNL     1     -10.658  16.956  67.217  1.00  0.00    -0.270 C  
BRANCH   5   6
HETATM    6  C   UNL     1      -9.348  17.377  67.903  1.00  0.00    -0.267 C  
BRANCH   6   7
HETATM    7  O   UNL     1      -9.112  18.785  67.727  1.00  0.00    -0.280 OA 
BRANCH   7   8
HETATM    8  C   UNL     1      -8.784  19.142  66.463  1.00  0.00    -0.337 C  
HETATM    9  N   UNL     1      -9.412  20.283  66.117  1.00  0.00    -0.641 N  
HETATM   10  O   UNL     1      -8.012  18.528  65.745  1.00  0.00    -0.498 OA 
HETATM   11  H1  UNL     1      -9.165  20.552  65.165  1.00  0.00     0.000 HD 
HETATM   12  H2  UNL     1     -10.046  20.804  66.722  1.00  0.00     0.000 HD 
ENDBRANCH   7   8
ENDBRANCH   6   7
ENDBRANCH   5   6
ENDBRANCH   2   5
TORSDOF 4
ENDMDL
MODEL       39
REMARK 921   NORMALIZED FREE ENERGY PREDICTED BY IDOCK:   -2.88 KCAL/MOL
REMARK 922        TOTAL FREE ENERGY PREDICTED BY IDOCK:   -3.89 KCAL/MOL
REMARK 923 INTER-LIGAND FREE ENERGY PREDICTED BY IDOCK:   -3.76 KCAL/MOL
REMARK 924 INTRA-LIGAND FREE ENERGY PREDICTED BY IDOCK:   -0.13 KCAL/MOL
REMARK 927      BINDING AFFINITY PREDICTED BY RF-SCORE:    0.00 PKD
ROOT
HETATM    1  C   UNL     1     -13.416   7.232  71.457  1.00  0.00    -0.363 C  
HETATM    2  N   UNL     1     -11.888   7.167  71.549  1.00  0.00    -0.295 N  
HETATM    3  C   UNL     1     -11.334   6.947  70.148  1.00  0.00    -0.314 C  
HETATM    4  C   UNL     1     -11.518   5.990  72.447  1.00  0.00    -0.308 C  
ENDROOT
BRANCH   2   5
HETATM    5  C   UNL     1     -11.395   8.500  72.156  1.00  0.00    -0.372 C  
BRANCH   5   6
HETATM    6  C   UNL     1     -11.070   9.596  71.129  1.00  0.00    -0.374 C  
BRANCH   6   7
HETATM    7  O   UNL     1     -12.158  10.531  71.022  1.00  0.00    -0.339 OA 
BRANCH   7   8
HETATM    8  C   UNL     1     -12.042  11.408  69.997  1.00  0.00    -0.340 C  
HETATM    9  N   UNL     1     -11.637  12.611  70.450  1.00  0.00    -0.500 N  
HETATM   10  O   UNL     1     -12.253  11.142  68.825  1.00  0.00    -0.555 OA 
HETATM   11  H1  UNL     1     -11.548  13.272  69.679  1.00  0.00     0.000 HD 
HETATM   12  H2  UNL     1     -11.445  12.830  71.428  1.00  0.00     0.000 HD 
ENDBRANCH   7   8
ENDBRANCH   6   7
ENDBRANCH   5   6
ENDBRANCH   2   5
TORSDOF 4
ENDMDL
MODEL       40
REMARK 921   NORMALIZED FREE ENERGY PREDICTED BY IDOCK:   -2.88 KCAL/MOL
REMARK 922        TOTAL FREE ENERGY PREDICTED BY IDOCK:   -3.89 KCAL/MOL
REMARK 923 INTER-LIGAND FREE ENERGY PREDICTED BY IDOCK:   -3.82 KCAL/MOL
REMARK 924 INTRA-LIGAND FREE ENERGY PREDICTED BY IDOCK:   -0.07 KCAL/MOL
REMARK 927      BINDING AFFINITY PREDICTED BY RF-SCORE:    0.00 PKD
ROOT
HETATM    1  C   UNL     1      -8.424  18.486  66.969  1.00  0.00    -0.264 C  
HETATM    2  N   UNL     1      -9.848  18.004  67.263  1.00  0.00    -0.296 N  
HETATM    3  C   UNL     1     -10.243  17.000  66.189  1.00  0.00    -0.337 C  
HETATM    4  C   UNL     1     -10.777  19.213  67.213  1.00  0.00    -0.488 C  
ENDROOT
BRANCH   2   5
HETATM    5  C   UNL     1      -9.849  17.365  68.670  1.00  0.00    -0.322 C  
BRANCH   5   6
HETATM    6  C   UNL     1     -11.082  16.505  68.988  1.00  0.00    -0.284 C  
BRANCH   6   7
HETATM    7  O   UNL     1     -11.153  16.219  70.396  1.00  0.00    -0.359 OA 
BRANCH   7   8
HETATM    8  C   UNL     1     -12.188  15.423  70.753  1.00  0.00    -0.381 C  
HETATM    9  N   UNL     1     -11.773  14.150  70.906  1.00  0.00    -0.508 N  
HETATM   10  O   UNL     1     -13.333  15.807  70.931  1.00  0.00    -0.576 OA 
HETATM   11  H1  UNL     1     -12.552  13.550  71.175  1.00  0.00     0.000 HD 
HETATM   12  H2  UNL     1     -10.813  13.831  70.772  1.00  0.00     0.000 HD 
ENDBRANCH   7   8
ENDBRANCH   6   7
ENDBRANCH   5   6
ENDBRANCH   2   5
TORSDOF 4
ENDMDL
MODEL       41
REMARK 921   NORMALIZED FREE ENERGY PREDICTED BY IDOCK:   -2.87 KCAL/MOL
REMARK 922        TOTAL FREE ENERGY PREDICTED BY IDOCK:   -3.88 KCAL/MOL
REMARK 923 INTER-LIGAND FREE ENERGY PREDICTED BY IDOCK:   -3.69 KCAL/MOL
REMARK 924 INTRA-LIGAND FREE ENERGY PREDICTED BY IDOCK:   -0.19 KCAL/MOL
REMARK 927      BINDING AFFINITY PREDICTED BY RF-SCORE:    0.00 PKD
ROOT
HETATM    1  C   UNL     1     -11.021  15.564  65.093  1.00  0.00    -0.409 C  
HETATM    2  N   UNL     1     -10.775  14.132  65.581  1.00  0.00    -0.301 N  
HETATM    3  C   UNL     1      -9.542  14.137  66.473  1.00  0.00    -0.296 C  
HETATM    4  C   UNL     1     -10.532  13.251  64.359  1.00  0.00    -0.404 C  
ENDROOT
BRANCH   2   5
HETATM    5  C   UNL     1     -12.035  13.673  66.350  1.00  0.00    -0.426 C  
BRANCH   5   6
HETATM    6  C   UNL     1     -11.772  13.168  67.777  1.00  0.00    -0.358 C  
BRANCH   6   7
HETATM    7  O   UNL     1     -12.151  11.786  67.906  1.00  0.00    -0.592 OA 
BRANCH   7   8
HETATM    8  C   UNL     1     -11.205  10.998  68.468  1.00  0.00    -0.268 C  
HETATM    9  N   UNL     1     -11.777   9.954  69.101  1.00  0.00    -0.462 N  
HETATM   10  O   UNL     1     -10.003  11.193  68.396  1.00  0.00    -0.173 OA 
HETATM   11  H1  UNL     1     -11.064   9.359  69.524  1.00  0.00     0.000 HD 
HETATM   12  H2  UNL     1     -12.781   9.782  69.149  1.00  0.00     0.000 HD 
ENDBRANCH   7   8
ENDBRANCH   6   7
ENDBRANCH   5   6
ENDBRANCH   2   5
TORSDOF 4
ENDMDL
MODEL       42
REMARK 921   NORMALIZED FREE ENERGY PREDICTED BY IDOCK:   -2.86 KCAL/MOL
REMARK 922        TOTAL FREE ENERGY PREDICTED BY IDOCK:   -3.86 KCAL/MOL
REMARK 923 INTER-LIGAND FREE ENERGY PREDICTED BY IDOCK:   -3.61 KCAL/MOL
REMARK 924 INTRA-LIGAND FREE ENERGY PREDICTED BY IDOCK:   -0.26 KCAL/MOL
REMARK 927      BINDING AFFINITY PREDICTED BY RF-SCORE:    0.00 PKD
ROOT
HETATM    1  C   UNL     1      -9.544  13.761  66.916  1.00  0.00    -0.262 C  
HETATM    2  N   UNL     1     -10.957  14.278  66.624  1.00  0.00    -0.305 N  
HETATM    3  C   UNL     1     -10.905  15.120  65.357  1.00  0.00    -0.381 C  
HETATM    4  C   UNL     1     -11.399  15.139  67.804  1.00  0.00    -0.328 C  
ENDROOT
BRANCH   2   5
HETATM    5  C   UNL     1     -11.883  13.052  66.459  1.00  0.00    -0.403 C  
BRANCH   5   6
HETATM    6  C   UNL     1     -11.474  11.818  67.278  1.00  0.00    -0.303 C  
BRANCH   6   7
HETATM    7  O   UNL     1     -12.276  11.708  68.467  1.00  0.00    -0.485 OA 
BRANCH   7   8
HETATM    8  C   UNL     1     -11.563  11.624  69.615  1.00  0.00    -0.330 C  
HETATM    9  N   UNL     1     -11.780  12.709  70.386  1.00  0.00    -0.542 N  
HETATM   10  O   UNL     1     -10.842  10.688  69.919  1.00  0.00    -0.267 OA 
HETATM   11  H1  UNL     1     -11.243  12.645  71.250  1.00  0.00     0.000 HD 
HETATM   12  H2  UNL     1     -12.395  13.484  70.138  1.00  0.00     0.000 HD 
ENDBRANCH   7   8
ENDBRANCH   6   7
ENDBRANCH   5   6
ENDBRANCH   2   5
TORSDOF 4
ENDMDL
MODEL       43
REMARK 921   NORMALIZED FREE ENERGY PREDICTED BY IDOCK:   -2.86 KCAL/MOL
REMARK 922        TOTAL FREE ENERGY PREDICTED BY IDOCK:   -3.86 KCAL/MOL
REMARK 923 INTER-LIGAND FREE ENERGY PREDICTED BY IDOCK:   -3.74 KCAL/MOL
REMARK 924 INTRA-LIGAND FREE ENERGY PREDICTED BY IDOCK:   -0.12 KCAL/MOL
REMARK 927      BINDING AFFINITY PREDICTED BY RF-SCORE:    0.00 PKD
ROOT
HETATM    1  C   UNL     1     -10.488  16.020  66.040  1.00  0.00    -0.345 C  
HETATM    2  N   UNL     1     -10.644  14.509  66.242  1.00  0.00    -0.297 N  
HETATM    3  C   UNL     1      -9.390  13.987  66.930  1.00  0.00    -0.257 C  
HETATM    4  C   UNL     1     -10.793  13.861  64.869  1.00  0.00    -0.405 C  
ENDROOT
BRANCH   2   5
HETATM    5  C   UNL     1     -11.907  14.276  67.102  1.00  0.00    -0.425 C  
BRANCH   5   6
HETATM    6  C   UNL     1     -11.672  14.319  68.620  1.00  0.00    -0.345 C  
BRANCH   6   7
HETATM    7  O   UNL     1     -12.303  15.474  69.200  1.00  0.00    -0.215 OA 
BRANCH   7   8
HETATM    8  C   UNL     1     -12.621  15.338  70.509  1.00  0.00    -0.399 C  
HETATM    9  N   UNL     1     -11.606  14.763  71.184  1.00  0.00    -0.466 N  
HETATM   10  O   UNL     1     -13.671  15.704  71.012  1.00  0.00    -0.582 OA 
HETATM   11  H1  UNL     1     -11.845  14.661  72.170  1.00  0.00     0.000 HD 
HETATM   12  H2  UNL     1     -10.722  14.471  70.767  1.00  0.00     0.000 HD 
ENDBRANCH   7   8
ENDBRANCH   6   7
ENDBRANCH   5   6
ENDBRANCH   2   5
TORSDOF 4
ENDMDL
MODEL       44
REMARK 921   NORMALIZED FREE ENERGY PREDICTED BY IDOCK:   -2.86 KCAL/MOL
REMARK 922        TOTAL FREE ENERGY PREDICTED BY IDOCK:   -3.86 KCAL/MOL
REMARK 923 INTER-LIGAND FREE ENERGY PREDICTED BY IDOCK:   -3.73 KCAL/MOL
REMARK 924 INTRA-LIGAND FREE ENERGY PREDICTED BY IDOCK:   -0.12 KCAL/MOL
REMARK 927      BINDING AFFINITY PREDICTED BY RF-SCORE:    0.00 PKD
ROOT
HETATM    1  C   UNL     1     -10.885   6.497  72.483  1.00  0.00    -0.239 C  
HETATM    2  N   UNL     1     -11.554   7.432  71.471  1.00  0.00    -0.265 N  
HETATM    3  C   UNL     1     -13.052   7.159  71.487  1.00  0.00    -0.375 C  
HETATM    4  C   UNL     1     -10.983   7.125  70.091  1.00  0.00    -0.267 C  
ENDROOT
BRANCH   2   5
HETATM    5  C   UNL     1     -11.234   8.886  71.889  1.00  0.00    -0.377 C  
BRANCH   5   6
HETATM    6  C   UNL     1     -11.936   9.968  71.053  1.00  0.00    -0.376 C  
BRANCH   6   7
HETATM    7  O   UNL     1     -12.911  10.670  71.845  1.00  0.00    -0.445 OA 
BRANCH   7   8
HETATM    8  C   UNL     1     -12.918  12.011  71.661  1.00  0.00    -0.334 C  
HETATM    9  N   UNL     1     -12.154  12.347  70.602  1.00  0.00    -0.490 N  
HETATM   10  O   UNL     1     -13.545  12.804  72.346  1.00  0.00    -0.565 OA 
HETATM   11  H1  UNL     1     -12.160  13.357  70.464  1.00  0.00     0.000 HD 
HETATM   12  H2  UNL     1     -11.642  11.683  70.022  1.00  0.00     0.000 HD 
ENDBRANCH   7   8
ENDBRANCH   6   7
ENDBRANCH   5   6
ENDBRANCH   2   5
TORSDOF 4
ENDMDL
MODEL       45
REMARK 921   NORMALIZED FREE ENERGY PREDICTED BY IDOCK:   -2.85 KCAL/MOL
REMARK 922        TOTAL FREE ENERGY PREDICTED BY IDOCK:   -3.85 KCAL/MOL
REMARK 923 INTER-LIGAND FREE ENERGY PREDICTED BY IDOCK:   -3.77 KCAL/MOL
REMARK 924 INTRA-LIGAND FREE ENERGY PREDICTED BY IDOCK:   -0.08 KCAL/MOL
REMARK 927      BINDING AFFINITY PREDICTED BY RF-SCORE:    0.00 PKD
ROOT
HETATM    1  C   UNL     1      -8.973  18.901  68.379  1.00  0.00    -0.340 C  
HETATM    2  N   UNL     1      -8.832  17.533  67.704  1.00  0.00    -0.226 N  
HETATM    3  C   UNL     1      -8.743  16.471  68.791  1.00  0.00    -0.259 C  
HETATM    4  C   UNL     1      -7.551  17.542  66.877  1.00  0.00    -0.213 C  
ENDROOT
BRANCH   2   5
HETATM    5  C   UNL     1     -10.070  17.324  66.802  1.00  0.00    -0.302 C  
BRANCH   5   6
HETATM    6  C   UNL     1      -9.975  16.126  65.842  1.00  0.00    -0.356 C  
BRANCH   6   7
HETATM    7  O   UNL     1     -10.902  16.274  64.752  1.00  0.00    -0.671 OA 
BRANCH   7   8
HETATM    8  C   UNL     1     -11.776  15.248  64.619  1.00  0.00    -0.308 C  
HETATM    9  N   UNL     1     -11.622  14.365  65.625  1.00  0.00    -0.343 N  
HETATM   10  O   UNL     1     -12.601  15.149  63.726  1.00  0.00    -0.752 OA 
HETATM   11  H1  UNL     1     -12.280  13.592  65.526  1.00  0.00     0.000 HD 
HETATM   12  H2  UNL     1     -10.942  14.456  66.380  1.00  0.00     0.000 HD 
ENDBRANCH   7   8
ENDBRANCH   6   7
ENDBRANCH   5   6
ENDBRANCH   2   5
TORSDOF 4
ENDMDL
MODEL       46
REMARK 921   NORMALIZED FREE ENERGY PREDICTED BY IDOCK:   -2.84 KCAL/MOL
REMARK 922        TOTAL FREE ENERGY PREDICTED BY IDOCK:   -3.84 KCAL/MOL
REMARK 923 INTER-LIGAND FREE ENERGY PREDICTED BY IDOCK:   -3.71 KCAL/MOL
REMARK 924 INTRA-LIGAND FREE ENERGY PREDICTED BY IDOCK:   -0.13 KCAL/MOL
REMARK 927      BINDING AFFINITY PREDICTED BY RF-SCORE:    0.00 PKD
ROOT
HETATM    1  C   UNL     1     -10.572   6.934  72.136  1.00  0.00    -0.213 C  
HETATM    2  N   UNL     1     -11.489   7.349  70.981  1.00  0.00    -0.275 N  
HETATM    3  C   UNL     1     -12.931   7.270  71.465  1.00  0.00    -0.389 C  
HETATM    4  C   UNL     1     -11.272   6.374  69.829  1.00  0.00    -0.419 C  
ENDROOT
BRANCH   2   5
HETATM    5  C   UNL     1     -11.105   8.787  70.566  1.00  0.00    -0.246 C  
BRANCH   5   6
HETATM    6  C   UNL     1     -11.947   9.895  71.218  1.00  0.00    -0.402 C  
BRANCH   6   7
HETATM    7  O   UNL     1     -12.805  10.520  70.247  1.00  0.00    -0.295 OA 
BRANCH   7   8
HETATM    8  C   UNL     1     -12.160  11.312  69.359  1.00  0.00    -0.315 C  
HETATM    9  N   UNL     1     -11.599  12.364  69.986  1.00  0.00    -0.525 N  
HETATM   10  O   UNL     1     -12.080  11.092  68.161  1.00  0.00    -0.633 OA 
HETATM   11  H1  UNL     1     -11.113  12.961  69.317  1.00  0.00     0.000 HD 
HETATM   12  H2  UNL     1     -11.653  12.540  70.989  1.00  0.00     0.000 HD 
ENDBRANCH   7   8
ENDBRANCH   6   7
ENDBRANCH   5   6
ENDBRANCH   2   5
TORSDOF 4
ENDMDL
MODEL       47
REMARK 921   NORMALIZED FREE ENERGY PREDICTED BY IDOCK:   -2.84 KCAL/MOL
REMARK 922        TOTAL FREE ENERGY PREDICTED BY IDOCK:   -3.84 KCAL/MOL
REMARK 923 INTER-LIGAND FREE ENERGY PREDICTED BY IDOCK:   -3.72 KCAL/MOL
REMARK 924 INTRA-LIGAND FREE ENERGY PREDICTED BY IDOCK:   -0.11 KCAL/MOL
REMARK 927      BINDING AFFINITY PREDICTED BY RF-SCORE:    0.00 PKD
ROOT
HETATM    1  C   UNL     1     -12.215  14.086  66.898  1.00  0.00    -0.380 C  
HETATM    2  N   UNL     1     -11.521  13.796  68.233  1.00  0.00    -0.292 N  
HETATM    3  C   UNL     1     -10.033  14.073  68.068  1.00  0.00    -0.235 C  
HETATM    4  C   UNL     1     -11.742  12.325  68.572  1.00  0.00    -0.331 C  
ENDROOT
BRANCH   2   5
HETATM    5  C   UNL     1     -12.157  14.711  69.304  1.00  0.00    -0.272 C  
BRANCH   5   6
HETATM    6  C   UNL     1     -12.334  14.062  70.686  1.00  0.00    -0.375 C  
BRANCH   6   7
HETATM    7  O   UNL     1     -11.911  14.960  71.727  1.00  0.00    -0.353 OA 
BRANCH   7   8
HETATM    8  C   UNL     1     -12.885  15.296  72.605  1.00  0.00    -0.389 C  
HETATM    9  N   UNL     1     -12.446  15.162  73.872  1.00  0.00    -0.582 N  
HETATM   10  O   UNL     1     -13.998  15.687  72.292  1.00  0.00    -0.515 OA 
HETATM   11  H1  UNL     1     -13.180  15.415  74.533  1.00  0.00     0.000 HD 
HETATM   12  H2  UNL     1     -11.511  14.850  74.133  1.00  0.00     0.000 HD 
ENDBRANCH   7   8
ENDBRANCH   6   7
ENDBRANCH   5   6
ENDBRANCH   2   5
TORSDOF 4
ENDMDL
MODEL       48
REMARK 921   NORMALIZED FREE ENERGY PREDICTED BY IDOCK:   -2.82 KCAL/MOL
REMARK 922        TOTAL FREE ENERGY PREDICTED BY IDOCK:   -3.82 KCAL/MOL
REMARK 923 INTER-LIGAND FREE ENERGY PREDICTED BY IDOCK:   -3.71 KCAL/MOL
REMARK 924 INTRA-LIGAND FREE ENERGY PREDICTED BY IDOCK:   -0.11 KCAL/MOL
REMARK 927      BINDING AFFINITY PREDICTED BY RF-SCORE:    0.00 PKD
ROOT
HETATM    1  C   UNL     1     -10.462  18.286  68.568  1.00  0.00    -0.216 C  
HETATM    2  N   UNL     1      -9.574  17.072  68.276  1.00  0.00    -0.263 N  
HETATM    3  C   UNL     1      -8.120  17.510  68.375  1.00  0.00    -0.266 C  
HETATM    4  C   UNL     1      -9.879  16.592  66.860  1.00  0.00    -0.263 C  
ENDROOT
BRANCH   2   5
HETATM    5  C   UNL     1      -9.914  15.979  69.314  1.00  0.00    -0.252 C  
BRANCH   5   6
HETATM    6  C   UNL     1     -11.396  15.908  69.716  1.00  0.00    -0.347 C  
BRANCH   6   7
HETATM    7  O   UNL     1     -11.529  15.687  71.131  1.00  0.00    -0.343 OA 
BRANCH   7   8
HETATM    8  C   UNL     1     -12.803  15.733  71.586  1.00  0.00    -0.448 C  
HETATM    9  N   UNL     1     -13.668  15.428  70.598  1.00  0.00    -0.841 N  
HETATM   10  O   UNL     1     -13.123  15.993  72.735  1.00  0.00    -0.465 OA 
HETATM   11  H1  UNL     1     -14.628  15.461  70.941  1.00  0.00     0.000 HD 
HETATM   12  H2  UNL     1     -13.400  15.196  69.642  1.00  0.00     0.000 HD 
ENDBRANCH   7   8
ENDBRANCH   6   7
ENDBRANCH   5   6
ENDBRANCH   2   5
TORSDOF 4
ENDMDL
MODEL       49
REMARK 921   NORMALIZED FREE ENERGY PREDICTED BY IDOCK:   -2.80 KCAL/MOL
REMARK 922        TOTAL FREE ENERGY PREDICTED BY IDOCK:   -3.79 KCAL/MOL
REMARK 923 INTER-LIGAND FREE ENERGY PREDICTED BY IDOCK:   -3.73 KCAL/MOL
REMARK 924 INTRA-LIGAND FREE ENERGY PREDICTED BY IDOCK:   -0.06 KCAL/MOL
REMARK 927      BINDING AFFINITY PREDICTED BY RF-SCORE:    0.00 PKD
ROOT
HETATM    1  C   UNL     1     -11.607   6.930  70.222  1.00  0.00    -0.311 C  
HETATM    2  N   UNL     1     -12.139   7.100  71.648  1.00  0.00    -0.317 N  
HETATM    3  C   UNL     1     -11.749   5.868  72.454  1.00  0.00    -0.253 C  
HETATM    4  C   UNL     1     -13.658   7.217  71.577  1.00  0.00    -0.356 C  
ENDROOT
BRANCH   2   5
HETATM    5  C   UNL     1     -11.513   8.387  72.234  1.00  0.00    -0.384 C  
BRANCH   5   6
HETATM    6  C   UNL     1     -11.789   9.665  71.426  1.00  0.00    -0.406 C  
BRANCH   6   7
HETATM    7  O   UNL     1     -12.819  10.450  72.051  1.00  0.00    -0.431 OA 
BRANCH   7   8
HETATM    8  C   UNL     1     -12.901  11.724  71.601  1.00  0.00    -0.328 C  
HETATM    9  N   UNL     1     -13.653  12.471  72.434  1.00  0.00    -0.587 N  
HETATM   10  O   UNL     1     -12.354  12.143  70.594  1.00  0.00    -0.357 OA 
HETATM   11  H1  UNL     1     -13.714  13.431  72.095  1.00  0.00     0.000 HD 
HETATM   12  H2  UNL     1     -14.098  12.124  73.283  1.00  0.00     0.000 HD 
ENDBRANCH   7   8
ENDBRANCH   6   7
ENDBRANCH   5   6
ENDBRANCH   2   5
TORSDOF 4
ENDMDL
MODEL       50
REMARK 921   NORMALIZED FREE ENERGY PREDICTED BY IDOCK:   -2.80 KCAL/MOL
REMARK 922        TOTAL FREE ENERGY PREDICTED BY IDOCK:   -3.78 KCAL/MOL
REMARK 923 INTER-LIGAND FREE ENERGY PREDICTED BY IDOCK:   -3.50 KCAL/MOL
REMARK 924 INTRA-LIGAND FREE ENERGY PREDICTED BY IDOCK:   -0.28 KCAL/MOL
REMARK 927      BINDING AFFINITY PREDICTED BY RF-SCORE:    0.00 PKD
ROOT
HETATM    1  C   UNL     1     -10.820   5.515  71.923  1.00  0.00    -0.223 C  
HETATM    2  N   UNL     1     -10.286   6.337  70.745  1.00  0.00    -0.200 N  
HETATM    3  C   UNL     1     -11.265   6.204  69.587  1.00  0.00    -0.418 C  
HETATM    4  C   UNL     1      -8.928   5.769  70.348  1.00  0.00    -0.146 C  
ENDROOT
BRANCH   2   5
HETATM    5  C   UNL     1     -10.154   7.803  71.216  1.00  0.00    -0.179 C  
BRANCH   5   6
HETATM    6  C   UNL     1     -11.203   8.248  72.248  1.00  0.00    -0.374 C  
BRANCH   6   7
HETATM    7  O   UNL     1     -12.338   8.844  71.595  1.00  0.00    -0.307 OA 
BRANCH   7   8
HETATM    8  C   UNL     1     -13.530   8.307  71.949  1.00  0.00    -0.346 C  
HETATM    9  N   UNL     1     -14.025   8.934  73.035  1.00  0.00    -0.882 N  
HETATM   10  O   UNL     1     -14.087   7.399  71.355  1.00  0.00    -0.427 OA 
HETATM   11  H1  UNL     1     -14.923   8.530  73.301  1.00  0.00     0.000 HD 
HETATM   12  H2  UNL     1     -13.566   9.703  73.522  1.00  0.00     0.000 HD 
ENDBRANCH   7   8
ENDBRANCH   6   7
ENDBRANCH   5   6
ENDBRANCH   2   5
TORSDOF 4
ENDMDL
MODEL       51
REMARK 921   NORMALIZED FREE ENERGY PREDICTED BY IDOCK:   -2.75 KCAL/MOL
REMARK 922        TOTAL FREE ENERGY PREDICTED BY IDOCK:   -3.72 KCAL/MOL
REMARK 923 INTER-LIGAND FREE ENERGY PREDICTED BY IDOCK:   -3.62 KCAL/MOL
REMARK 924 INTRA-LIGAND FREE ENERGY PREDICTED BY IDOCK:   -0.10 KCAL/MOL
REMARK 927      BINDING AFFINITY PREDICTED BY RF-SCORE:    0.00 PKD
ROOT
HETATM    1  C   UNL     1     -12.110   6.725  71.108  1.00  0.00    -0.370 C  
HETATM    2  N   UNL     1     -11.721   8.018  71.832  1.00  0.00    -0.285 N  
HETATM    3  C   UNL     1     -10.901   7.649  73.060  1.00  0.00    -0.400 C  
HETATM    4  C   UNL     1     -13.004   8.728  72.256  1.00  0.00    -0.408 C  
ENDROOT
BRANCH   2   5
HETATM    5  C   UNL     1     -10.911   8.887  70.843  1.00  0.00    -0.266 C  
BRANCH   5   6
HETATM    6  C   UNL     1     -11.589  10.204  70.435  1.00  0.00    -0.316 C  
BRANCH   6   7
HETATM    7  O   UNL     1     -11.268  10.541  69.073  1.00  0.00    -0.234 OA 
BRANCH   7   8
HETATM    8  C   UNL     1     -11.657  11.782  68.699  1.00  0.00    -0.309 C  
HETATM    9  N   UNL     1     -11.512  12.650  69.720  1.00  0.00    -0.489 N  
HETATM   10  O   UNL     1     -12.061  12.078  67.586  1.00  0.00    -0.547 OA 
HETATM   11  H1  UNL     1     -11.805  13.585  69.437  1.00  0.00     0.000 HD 
HETATM   12  H2  UNL     1     -11.160  12.406  70.645  1.00  0.00     0.000 HD 
ENDBRANCH   7   8
ENDBRANCH   6   7
ENDBRANCH   5   6
ENDBRANCH   2   5
TORSDOF 4
ENDMDL
MODEL       52
REMARK 921   NORMALIZED FREE ENERGY PREDICTED BY IDOCK:   -2.74 KCAL/MOL
REMARK 922        TOTAL FREE ENERGY PREDICTED BY IDOCK:   -3.71 KCAL/MOL
REMARK 923 INTER-LIGAND FREE ENERGY PREDICTED BY IDOCK:   -3.62 KCAL/MOL
REMARK 924 INTRA-LIGAND FREE ENERGY PREDICTED BY IDOCK:   -0.09 KCAL/MOL
REMARK 927      BINDING AFFINITY PREDICTED BY RF-SCORE:    0.00 PKD
ROOT
HETATM    1  C   UNL     1      -9.108  10.610  69.240  1.00  0.00    -0.100 C  
HETATM    2  N   UNL     1     -10.556  10.113  69.188  1.00  0.00    -0.210 N  
HETATM    3  C   UNL     1     -11.327  10.768  70.325  1.00  0.00    -0.290 C  
HETATM    4  C   UNL     1     -10.544   8.598  69.370  1.00  0.00    -0.199 C  
ENDROOT
BRANCH   2   5
HETATM    5  C   UNL     1     -11.137  10.497  67.808  1.00  0.00    -0.317 C  
BRANCH   5   6
HETATM    6  C   UNL     1     -11.534  11.975  67.663  1.00  0.00    -0.322 C  
BRANCH   6   7
HETATM    7  O   UNL     1     -12.158  12.212  66.389  1.00  0.00    -0.630 OA 
BRANCH   7   8
HETATM    8  C   UNL     1     -12.406  13.516  66.122  1.00  0.00    -0.407 C  
HETATM    9  N   UNL     1     -11.621  14.309  66.878  1.00  0.00    -0.369 N  
HETATM   10  O   UNL     1     -13.212  13.916  65.298  1.00  0.00    -0.774 OA 
HETATM   11  H1  UNL     1     -11.808  15.292  66.676  1.00  0.00     0.000 HD 
HETATM   12  H2  UNL     1     -10.937  13.974  67.555  1.00  0.00     0.000 HD 
ENDBRANCH   7   8
ENDBRANCH   6   7
ENDBRANCH   5   6
ENDBRANCH   2   5
TORSDOF 4
ENDMDL
MODEL       53
REMARK 921   NORMALIZED FREE ENERGY PREDICTED BY IDOCK:   -2.74 KCAL/MOL
REMARK 922        TOTAL FREE ENERGY PREDICTED BY IDOCK:   -3.71 KCAL/MOL
REMARK 923 INTER-LIGAND FREE ENERGY PREDICTED BY IDOCK:   -3.66 KCAL/MOL
REMARK 924 INTRA-LIGAND FREE ENERGY PREDICTED BY IDOCK:   -0.05 KCAL/MOL
REMARK 927      BINDING AFFINITY PREDICTED BY RF-SCORE:    0.00 PKD
ROOT
HETATM    1  C   UNL     1     -11.264  11.991  66.065  1.00  0.00    -0.335 C  
HETATM    2  N   UNL     1     -11.526  13.098  65.039  1.00  0.00    -0.301 N  
HETATM    3  C   UNL     1     -12.898  13.694  65.319  1.00  0.00    -0.369 C  
HETATM    4  C   UNL     1     -11.504  12.469  63.649  1.00  0.00    -0.493 C  
ENDROOT
BRANCH   2   5
HETATM    5  C   UNL     1     -10.405  14.152  65.184  1.00  0.00    -0.405 C  
BRANCH   5   6
HETATM    6  C   UNL     1     -10.152  14.631  66.622  1.00  0.00    -0.273 C  
BRANCH   6   7
HETATM    7  O   UNL     1     -10.995  15.752  66.941  1.00  0.00    -0.300 OA 
BRANCH   7   8
HETATM    8  C   UNL     1     -11.076  16.033  68.263  1.00  0.00    -0.351 C  
HETATM    9  N   UNL     1     -12.230  15.561  68.775  1.00  0.00    -0.584 N  
HETATM   10  O   UNL     1     -10.216  16.612  68.905  1.00  0.00    -0.249 OA 
HETATM   11  H1  UNL     1     -12.291  15.772  69.771  1.00  0.00     0.000 HD 
HETATM   12  H2  UNL     1     -12.943  15.063  68.241  1.00  0.00     0.000 HD 
ENDBRANCH   7   8
ENDBRANCH   6   7
ENDBRANCH   5   6
ENDBRANCH   2   5
TORSDOF 4
ENDMDL
MODEL       54
REMARK 921   NORMALIZED FREE ENERGY PREDICTED BY IDOCK:   -2.73 KCAL/MOL
REMARK 922        TOTAL FREE ENERGY PREDICTED BY IDOCK:   -3.71 KCAL/MOL
REMARK 923 INTER-LIGAND FREE ENERGY PREDICTED BY IDOCK:   -3.61 KCAL/MOL
REMARK 924 INTRA-LIGAND FREE ENERGY PREDICTED BY IDOCK:   -0.10 KCAL/MOL
REMARK 927      BINDING AFFINITY PREDICTED BY RF-SCORE:    0.00 PKD
ROOT
HETATM    1  C   UNL     1      -9.139   6.882  70.183  1.00  0.00    -0.152 C  
HETATM    2  N   UNL     1     -10.330   5.937  69.995  1.00  0.00    -0.221 N  
HETATM    3  C   UNL     1      -9.801   4.512  69.907  1.00  0.00    -0.227 C  
HETATM    4  C   UNL     1     -11.033   6.313  68.694  1.00  0.00    -0.346 C  
ENDROOT
BRANCH   2   5
HETATM    5  C   UNL     1     -11.274   6.121  71.205  1.00  0.00    -0.292 C  
BRANCH   5   6
HETATM    6  C   UNL     1     -12.186   7.356  71.131  1.00  0.00    -0.324 C  
BRANCH   6   7
HETATM    7  O   UNL     1     -12.086   8.136  72.335  1.00  0.00    -0.351 OA 
BRANCH   7   8
HETATM    8  C   UNL     1     -12.914   9.206  72.378  1.00  0.00    -0.398 C  
HETATM    9  N   UNL     1     -14.033   8.909  73.069  1.00  0.00    -0.882 N  
HETATM   10  O   UNL     1     -12.672  10.293  71.879  1.00  0.00    -0.415 OA 
HETATM   11  H1  UNL     1     -14.656   9.716  73.102  1.00  0.00     0.000 HD 
HETATM   12  H2  UNL     1     -14.228   8.005  73.499  1.00  0.00     0.000 HD 
ENDBRANCH   7   8
ENDBRANCH   6   7
ENDBRANCH   5   6
ENDBRANCH   2   5
TORSDOF 4
ENDMDL
MODEL       55
REMARK 921   NORMALIZED FREE ENERGY PREDICTED BY IDOCK:   -2.73 KCAL/MOL
REMARK 922        TOTAL FREE ENERGY PREDICTED BY IDOCK:   -3.70 KCAL/MOL
REMARK 923 INTER-LIGAND FREE ENERGY PREDICTED BY IDOCK:   -3.60 KCAL/MOL
REMARK 924 INTRA-LIGAND FREE ENERGY PREDICTED BY IDOCK:   -0.10 KCAL/MOL
REMARK 927      BINDING AFFINITY PREDICTED BY RF-SCORE:    0.00 PKD
ROOT
HETATM    1  C   UNL     1     -10.022   4.809  70.742  1.00  0.00    -0.221 C  
HETATM    2  N   UNL     1     -10.525   5.947  71.637  1.00  0.00    -0.225 N  
HETATM    3  C   UNL     1      -9.318   6.628  72.267  1.00  0.00    -0.136 C  
HETATM    4  C   UNL     1     -11.408   5.340  72.723  1.00  0.00    -0.276 C  
ENDROOT
BRANCH   2   5
HETATM    5  C   UNL     1     -11.333   6.921  70.750  1.00  0.00    -0.310 C  
BRANCH   5   6
HETATM    6  C   UNL     1     -12.563   7.544  71.428  1.00  0.00    -0.351 C  
BRANCH   6   7
HETATM    7  O   UNL     1     -12.683   8.936  71.086  1.00  0.00    -0.267 OA 
BRANCH   7   8
HETATM    8  C   UNL     1     -13.318   9.687  72.016  1.00  0.00    -0.457 C  
HETATM    9  N   UNL     1     -13.851   8.902  72.973  1.00  0.00    -0.907 N  
HETATM   10  O   UNL     1     -13.382  10.906  72.000  1.00  0.00    -0.448 OA 
HETATM   11  H1  UNL     1     -14.329   9.468  73.674  1.00  0.00     0.000 HD 
HETATM   12  H2  UNL     1     -13.785   7.885  72.993  1.00  0.00     0.000 HD 
ENDBRANCH   7   8
ENDBRANCH   6   7
ENDBRANCH   5   6
ENDBRANCH   2   5
TORSDOF 4
ENDMDL
MODEL       56
REMARK 921   NORMALIZED FREE ENERGY PREDICTED BY IDOCK:   -2.73 KCAL/MOL
REMARK 922        TOTAL FREE ENERGY PREDICTED BY IDOCK:   -3.70 KCAL/MOL
REMARK 923 INTER-LIGAND FREE ENERGY PREDICTED BY IDOCK:   -3.55 KCAL/MOL
REMARK 924 INTRA-LIGAND FREE ENERGY PREDICTED BY IDOCK:   -0.15 KCAL/MOL
REMARK 927      BINDING AFFINITY PREDICTED BY RF-SCORE:    0.00 PKD
ROOT
HETATM    1  C   UNL     1     -12.776  12.014  63.647  1.00  0.00    -0.431 C  
HETATM    2  N   UNL     1     -11.831  12.916  64.448  1.00  0.00    -0.359 N  
HETATM    3  C   UNL     1     -12.239  14.363  64.213  1.00  0.00    -0.423 C  
HETATM    4  C   UNL     1     -10.412  12.685  63.939  1.00  0.00    -0.411 C  
ENDROOT
BRANCH   2   5
HETATM    5  C   UNL     1     -11.953  12.523  65.938  1.00  0.00    -0.409 C  
BRANCH   5   6
HETATM    6  C   UNL     1     -12.067  13.706  66.911  1.00  0.00    -0.386 C  
BRANCH   6   7
HETATM    7  O   UNL     1     -10.771  14.270  67.180  1.00  0.00    -0.277 OA 
BRANCH   7   8
HETATM    8  C   UNL     1      -9.954  13.471  67.906  1.00  0.00    -0.245 C  
HETATM    9  N   UNL     1     -10.492  13.222  69.116  1.00  0.00    -0.434 N  
HETATM   10  O   UNL     1      -8.890  13.023  67.511  1.00  0.00    -0.174 OA 
HETATM   11  H1  UNL     1      -9.876  12.620  69.663  1.00  0.00     0.000 HD 
HETATM   12  H2  UNL     1     -11.388  13.584  69.440  1.00  0.00     0.000 HD 
ENDBRANCH   7   8
ENDBRANCH   6   7
ENDBRANCH   5   6
ENDBRANCH   2   5
TORSDOF 4
ENDMDL
MODEL       57
REMARK 921   NORMALIZED FREE ENERGY PREDICTED BY IDOCK:   -2.73 KCAL/MOL
REMARK 922        TOTAL FREE ENERGY PREDICTED BY IDOCK:   -3.70 KCAL/MOL
REMARK 923 INTER-LIGAND FREE ENERGY PREDICTED BY IDOCK:   -3.52 KCAL/MOL
REMARK 924 INTRA-LIGAND FREE ENERGY PREDICTED BY IDOCK:   -0.18 KCAL/MOL
REMARK 927      BINDING AFFINITY PREDICTED BY RF-SCORE:    0.00 PKD
ROOT
HETATM    1  C   UNL     1     -10.143  13.389  65.726  1.00  0.00    -0.288 C  
HETATM    2  N   UNL     1     -11.595  13.842  65.539  1.00  0.00    -0.318 N  
HETATM    3  C   UNL     1     -12.344  12.748  64.790  1.00  0.00    -0.478 C  
HETATM    4  C   UNL     1     -11.588  15.126  64.716  1.00  0.00    -0.364 C  
ENDROOT
BRANCH   2   5
HETATM    5  C   UNL     1     -12.197  14.089  66.941  1.00  0.00    -0.380 C  
BRANCH   5   6
HETATM    6  C   UNL     1     -11.207  14.636  67.981  1.00  0.00    -0.293 C  
BRANCH   6   7
HETATM    7  O   UNL     1     -11.608  15.945  68.426  1.00  0.00    -0.371 OA 
BRANCH   7   8
HETATM    8  C   UNL     1     -10.665  16.903  68.264  1.00  0.00    -0.377 C  
HETATM    9  N   UNL     1      -9.586  16.635  69.026  1.00  0.00    -0.261 N  
HETATM   10  O   UNL     1     -10.769  17.862  67.518  1.00  0.00    -0.389 OA 
HETATM   11  H1  UNL     1      -8.876  17.357  68.904  1.00  0.00     0.000 HD 
HETATM   12  H2  UNL     1      -9.493  15.825  69.638  1.00  0.00     0.000 HD 
ENDBRANCH   7   8
ENDBRANCH   6   7
ENDBRANCH   5   6
ENDBRANCH   2   5
TORSDOF 4
ENDMDL
MODEL       58
REMARK 921   NORMALIZED FREE ENERGY PREDICTED BY IDOCK:   -2.71 KCAL/MOL
REMARK 922        TOTAL FREE ENERGY PREDICTED BY IDOCK:   -3.67 KCAL/MOL
REMARK 923 INTER-LIGAND FREE ENERGY PREDICTED BY IDOCK:   -3.56 KCAL/MOL
REMARK 924 INTRA-LIGAND FREE ENERGY PREDICTED BY IDOCK:   -0.12 KCAL/MOL
REMARK 927      BINDING AFFINITY PREDICTED BY RF-SCORE:    0.00 PKD
ROOT
HETATM    1  C   UNL     1      -9.661  14.098  66.492  1.00  0.00    -0.295 C  
HETATM    2  N   UNL     1     -10.835  14.227  65.516  1.00  0.00    -0.307 N  
HETATM    3  C   UNL     1     -10.917  15.676  65.056  1.00  0.00    -0.431 C  
HETATM    4  C   UNL     1     -12.112  13.842  66.257  1.00  0.00    -0.446 C  
ENDROOT
BRANCH   2   5
HETATM    5  C   UNL     1     -10.573  13.267  64.333  1.00  0.00    -0.419 C  
BRANCH   5   6
HETATM    6  C   UNL     1     -11.496  12.039  64.281  1.00  0.00    -0.361 C  
BRANCH   6   7
HETATM    7  O   UNL     1     -10.750  10.855  63.947  1.00  0.00    -0.339 OA 
BRANCH   7   8
HETATM    8  C   UNL     1     -10.085  10.302  64.989  1.00  0.00    -0.283 C  
HETATM    9  N   UNL     1      -9.252   9.334  64.557  1.00  0.00    -0.434 N  
HETATM   10  O   UNL     1     -10.208  10.646  66.153  1.00  0.00    -0.239 OA 
HETATM   11  H1  UNL     1      -8.752   8.918  65.341  1.00  0.00     0.000 HD 
HETATM   12  H2  UNL     1      -9.139   9.057  63.582  1.00  0.00     0.000 HD 
ENDBRANCH   7   8
ENDBRANCH   6   7
ENDBRANCH   5   6
ENDBRANCH   2   5
TORSDOF 4
ENDMDL
MODEL       59
REMARK 921   NORMALIZED FREE ENERGY PREDICTED BY IDOCK:   -2.68 KCAL/MOL
REMARK 922        TOTAL FREE ENERGY PREDICTED BY IDOCK:   -3.64 KCAL/MOL
REMARK 923 INTER-LIGAND FREE ENERGY PREDICTED BY IDOCK:   -3.52 KCAL/MOL
REMARK 924 INTRA-LIGAND FREE ENERGY PREDICTED BY IDOCK:   -0.12 KCAL/MOL
REMARK 927      BINDING AFFINITY PREDICTED BY RF-SCORE:    0.00 PKD
ROOT
HETATM    1  C   UNL     1     -10.717   9.804  67.639  1.00  0.00    -0.274 C  
HETATM    2  N   UNL     1     -10.459  10.725  68.835  1.00  0.00    -0.194 N  
HETATM    3  C   UNL     1      -9.670  11.932  68.346  1.00  0.00    -0.201 C  
HETATM    4  C   UNL     1      -9.642   9.950  69.863  1.00  0.00    -0.227 C  
ENDROOT
BRANCH   2   5
HETATM    5  C   UNL     1     -11.830  11.138  69.417  1.00  0.00    -0.345 C  
BRANCH   5   6
HETATM    6  C   UNL     1     -12.066  10.717  70.877  1.00  0.00    -0.385 C  
BRANCH   6   7
HETATM    7  O   UNL     1     -12.828   9.499  70.938  1.00  0.00    -0.253 OA 
BRANCH   7   8
HETATM    8  C   UNL     1     -12.803   8.884  72.144  1.00  0.00    -0.409 C  
HETATM    9  N   UNL     1     -13.943   9.126  72.821  1.00  0.00    -0.850 N  
HETATM   10  O   UNL     1     -11.885   8.192  72.553  1.00  0.00    -0.379 OA 
HETATM   11  H1  UNL     1     -13.924   8.662  73.729  1.00  0.00     0.000 HD 
HETATM   12  H2  UNL     1     -14.717   9.692  72.473  1.00  0.00     0.000 HD 
ENDBRANCH   7   8
ENDBRANCH   6   7
ENDBRANCH   5   6
ENDBRANCH   2   5
TORSDOF 4
ENDMDL
MODEL       60
REMARK 921   NORMALIZED FREE ENERGY PREDICTED BY IDOCK:   -2.65 KCAL/MOL
REMARK 922        TOTAL FREE ENERGY PREDICTED BY IDOCK:   -3.61 KCAL/MOL
REMARK 923 INTER-LIGAND FREE ENERGY PREDICTED BY IDOCK:   -3.53 KCAL/MOL
REMARK 924 INTRA-LIGAND FREE ENERGY PREDICTED BY IDOCK:   -0.07 KCAL/MOL
REMARK 927      BINDING AFFINITY PREDICTED BY RF-SCORE:    0.00 PKD
ROOT
HETATM    1  C   UNL     1     -10.265   8.375  67.387  1.00  0.00    -0.260 C  
HETATM    2  N   UNL     1     -10.149   9.513  68.406  1.00  0.00    -0.169 N  
HETATM    3  C   UNL     1      -8.770  10.143  68.262  1.00  0.00    -0.120 C  
HETATM    4  C   UNL     1     -10.307   8.917  69.801  1.00  0.00    -0.207 C  
ENDROOT
BRANCH   2   5
HETATM    5  C   UNL     1     -11.275  10.529  68.109  1.00  0.00    -0.293 C  
BRANCH   5   6
HETATM    6  C   UNL     1     -11.130  11.284  66.778  1.00  0.00    -0.250 C  
BRANCH   6   7
HETATM    7  O   UNL     1     -12.132  12.310  66.664  1.00  0.00    -0.612 OA 
BRANCH   7   8
HETATM    8  C   UNL     1     -12.224  12.865  65.433  1.00  0.00    -0.478 C  
HETATM    9  N   UNL     1     -11.243  13.772  65.250  1.00  0.00    -0.300 N  
HETATM   10  O   UNL     1     -13.064  12.572  64.598  1.00  0.00    -0.845 OA 
HETATM   11  H1  UNL     1     -11.312  14.190  64.322  1.00  0.00     0.000 HD 
HETATM   12  H2  UNL     1     -10.532  14.006  65.942  1.00  0.00     0.000 HD 
ENDBRANCH   7   8
ENDBRANCH   6   7
ENDBRANCH   5   6
ENDBRANCH   2   5
TORSDOF 4
ENDMDL
MODEL       61
REMARK 921   NORMALIZED FREE ENERGY PREDICTED BY IDOCK:   -2.65 KCAL/MOL
REMARK 922        TOTAL FREE ENERGY PREDICTED BY IDOCK:   -3.61 KCAL/MOL
REMARK 923 INTER-LIGAND FREE ENERGY PREDICTED BY IDOCK:   -3.50 KCAL/MOL
REMARK 924 INTRA-LIGAND FREE ENERGY PREDICTED BY IDOCK:   -0.10 KCAL/MOL
REMARK 927      BINDING AFFINITY PREDICTED BY RF-SCORE:    0.00 PKD
ROOT
HETATM    1  C   UNL     1     -10.346   8.650  67.015  1.00  0.00    -0.298 C  
HETATM    2  N   UNL     1      -9.465   9.736  66.388  1.00  0.00    -0.172 N  
HETATM    3  C   UNL     1      -9.025   9.257  65.011  1.00  0.00    -0.197 C  
HETATM    4  C   UNL     1      -8.248   9.934  67.285  1.00  0.00    -0.121 C  
ENDROOT
BRANCH   2   5
HETATM    5  C   UNL     1     -10.304  11.031  66.301  1.00  0.00    -0.251 C  
BRANCH   5   6
HETATM    6  C   UNL     1     -10.803  11.384  64.891  1.00  0.00    -0.257 C  
BRANCH   6   7
HETATM    7  O   UNL     1     -11.302  12.733  64.851  1.00  0.00    -0.292 OA 
BRANCH   7   8
HETATM    8  C   UNL     1     -12.643  12.827  64.688  1.00  0.00    -0.419 C  
HETATM    9  N   UNL     1     -13.107  13.962  65.247  1.00  0.00    -0.770 N  
HETATM   10  O   UNL     1     -13.332  12.010  64.100  1.00  0.00    -0.725 OA 
HETATM   11  H1  UNL     1     -14.117  14.034  65.124  1.00  0.00     0.000 HD 
HETATM   12  H2  UNL     1     -12.529  14.653  65.726  1.00  0.00     0.000 HD 
ENDBRANCH   7   8
ENDBRANCH   6   7
ENDBRANCH   5   6
ENDBRANCH   2   5
TORSDOF 4
ENDMDL
MODEL       62
REMARK 921   NORMALIZED FREE ENERGY PREDICTED BY IDOCK:   -2.65 KCAL/MOL
REMARK 922        TOTAL FREE ENERGY PREDICTED BY IDOCK:   -3.60 KCAL/MOL
REMARK 923 INTER-LIGAND FREE ENERGY PREDICTED BY IDOCK:   -3.34 KCAL/MOL
REMARK 924 INTRA-LIGAND FREE ENERGY PREDICTED BY IDOCK:   -0.26 KCAL/MOL
REMARK 927      BINDING AFFINITY PREDICTED BY RF-SCORE:    0.00 PKD
ROOT
HETATM    1  C   UNL     1      -8.281  19.626  66.319  1.00  0.00    -0.347 C  
HETATM    2  N   UNL     1      -9.267  18.743  67.090  1.00  0.00    -0.283 N  
HETATM    3  C   UNL     1     -10.676  19.255  66.823  1.00  0.00    -0.431 C  
HETATM    4  C   UNL     1      -8.944  18.859  68.577  1.00  0.00    -0.351 C  
ENDROOT
BRANCH   2   5
HETATM    5  C   UNL     1      -9.084  17.290  66.598  1.00  0.00    -0.265 C  
BRANCH   5   6
HETATM    6  C   UNL     1     -10.390  16.497  66.423  1.00  0.00    -0.311 C  
BRANCH   6   7
HETATM    7  O   UNL     1     -10.472  15.434  67.387  1.00  0.00    -0.266 OA 
BRANCH   7   8
HETATM    8  C   UNL     1     -11.562  15.489  68.188  1.00  0.00    -0.304 C  
HETATM    9  N   UNL     1     -12.263  14.340  68.113  1.00  0.00    -0.580 N  
HETATM   10  O   UNL     1     -11.858  16.439  68.896  1.00  0.00    -0.208 OA 
HETATM   11  H1  UNL     1     -13.084  14.382  68.716  1.00  0.00     0.000 HD 
HETATM   12  H2  UNL     1     -12.007  13.541  67.533  1.00  0.00     0.000 HD 
ENDBRANCH   7   8
ENDBRANCH   6   7
ENDBRANCH   5   6
ENDBRANCH   2   5
TORSDOF 4
ENDMDL
MODEL       63
REMARK 921   NORMALIZED FREE ENERGY PREDICTED BY IDOCK:   -2.64 KCAL/MOL
REMARK 922        TOTAL FREE ENERGY PREDICTED BY IDOCK:   -3.59 KCAL/MOL
REMARK 923 INTER-LIGAND FREE ENERGY PREDICTED BY IDOCK:   -3.44 KCAL/MOL
REMARK 924 INTRA-LIGAND FREE ENERGY PREDICTED BY IDOCK:   -0.15 KCAL/MOL
REMARK 927      BINDING AFFINITY PREDICTED BY RF-SCORE:    0.00 PKD
ROOT
HETATM    1  C   UNL     1      -9.947  11.216  68.213  1.00  0.00    -0.187 C  
HETATM    2  N   UNL     1      -9.159  10.889  66.941  1.00  0.00    -0.153 N  
HETATM    3  C   UNL     1      -9.470   9.453  66.541  1.00  0.00    -0.190 C  
HETATM    4  C   UNL     1      -7.673  11.031  67.255  1.00  0.00    -0.118 C  
ENDROOT
BRANCH   2   5
HETATM    5  C   UNL     1      -9.590  11.892  65.847  1.00  0.00    -0.231 C  
BRANCH   5   6
HETATM    6  C   UNL     1     -10.628  11.355  64.850  1.00  0.00    -0.307 C  
BRANCH   6   7
HETATM    7  O   UNL     1     -11.958  11.731  65.247  1.00  0.00    -0.263 OA 
BRANCH   7   8
HETATM    8  C   UNL     1     -12.602  12.527  64.361  1.00  0.00    -0.410 C  
HETATM    9  N   UNL     1     -12.784  11.882  63.192  1.00  0.00    -0.915 N  
HETATM   10  O   UNL     1     -12.982  13.663  64.595  1.00  0.00    -0.661 OA 
HETATM   11  H1  UNL     1     -13.269  12.481  62.525  1.00  0.00     0.000 HD 
HETATM   12  H2  UNL     1     -12.479  10.927  63.002  1.00  0.00     0.000 HD 
ENDBRANCH   7   8
ENDBRANCH   6   7
ENDBRANCH   5   6
ENDBRANCH   2   5
TORSDOF 4
ENDMDL
MODEL       64
REMARK 921   NORMALIZED FREE ENERGY PREDICTED BY IDOCK:   -2.64 KCAL/MOL
REMARK 922        TOTAL FREE ENERGY PREDICTED BY IDOCK:   -3.59 KCAL/MOL
REMARK 923 INTER-LIGAND FREE ENERGY PREDICTED BY IDOCK:   -3.50 KCAL/MOL
REMARK 924 INTRA-LIGAND FREE ENERGY PREDICTED BY IDOCK:   -0.09 KCAL/MOL
REMARK 927      BINDING AFFINITY PREDICTED BY RF-SCORE:    0.00 PKD
ROOT
HETATM    1  C   UNL     1      -6.224  20.027  70.205  1.00  0.00    -0.358 C  
HETATM    2  N   UNL     1      -6.462  19.538  68.773  1.00  0.00    -0.260 N  
HETATM    3  C   UNL     1      -5.508  18.385  68.497  1.00  0.00    -0.180 C  
HETATM    4  C   UNL     1      -6.171  20.695  67.822  1.00  0.00    -0.286 C  
ENDROOT
BRANCH   2   5
HETATM    5  C   UNL     1      -7.939  19.095  68.666  1.00  0.00    -0.363 C  
BRANCH   5   6
HETATM    6  C   UNL     1      -8.324  18.445  67.327  1.00  0.00    -0.249 C  
BRANCH   6   7
HETATM    7  O   UNL     1      -9.730  18.146  67.292  1.00  0.00    -0.284 OA 
BRANCH   7   8
HETATM    8  C   UNL     1     -10.313  18.340  66.086  1.00  0.00    -0.398 C  
HETATM    9  N   UNL     1     -10.696  19.625  65.948  1.00  0.00    -0.478 N  
HETATM   10  O   UNL     1     -10.453  17.478  65.234  1.00  0.00    -0.643 OA 
HETATM   11  H1  UNL     1     -11.134  19.772  65.040  1.00  0.00     0.000 HD 
HETATM   12  H2  UNL     1     -10.565  20.349  66.655  1.00  0.00     0.000 HD 
ENDBRANCH   7   8
ENDBRANCH   6   7
ENDBRANCH   5   6
ENDBRANCH   2   5
TORSDOF 4
ENDMDL
MODEL       65
REMARK 921   NORMALIZED FREE ENERGY PREDICTED BY IDOCK:   -2.63 KCAL/MOL
REMARK 922        TOTAL FREE ENERGY PREDICTED BY IDOCK:   -3.58 KCAL/MOL
REMARK 923 INTER-LIGAND FREE ENERGY PREDICTED BY IDOCK:   -3.41 KCAL/MOL
REMARK 924 INTRA-LIGAND FREE ENERGY PREDICTED BY IDOCK:   -0.17 KCAL/MOL
REMARK 927      BINDING AFFINITY PREDICTED BY RF-SCORE:    0.00 PKD
ROOT
HETATM    1  C   UNL     1      -9.556   5.429  71.152  1.00  0.00    -0.164 C  
HETATM    2  N   UNL     1     -10.683   6.466  71.210  1.00  0.00    -0.233 N  
HETATM    3  C   UNL     1     -11.619   6.090  72.350  1.00  0.00    -0.300 C  
HETATM    4  C   UNL     1     -11.434   6.424  69.883  1.00  0.00    -0.415 C  
ENDROOT
BRANCH   2   5
HETATM    5  C   UNL     1     -10.037   7.852  71.435  1.00  0.00    -0.176 C  
BRANCH   5   6
HETATM    6  C   UNL     1     -10.814   9.032  70.830  1.00  0.00    -0.258 C  
BRANCH   6   7
HETATM    7  O   UNL     1     -11.646   9.656  71.824  1.00  0.00    -0.378 OA 
BRANCH   7   8
HETATM    8  C   UNL     1     -12.591  10.485  71.321  1.00  0.00    -0.426 C  
HETATM    9  N   UNL     1     -12.718  10.303  69.991  1.00  0.00    -0.549 N  
HETATM   10  O   UNL     1     -13.250  11.271  71.982  1.00  0.00    -0.506 OA 
HETATM   11  H1  UNL     1     -13.430  10.927  69.613  1.00  0.00     0.000 HD 
HETATM   12  H2  UNL     1     -12.177   9.636  69.442  1.00  0.00     0.000 HD 
ENDBRANCH   7   8
ENDBRANCH   6   7
ENDBRANCH   5   6
ENDBRANCH   2   5
TORSDOF 4
ENDMDL
MODEL       66
REMARK 921   NORMALIZED FREE ENERGY PREDICTED BY IDOCK:   -2.61 KCAL/MOL
REMARK 922        TOTAL FREE ENERGY PREDICTED BY IDOCK:   -3.55 KCAL/MOL
REMARK 923 INTER-LIGAND FREE ENERGY PREDICTED BY IDOCK:   -3.29 KCAL/MOL
REMARK 924 INTRA-LIGAND FREE ENERGY PREDICTED BY IDOCK:   -0.26 KCAL/MOL
REMARK 927      BINDING AFFINITY PREDICTED BY RF-SCORE:    0.00 PKD
ROOT
HETATM    1  C   UNL     1      -9.122  19.239  68.649  1.00  0.00    -0.380 C  
HETATM    2  N   UNL     1      -7.749  19.038  67.998  1.00  0.00    -0.265 N  
HETATM    3  C   UNL     1      -7.040  17.902  68.722  1.00  0.00    -0.268 C  
HETATM    4  C   UNL     1      -6.957  20.332  68.155  1.00  0.00    -0.279 C  
ENDROOT
BRANCH   2   5
HETATM    5  C   UNL     1      -7.978  18.709  66.506  1.00  0.00    -0.278 C  
BRANCH   5   6
HETATM    6  C   UNL     1      -7.818  17.225  66.139  1.00  0.00    -0.270 C  
BRANCH   6   7
HETATM    7  O   UNL     1      -9.055  16.688  65.638  1.00  0.00    -0.477 OA 
BRANCH   7   8
HETATM    8  C   UNL     1      -9.617  15.746  66.432  1.00  0.00    -0.285 C  
HETATM    9  N   UNL     1      -9.393  14.514  65.933  1.00  0.00    -0.527 N  
HETATM   10  O   UNL     1     -10.223  15.979  67.466  1.00  0.00    -0.262 OA 
HETATM   11  H1  UNL     1      -9.816  13.805  66.532  1.00  0.00     0.000 HD 
HETATM   12  H2  UNL     1      -8.874  14.319  65.078  1.00  0.00     0.000 HD 
ENDBRANCH   7   8
ENDBRANCH   6   7
ENDBRANCH   5   6
ENDBRANCH   2   5
TORSDOF 4
ENDMDL
MODEL       67
REMARK 921   NORMALIZED FREE ENERGY PREDICTED BY IDOCK:   -2.60 KCAL/MOL
REMARK 922        TOTAL FREE ENERGY PREDICTED BY IDOCK:   -3.54 KCAL/MOL
REMARK 923 INTER-LIGAND FREE ENERGY PREDICTED BY IDOCK:   -3.46 KCAL/MOL
REMARK 924 INTRA-LIGAND FREE ENERGY PREDICTED BY IDOCK:   -0.08 KCAL/MOL
REMARK 927      BINDING AFFINITY PREDICTED BY RF-SCORE:    0.00 PKD
ROOT
HETATM    1  C   UNL     1     -10.656  16.487  67.300  1.00  0.00    -0.285 C  
HETATM    2  N   UNL     1     -10.450  15.074  66.745  1.00  0.00    -0.277 N  
HETATM    3  C   UNL     1      -8.995  14.682  66.963  1.00  0.00    -0.240 C  
HETATM    4  C   UNL     1     -10.765  15.100  65.253  1.00  0.00    -0.404 C  
ENDROOT
BRANCH   2   5
HETATM    5  C   UNL     1     -11.415  14.128  67.495  1.00  0.00    -0.340 C  
BRANCH   5   6
HETATM    6  C   UNL     1     -11.180  12.630  67.241  1.00  0.00    -0.298 C  
BRANCH   6   7
HETATM    7  O   UNL     1     -12.079  11.833  68.031  1.00  0.00    -0.572 OA 
BRANCH   7   8
HETATM    8  C   UNL     1     -11.603  11.501  69.254  1.00  0.00    -0.322 C  
HETATM    9  N   UNL     1     -10.273  11.289  69.201  1.00  0.00    -0.388 N  
HETATM   10  O   UNL     1     -12.279  11.425  70.267  1.00  0.00    -0.332 OA 
HETATM   11  H1  UNL     1      -9.914  11.040  70.122  1.00  0.00     0.000 HD 
HETATM   12  H2  UNL     1      -9.705  11.367  68.357  1.00  0.00     0.000 HD 
ENDBRANCH   7   8
ENDBRANCH   6   7
ENDBRANCH   5   6
ENDBRANCH   2   5
TORSDOF 4
ENDMDL
MODEL       68
REMARK 921   NORMALIZED FREE ENERGY PREDICTED BY IDOCK:   -2.58 KCAL/MOL
REMARK 922        TOTAL FREE ENERGY PREDICTED BY IDOCK:   -3.52 KCAL/MOL
REMARK 923 INTER-LIGAND FREE ENERGY PREDICTED BY IDOCK:   -3.24 KCAL/MOL
REMARK 924 INTRA-LIGAND FREE ENERGY PREDICTED BY IDOCK:   -0.28 KCAL/MOL
REMARK 927      BINDING AFFINITY PREDICTED BY RF-SCORE:    0.00 PKD
ROOT
HETATM    1  C   UNL     1     -10.555  13.760  64.444  1.00  0.00    -0.295 C  
HETATM    2  N   UNL     1     -10.565  12.570  65.409  1.00  0.00    -0.274 N  
HETATM    3  C   UNL     1      -9.366  12.699  66.338  1.00  0.00    -0.198 C  
HETATM    4  C   UNL     1     -10.452  11.292  64.585  1.00  0.00    -0.325 C  
ENDROOT
BRANCH   2   5
HETATM    5  C   UNL     1     -11.899  12.608  66.189  1.00  0.00    -0.418 C  
BRANCH   5   6
HETATM    6  C   UNL     1     -12.387  14.015  66.568  1.00  0.00    -0.404 C  
BRANCH   6   7
HETATM    7  O   UNL     1     -11.958  14.362  67.897  1.00  0.00    -0.353 OA 
BRANCH   7   8
HETATM    8  C   UNL     1     -11.262  15.520  67.974  1.00  0.00    -0.332 C  
HETATM    9  N   UNL     1     -11.257  15.983  69.240  1.00  0.00    -0.325 N  
HETATM   10  O   UNL     1     -10.701  16.059  67.034  1.00  0.00    -0.319 OA 
HETATM   11  H1  UNL     1     -10.732  16.856  69.299  1.00  0.00     0.000 HD 
HETATM   12  H2  UNL     1     -11.713  15.525  70.029  1.00  0.00     0.000 HD 
ENDBRANCH   7   8
ENDBRANCH   6   7
ENDBRANCH   5   6
ENDBRANCH   2   5
TORSDOF 4
ENDMDL
MODEL       69
REMARK 921   NORMALIZED FREE ENERGY PREDICTED BY IDOCK:   -2.57 KCAL/MOL
REMARK 922        TOTAL FREE ENERGY PREDICTED BY IDOCK:   -3.50 KCAL/MOL
REMARK 923 INTER-LIGAND FREE ENERGY PREDICTED BY IDOCK:   -3.26 KCAL/MOL
REMARK 924 INTRA-LIGAND FREE ENERGY PREDICTED BY IDOCK:   -0.24 KCAL/MOL
REMARK 927      BINDING AFFINITY PREDICTED BY RF-SCORE:    0.00 PKD
ROOT
HETATM    1  C   UNL     1     -10.877  16.225  67.720  1.00  0.00    -0.315 C  
HETATM    2  N   UNL     1      -9.671  15.341  67.383  1.00  0.00    -0.208 N  
HETATM    3  C   UNL     1     -10.167  13.917  67.172  1.00  0.00    -0.258 C  
HETATM    4  C   UNL     1      -8.705  15.388  68.562  1.00  0.00    -0.178 C  
ENDROOT
BRANCH   2   5
HETATM    5  C   UNL     1      -9.011  15.911  66.107  1.00  0.00    -0.341 C  
BRANCH   5   6
HETATM    6  C   UNL     1      -7.817  16.845  66.358  1.00  0.00    -0.313 C  
BRANCH   6   7
HETATM    7  O   UNL     1      -8.000  18.100  65.680  1.00  0.00    -0.502 OA 
BRANCH   7   8
HETATM    8  C   UNL     1      -8.294  19.138  66.497  1.00  0.00    -0.315 C  
HETATM    9  N   UNL     1      -8.074  20.310  65.868  1.00  0.00    -0.550 N  
HETATM   10  O   UNL     1      -8.718  19.029  67.636  1.00  0.00    -0.283 OA 
HETATM   11  H1  UNL     1      -8.296  21.093  66.484  1.00  0.00     0.000 HD 
HETATM   12  H2  UNL     1      -7.734  20.401  64.911  1.00  0.00     0.000 HD 
ENDBRANCH   7   8
ENDBRANCH   6   7
ENDBRANCH   5   6
ENDBRANCH   2   5
TORSDOF 4
ENDMDL
MODEL       70
REMARK 921   NORMALIZED FREE ENERGY PREDICTED BY IDOCK:   -2.56 KCAL/MOL
REMARK 922        TOTAL FREE ENERGY PREDICTED BY IDOCK:   -3.49 KCAL/MOL
REMARK 923 INTER-LIGAND FREE ENERGY PREDICTED BY IDOCK:   -3.40 KCAL/MOL
REMARK 924 INTRA-LIGAND FREE ENERGY PREDICTED BY IDOCK:   -0.09 KCAL/MOL
REMARK 927      BINDING AFFINITY PREDICTED BY RF-SCORE:    0.00 PKD
ROOT
HETATM    1  C   UNL     1     -10.657   7.726  67.126  1.00  0.00    -0.331 C  
HETATM    2  N   UNL     1     -10.135   9.143  67.385  1.00  0.00    -0.212 N  
HETATM    3  C   UNL     1      -8.701   9.039  67.885  1.00  0.00    -0.129 C  
HETATM    4  C   UNL     1     -11.015   9.784  68.453  1.00  0.00    -0.152 C  
ENDROOT
BRANCH   2   5
HETATM    5  C   UNL     1     -10.220   9.927  66.056  1.00  0.00    -0.198 C  
BRANCH   5   6
HETATM    6  C   UNL     1     -10.599  11.409  66.203  1.00  0.00    -0.265 C  
BRANCH   6   7
HETATM    7  O   UNL     1     -10.558  12.074  64.928  1.00  0.00    -0.268 OA 
BRANCH   7   8
HETATM    8  C   UNL     1     -11.701  11.971  64.208  1.00  0.00    -0.344 C  
HETATM    9  N   UNL     1     -11.474  11.312  63.055  1.00  0.00    -0.818 N  
HETATM   10  O   UNL     1     -12.787  12.398  64.563  1.00  0.00    -0.680 OA 
HETATM   11  H1  UNL     1     -12.334  11.234  62.513  1.00  0.00     0.000 HD 
HETATM   12  H2  UNL     1     -10.569  10.942  62.765  1.00  0.00     0.000 HD 
ENDBRANCH   7   8
ENDBRANCH   6   7
ENDBRANCH   5   6
ENDBRANCH   2   5
TORSDOF 4
ENDMDL
MODEL       71
REMARK 921   NORMALIZED FREE ENERGY PREDICTED BY IDOCK:   -2.55 KCAL/MOL
REMARK 922        TOTAL FREE ENERGY PREDICTED BY IDOCK:   -3.48 KCAL/MOL
REMARK 923 INTER-LIGAND FREE ENERGY PREDICTED BY IDOCK:   -3.35 KCAL/MOL
REMARK 924 INTRA-LIGAND FREE ENERGY PREDICTED BY IDOCK:   -0.13 KCAL/MOL
REMARK 927      BINDING AFFINITY PREDICTED BY RF-SCORE:    0.00 PKD
ROOT
HETATM    1  C   UNL     1     -11.215  14.923  70.856  1.00  0.00    -0.162 C  
HETATM    2  N   UNL     1     -10.768  14.720  69.405  1.00  0.00    -0.247 N  
HETATM    3  C   UNL     1      -9.268  14.970  69.328  1.00  0.00    -0.159 C  
HETATM    4  C   UNL     1     -11.511  15.729  68.535  1.00  0.00    -0.379 C  
ENDROOT
BRANCH   2   5
HETATM    5  C   UNL     1     -11.127  13.272  69.000  1.00  0.00    -0.244 C  
BRANCH   5   6
HETATM    6  C   UNL     1     -10.856  12.927  67.527  1.00  0.00    -0.235 C  
BRANCH   6   7
HETATM    7  O   UNL     1     -12.016  12.330  66.922  1.00  0.00    -0.578 OA 
BRANCH   7   8
HETATM    8  C   UNL     1     -12.151  12.586  65.600  1.00  0.00    -0.400 C  
HETATM    9  N   UNL     1     -11.060  13.221  65.128  1.00  0.00    -0.291 N  
HETATM   10  O   UNL     1     -13.117  12.268  64.925  1.00  0.00    -0.654 OA 
HETATM   11  H1  UNL     1     -11.161  13.414  64.132  1.00  0.00     0.000 HD 
HETATM   12  H2  UNL     1     -10.246  13.474  65.690  1.00  0.00     0.000 HD 
ENDBRANCH   7   8
ENDBRANCH   6   7
ENDBRANCH   5   6
ENDBRANCH   2   5
TORSDOF 4
ENDMDL
MODEL       72
REMARK 921   NORMALIZED FREE ENERGY PREDICTED BY IDOCK:   -2.54 KCAL/MOL
REMARK 922        TOTAL FREE ENERGY PREDICTED BY IDOCK:   -3.47 KCAL/MOL
REMARK 923 INTER-LIGAND FREE ENERGY PREDICTED BY IDOCK:   -3.36 KCAL/MOL
REMARK 924 INTRA-LIGAND FREE ENERGY PREDICTED BY IDOCK:   -0.10 KCAL/MOL
REMARK 927      BINDING AFFINITY PREDICTED BY RF-SCORE:    0.00 PKD
ROOT
HETATM    1  C   UNL     1      -9.337   6.224  71.576  1.00  0.00    -0.148 C  
HETATM    2  N   UNL     1     -10.550   5.779  72.400  1.00  0.00    -0.211 N  
HETATM    3  C   UNL     1     -10.355   6.255  73.833  1.00  0.00    -0.306 C  
HETATM    4  C   UNL     1     -10.616   4.256  72.361  1.00  0.00    -0.075 C  
ENDROOT
BRANCH   2   5
HETATM    5  C   UNL     1     -11.810   6.403  71.757  1.00  0.00    -0.321 C  
BRANCH   5   6
HETATM    6  C   UNL     1     -11.638   7.850  71.269  1.00  0.00    -0.276 C  
BRANCH   6   7
HETATM    7  O   UNL     1     -11.970   8.782  72.313  1.00  0.00    -0.365 OA 
BRANCH   7   8
HETATM    8  C   UNL     1     -13.082   9.516  72.073  1.00  0.00    -0.438 C  
HETATM    9  N   UNL     1     -14.125   9.036  72.779  1.00  0.00    -0.837 N  
HETATM   10  O   UNL     1     -13.128  10.488  71.337  1.00  0.00    -0.389 OA 
HETATM   11  H1  UNL     1     -14.963   9.589  72.598  1.00  0.00     0.000 HD 
HETATM   12  H2  UNL     1     -14.083   8.233  73.405  1.00  0.00     0.000 HD 
ENDBRANCH   7   8
ENDBRANCH   6   7
ENDBRANCH   5   6
ENDBRANCH   2   5
TORSDOF 4
ENDMDL
MODEL       73
REMARK 921   NORMALIZED FREE ENERGY PREDICTED BY IDOCK:   -2.54 KCAL/MOL
REMARK 922        TOTAL FREE ENERGY PREDICTED BY IDOCK:   -3.46 KCAL/MOL
REMARK 923 INTER-LIGAND FREE ENERGY PREDICTED BY IDOCK:   -3.30 KCAL/MOL
REMARK 924 INTRA-LIGAND FREE ENERGY PREDICTED BY IDOCK:   -0.16 KCAL/MOL
REMARK 927      BINDING AFFINITY PREDICTED BY RF-SCORE:    0.00 PKD
ROOT
HETATM    1  C   UNL     1     -12.046  13.909  69.301  1.00  0.00    -0.339 C  
HETATM    2  N   UNL     1     -11.121  13.397  68.191  1.00  0.00    -0.247 N  
HETATM    3  C   UNL     1      -9.860  14.250  68.190  1.00  0.00    -0.226 C  
HETATM    4  C   UNL     1     -11.851  13.544  66.860  1.00  0.00    -0.407 C  
ENDROOT
BRANCH   2   5
HETATM    5  C   UNL     1     -10.806  11.913  68.487  1.00  0.00    -0.221 C  
BRANCH   5   6
HETATM    6  C   UNL     1     -11.869  11.180  69.321  1.00  0.00    -0.352 C  
BRANCH   6   7
HETATM    7  O   UNL     1     -11.259  10.464  70.408  1.00  0.00    -0.297 OA 
BRANCH   7   8
HETATM    8  C   UNL     1     -12.104  10.158  71.420  1.00  0.00    -0.382 C  
HETATM    9  N   UNL     1     -12.984  11.160  71.618  1.00  0.00    -0.462 N  
HETATM   10  O   UNL     1     -12.086   9.114  72.051  1.00  0.00    -0.367 OA 
HETATM   11  H1  UNL     1     -13.621  10.930  72.380  1.00  0.00     0.000 HD 
HETATM   12  H2  UNL     1     -13.009  12.026  71.081  1.00  0.00     0.000 HD 
ENDBRANCH   7   8
ENDBRANCH   6   7
ENDBRANCH   5   6
ENDBRANCH   2   5
TORSDOF 4
ENDMDL
MODEL       74
REMARK 921   NORMALIZED FREE ENERGY PREDICTED BY IDOCK:   -2.50 KCAL/MOL
REMARK 922        TOTAL FREE ENERGY PREDICTED BY IDOCK:   -3.42 KCAL/MOL
REMARK 923 INTER-LIGAND FREE ENERGY PREDICTED BY IDOCK:   -3.14 KCAL/MOL
REMARK 924 INTRA-LIGAND FREE ENERGY PREDICTED BY IDOCK:   -0.28 KCAL/MOL
REMARK 927      BINDING AFFINITY PREDICTED BY RF-SCORE:    0.00 PKD
ROOT
HETATM    1  C   UNL     1      -7.251  19.544  68.886  1.00  0.00    -0.362 C  
HETATM    2  N   UNL     1      -8.070  18.449  68.193  1.00  0.00    -0.281 N  
HETATM    3  C   UNL     1      -7.598  17.099  68.715  1.00  0.00    -0.259 C  
HETATM    4  C   UNL     1      -7.816  18.546  66.692  1.00  0.00    -0.252 C  
ENDROOT
BRANCH   2   5
HETATM    5  C   UNL     1      -9.560  18.698  68.518  1.00  0.00    -0.361 C  
BRANCH   5   6
HETATM    6  C   UNL     1     -10.552  18.003  67.573  1.00  0.00    -0.388 C  
BRANCH   6   7
HETATM    7  O   UNL     1     -11.055  16.792  68.164  1.00  0.00    -0.363 OA 
BRANCH   7   8
HETATM    8  C   UNL     1     -10.772  15.669  67.462  1.00  0.00    -0.303 C  
HETATM    9  N   UNL     1     -10.414  15.979  66.200  1.00  0.00    -0.319 N  
HETATM   10  O   UNL     1     -10.815  14.536  67.914  1.00  0.00    -0.249 OA 
HETATM   11  H1  UNL     1     -10.200  15.133  65.671  1.00  0.00     0.000 HD 
HETATM   12  H2  UNL     1     -10.364  16.927  65.826  1.00  0.00     0.000 HD 
ENDBRANCH   7   8
ENDBRANCH   6   7
ENDBRANCH   5   6
ENDBRANCH   2   5
TORSDOF 4
ENDMDL
MODEL       75
REMARK 921   NORMALIZED FREE ENERGY PREDICTED BY IDOCK:   -2.50 KCAL/MOL
REMARK 922        TOTAL FREE ENERGY PREDICTED BY IDOCK:   -3.41 KCAL/MOL
REMARK 923 INTER-LIGAND FREE ENERGY PREDICTED BY IDOCK:   -3.29 KCAL/MOL
REMARK 924 INTRA-LIGAND FREE ENERGY PREDICTED BY IDOCK:   -0.12 KCAL/MOL
REMARK 927      BINDING AFFINITY PREDICTED BY RF-SCORE:    0.00 PKD
ROOT
HETATM    1  C   UNL     1      -8.135   8.914  69.156  1.00  0.00    -0.117 C  
HETATM    2  N   UNL     1      -9.405   8.318  69.771  1.00  0.00    -0.158 N  
HETATM    3  C   UNL     1      -9.028   7.035  70.497  1.00  0.00    -0.155 C  
HETATM    4  C   UNL     1     -10.379   8.009  68.638  1.00  0.00    -0.200 C  
ENDROOT
BRANCH   2   5
HETATM    5  C   UNL     1      -9.999   9.368  70.737  1.00  0.00    -0.289 C  
BRANCH   5   6
HETATM    6  C   UNL     1     -11.427   9.824  70.398  1.00  0.00    -0.280 C  
BRANCH   6   7
HETATM    7  O   UNL     1     -12.387   9.152  71.233  1.00  0.00    -0.308 OA 
BRANCH   7   8
HETATM    8  C   UNL     1     -13.127   9.979  72.009  1.00  0.00    -0.441 C  
HETATM    9  N   UNL     1     -13.891   9.268  72.862  1.00  0.00    -0.850 N  
HETATM   10  O   UNL     1     -13.092  11.198  71.958  1.00  0.00    -0.492 OA 
HETATM   11  H1  UNL     1     -14.448   9.890  73.446  1.00  0.00     0.000 HD 
HETATM   12  H2  UNL     1     -13.909   8.249  72.915  1.00  0.00     0.000 HD 
ENDBRANCH   7   8
ENDBRANCH   6   7
ENDBRANCH   5   6
ENDBRANCH   2   5
TORSDOF 4
ENDMDL
MODEL       76
REMARK 921   NORMALIZED FREE ENERGY PREDICTED BY IDOCK:   -2.49 KCAL/MOL
REMARK 922        TOTAL FREE ENERGY PREDICTED BY IDOCK:   -3.41 KCAL/MOL
REMARK 923 INTER-LIGAND FREE ENERGY PREDICTED BY IDOCK:   -3.17 KCAL/MOL
REMARK 924 INTRA-LIGAND FREE ENERGY PREDICTED BY IDOCK:   -0.24 KCAL/MOL
REMARK 927      BINDING AFFINITY PREDICTED BY RF-SCORE:    0.00 PKD
ROOT
HETATM    1  C   UNL     1      -9.826  13.588  66.349  1.00  0.00    -0.295 C  
HETATM    2  N   UNL     1     -10.365  12.457  65.467  1.00  0.00    -0.266 N  
HETATM    3  C   UNL     1      -9.430  11.263  65.599  1.00  0.00    -0.229 C  
HETATM    4  C   UNL     1     -10.382  12.949  64.024  1.00  0.00    -0.322 C  
ENDROOT
BRANCH   2   5
HETATM    5  C   UNL     1     -11.793  12.121  65.953  1.00  0.00    -0.272 C  
BRANCH   5   6
HETATM    6  C   UNL     1     -12.094  12.523  67.405  1.00  0.00    -0.051 C  
BRANCH   6   7
HETATM    7  O   UNL     1     -12.154  11.362  68.252  1.00  0.00    -0.606 OA 
BRANCH   7   8
HETATM    8  C   UNL     1     -11.603  11.535  69.477  1.00  0.00    -0.333 C  
HETATM    9  N   UNL     1     -10.275  11.307  69.433  1.00  0.00    -0.435 N  
HETATM   10  O   UNL     1     -12.218  11.871  70.476  1.00  0.00    -0.362 OA 
HETATM   11  H1  UNL     1      -9.860  11.438  70.355  1.00  0.00     0.000 HD 
HETATM   12  H2  UNL     1      -9.758  11.041  68.595  1.00  0.00     0.000 HD 
ENDBRANCH   7   8
ENDBRANCH   6   7
ENDBRANCH   5   6
ENDBRANCH   2   5
TORSDOF 4
ENDMDL
MODEL       77
REMARK 921   NORMALIZED FREE ENERGY PREDICTED BY IDOCK:   -2.49 KCAL/MOL
REMARK 922        TOTAL FREE ENERGY PREDICTED BY IDOCK:   -3.40 KCAL/MOL
REMARK 923 INTER-LIGAND FREE ENERGY PREDICTED BY IDOCK:   -3.30 KCAL/MOL
REMARK 924 INTRA-LIGAND FREE ENERGY PREDICTED BY IDOCK:   -0.10 KCAL/MOL
REMARK 927      BINDING AFFINITY PREDICTED BY RF-SCORE:    0.00 PKD
ROOT
HETATM    1  C   UNL     1      -8.545  11.478  67.562  1.00  0.00    -0.143 C  
HETATM    2  N   UNL     1      -9.380  10.297  67.057  1.00  0.00    -0.153 N  
HETATM    3  C   UNL     1      -9.026   9.072  67.889  1.00  0.00    -0.132 C  
HETATM    4  C   UNL     1      -9.022  10.055  65.594  1.00  0.00    -0.172 C  
ENDROOT
BRANCH   2   5
HETATM    5  C   UNL     1     -10.870  10.676  67.205  1.00  0.00    -0.270 C  
BRANCH   5   6
HETATM    6  C   UNL     1     -11.172  12.177  67.068  1.00  0.00    -0.314 C  
BRANCH   6   7
HETATM    7  O   UNL     1     -12.301  12.392  66.202  1.00  0.00    -0.606 OA 
BRANCH   7   8
HETATM    8  C   UNL     1     -12.433  13.666  65.763  1.00  0.00    -0.477 C  
HETATM    9  N   UNL     1     -12.009  14.535  66.702  1.00  0.00    -0.376 N  
HETATM   10  O   UNL     1     -12.858  13.982  64.664  1.00  0.00    -0.661 OA 
HETATM   11  H1  UNL     1     -12.108  15.494  66.371  1.00  0.00     0.000 HD 
HETATM   12  H2  UNL     1     -11.640  14.270  67.615  1.00  0.00     0.000 HD 
ENDBRANCH   7   8
ENDBRANCH   6   7
ENDBRANCH   5   6
ENDBRANCH   2   5
TORSDOF 4
ENDMDL
MODEL       78
REMARK 921   NORMALIZED FREE ENERGY PREDICTED BY IDOCK:   -2.49 KCAL/MOL
REMARK 922        TOTAL FREE ENERGY PREDICTED BY IDOCK:   -3.40 KCAL/MOL
REMARK 923 INTER-LIGAND FREE ENERGY PREDICTED BY IDOCK:   -3.32 KCAL/MOL
REMARK 924 INTRA-LIGAND FREE ENERGY PREDICTED BY IDOCK:   -0.08 KCAL/MOL
REMARK 927      BINDING AFFINITY PREDICTED BY RF-SCORE:    0.00 PKD
ROOT
HETATM    1  C   UNL     1     -10.390  10.649  67.017  1.00  0.00    -0.231 C  
HETATM    2  N   UNL     1     -10.985  12.026  67.325  1.00  0.00    -0.248 N  
HETATM    3  C   UNL     1     -11.779  12.486  66.110  1.00  0.00    -0.409 C  
HETATM    4  C   UNL     1      -9.834  12.991  67.592  1.00  0.00    -0.212 C  
ENDROOT
BRANCH   2   5
HETATM    5  C   UNL     1     -11.885  11.882  68.574  1.00  0.00    -0.297 C  
BRANCH   5   6
HETATM    6  C   UNL     1     -11.260  11.090  69.733  1.00  0.00    -0.268 C  
BRANCH   6   7
HETATM    7  O   UNL     1     -12.088  11.166  70.906  1.00  0.00    -0.346 OA 
BRANCH   7   8
HETATM    8  C   UNL     1     -12.586   9.976  71.316  1.00  0.00    -0.393 C  
HETATM    9  N   UNL     1     -12.106   8.975  70.552  1.00  0.00    -0.476 N  
HETATM   10  O   UNL     1     -13.347   9.827  72.259  1.00  0.00    -0.443 OA 
HETATM   11  H1  UNL     1     -12.480   8.078  70.861  1.00  0.00     0.000 HD 
HETATM   12  H2  UNL     1     -11.458   9.097  69.774  1.00  0.00     0.000 HD 
ENDBRANCH   7   8
ENDBRANCH   6   7
ENDBRANCH   5   6
ENDBRANCH   2   5
TORSDOF 4
ENDMDL
MODEL       79
REMARK 921   NORMALIZED FREE ENERGY PREDICTED BY IDOCK:   -2.47 KCAL/MOL
REMARK 922        TOTAL FREE ENERGY PREDICTED BY IDOCK:   -3.38 KCAL/MOL
REMARK 923 INTER-LIGAND FREE ENERGY PREDICTED BY IDOCK:   -3.07 KCAL/MOL
REMARK 924 INTRA-LIGAND FREE ENERGY PREDICTED BY IDOCK:   -0.31 KCAL/MOL
REMARK 927      BINDING AFFINITY PREDICTED BY RF-SCORE:    0.00 PKD
ROOT
HETATM    1  C   UNL     1      -8.739  11.614  66.597  1.00  0.00    -0.187 C  
HETATM    2  N   UNL     1     -10.103  11.140  66.085  1.00  0.00    -0.230 N  
HETATM    3  C   UNL     1     -10.920  10.659  67.276  1.00  0.00    -0.284 C  
HETATM    4  C   UNL     1      -9.869   9.987  65.114  1.00  0.00    -0.318 C  
ENDROOT
BRANCH   2   5
HETATM    5  C   UNL     1     -10.779  12.333  65.373  1.00  0.00    -0.284 C  
BRANCH   5   6
HETATM    6  C   UNL     1     -10.430  13.714  65.951  1.00  0.00    -0.296 C  
BRANCH   6   7
HETATM    7  O   UNL     1     -11.548  14.259  66.674  1.00  0.00    -0.352 OA 
BRANCH   7   8
HETATM    8  C   UNL     1     -11.336  14.402  68.004  1.00  0.00    -0.294 C  
HETATM    9  N   UNL     1     -12.409  14.964  68.595  1.00  0.00    -0.592 N  
HETATM   10  O   UNL     1     -10.324  14.052  68.589  1.00  0.00    -0.235 OA 
HETATM   11  H1  UNL     1     -12.250  15.071  69.596  1.00  0.00     0.000 HD 
HETATM   12  H2  UNL     1     -13.261  15.242  68.108  1.00  0.00     0.000 HD 
ENDBRANCH   7   8
ENDBRANCH   6   7
ENDBRANCH   5   6
ENDBRANCH   2   5
TORSDOF 4
ENDMDL
MODEL       80
REMARK 921   NORMALIZED FREE ENERGY PREDICTED BY IDOCK:   -2.45 KCAL/MOL
REMARK 922        TOTAL FREE ENERGY PREDICTED BY IDOCK:   -3.36 KCAL/MOL
REMARK 923 INTER-LIGAND FREE ENERGY PREDICTED BY IDOCK:   -3.25 KCAL/MOL
REMARK 924 INTRA-LIGAND FREE ENERGY PREDICTED BY IDOCK:   -0.11 KCAL/MOL
REMARK 927      BINDING AFFINITY PREDICTED BY RF-SCORE:    0.00 PKD
ROOT
HETATM    1  C   UNL     1      -8.164  13.278  67.397  1.00  0.00    -0.183 C  
HETATM    2  N   UNL     1      -8.380  14.793  67.467  1.00  0.00    -0.170 N  
HETATM    3  C   UNL     1      -7.042  15.477  67.226  1.00  0.00    -0.190 C  
HETATM    4  C   UNL     1      -8.896  15.134  68.861  1.00  0.00    -0.205 C  
ENDROOT
BRANCH   2   5
HETATM    5  C   UNL     1      -9.418  15.172  66.387  1.00  0.00    -0.296 C  
BRANCH   5   6
HETATM    6  C   UNL     1     -10.879  14.884  66.765  1.00  0.00    -0.320 C  
BRANCH   6   7
HETATM    7  O   UNL     1     -11.662  14.600  65.592  1.00  0.00    -0.347 OA 
BRANCH   7   8
HETATM    8  C   UNL     1     -12.142  13.335  65.535  1.00  0.00    -0.435 C  
HETATM    9  N   UNL     1     -11.787  12.645  66.636  1.00  0.00    -0.401 N  
HETATM   10  O   UNL     1     -12.820  12.889  64.623  1.00  0.00    -0.705 OA 
HETATM   11  H1  UNL     1     -12.149  11.692  66.593  1.00  0.00     0.000 HD 
HETATM   12  H2  UNL     1     -11.234  13.022  67.405  1.00  0.00     0.000 HD 
ENDBRANCH   7   8
ENDBRANCH   6   7
ENDBRANCH   5   6
ENDBRANCH   2   5
TORSDOF 4
ENDMDL
MODEL       81
REMARK 921   NORMALIZED FREE ENERGY PREDICTED BY IDOCK:   -2.45 KCAL/MOL
REMARK 922        TOTAL FREE ENERGY PREDICTED BY IDOCK:   -3.35 KCAL/MOL
REMARK 923 INTER-LIGAND FREE ENERGY PREDICTED BY IDOCK:   -3.21 KCAL/MOL
REMARK 924 INTRA-LIGAND FREE ENERGY PREDICTED BY IDOCK:   -0.14 KCAL/MOL
REMARK 927      BINDING AFFINITY PREDICTED BY RF-SCORE:    0.00 PKD
ROOT
HETATM    1  C   UNL     1     -12.283   9.600  71.689  1.00  0.00    -0.402 C  
HETATM    2  N   UNL     1     -11.958   8.104  71.640  1.00  0.00    -0.286 N  
HETATM    3  C   UNL     1     -13.267   7.335  71.523  1.00  0.00    -0.379 C  
HETATM    4  C   UNL     1     -11.248   7.730  72.937  1.00  0.00    -0.376 C  
ENDROOT
BRANCH   2   5
HETATM    5  C   UNL     1     -11.041   7.860  70.420  1.00  0.00    -0.245 C  
BRANCH   5   6
HETATM    6  C   UNL     1     -10.791   6.381  70.084  1.00  0.00    -0.296 C  
BRANCH   6   7
HETATM    7  O   UNL     1     -11.405   6.033  68.831  1.00  0.00    -0.307 OA 
BRANCH   7   8
HETATM    8  C   UNL     1     -10.552   6.007  67.779  1.00  0.00    -0.267 C  
HETATM    9  N   UNL     1     -11.003   6.800  66.787  1.00  0.00    -0.544 N  
HETATM   10  O   UNL     1      -9.511   5.372  67.744  1.00  0.00    -0.113 OA 
HETATM   11  H1  UNL     1     -10.360   6.780  65.995  1.00  0.00     0.000 HD 
HETATM   12  H2  UNL     1     -11.866   7.343  66.822  1.00  0.00     0.000 HD 
ENDBRANCH   7   8
ENDBRANCH   6   7
ENDBRANCH   5   6
ENDBRANCH   2   5
TORSDOF 4
ENDMDL
MODEL       82
REMARK 921   NORMALIZED FREE ENERGY PREDICTED BY IDOCK:   -2.44 KCAL/MOL
REMARK 922        TOTAL FREE ENERGY PREDICTED BY IDOCK:   -3.34 KCAL/MOL
REMARK 923 INTER-LIGAND FREE ENERGY PREDICTED BY IDOCK:   -3.22 KCAL/MOL
REMARK 924 INTRA-LIGAND FREE ENERGY PREDICTED BY IDOCK:   -0.12 KCAL/MOL
REMARK 927      BINDING AFFINITY PREDICTED BY RF-SCORE:    0.00 PKD
ROOT
HETATM    1  C   UNL     1     -10.496  18.453  66.994  1.00  0.00    -0.399 C  
HETATM    2  N   UNL     1      -9.818  17.135  67.380  1.00  0.00    -0.258 N  
HETATM    3  C   UNL     1      -8.919  16.706  66.229  1.00  0.00    -0.305 C  
HETATM    4  C   UNL     1     -10.906  16.091  67.608  1.00  0.00    -0.311 C  
ENDROOT
BRANCH   2   5
HETATM    5  C   UNL     1      -9.010  17.381  68.674  1.00  0.00    -0.255 C  
BRANCH   5   6
HETATM    6  C   UNL     1      -7.662  18.091  68.469  1.00  0.00    -0.302 C  
BRANCH   6   7
HETATM    7  O   UNL     1      -7.705  19.428  68.999  1.00  0.00    -0.362 OA 
BRANCH   7   8
HETATM    8  C   UNL     1      -6.559  19.827  69.601  1.00  0.00    -0.343 C  
HETATM    9  N   UNL     1      -5.495  19.542  68.825  1.00  0.00    -0.199 N  
HETATM   10  O   UNL     1      -6.501  20.385  70.685  1.00  0.00    -0.485 OA 
HETATM   11  H1  UNL     1      -4.632  19.843  69.278  1.00  0.00     0.000 HD 
HETATM   12  H2  UNL     1      -5.545  19.089  67.913  1.00  0.00     0.000 HD 
ENDBRANCH   7   8
ENDBRANCH   6   7
ENDBRANCH   5   6
ENDBRANCH   2   5
TORSDOF 4
ENDMDL
MODEL       83
REMARK 921   NORMALIZED FREE ENERGY PREDICTED BY IDOCK:   -2.44 KCAL/MOL
REMARK 922        TOTAL FREE ENERGY PREDICTED BY IDOCK:   -3.34 KCAL/MOL
REMARK 923 INTER-LIGAND FREE ENERGY PREDICTED BY IDOCK:   -3.14 KCAL/MOL
REMARK 924 INTRA-LIGAND FREE ENERGY PREDICTED BY IDOCK:   -0.20 KCAL/MOL
REMARK 927      BINDING AFFINITY PREDICTED BY RF-SCORE:    0.00 PKD
ROOT
HETATM    1  C   UNL     1     -10.065  16.250  68.023  1.00  0.00    -0.245 C  
HETATM    2  N   UNL     1     -10.366  15.436  66.760  1.00  0.00    -0.272 N  
HETATM    3  C   UNL     1      -9.138  14.601  66.426  1.00  0.00    -0.209 C  
HETATM    4  C   UNL     1     -10.657  16.412  65.625  1.00  0.00    -0.323 C  
ENDROOT
BRANCH   2   5
HETATM    5  C   UNL     1     -11.597  14.549  67.054  1.00  0.00    -0.386 C  
BRANCH   5   6
HETATM    6  C   UNL     1     -11.799  13.380  66.077  1.00  0.00    -0.383 C  
BRANCH   6   7
HETATM    7  O   UNL     1     -11.988  12.146  66.792  1.00  0.00    -0.606 OA 
BRANCH   7   8
HETATM    8  C   UNL     1     -10.969  11.264  66.661  1.00  0.00    -0.268 C  
HETATM    9  N   UNL     1     -10.627  11.127  65.365  1.00  0.00    -0.252 N  
HETATM   10  O   UNL     1     -10.424  10.688  67.589  1.00  0.00    -0.199 OA 
HETATM   11  H1  UNL     1      -9.859  10.463  65.266  1.00  0.00     0.000 HD 
HETATM   12  H2  UNL     1     -11.073  11.620  64.591  1.00  0.00     0.000 HD 
ENDBRANCH   7   8
ENDBRANCH   6   7
ENDBRANCH   5   6
ENDBRANCH   2   5
TORSDOF 4
ENDMDL
MODEL       84
REMARK 921   NORMALIZED FREE ENERGY PREDICTED BY IDOCK:   -2.42 KCAL/MOL
REMARK 922        TOTAL FREE ENERGY PREDICTED BY IDOCK:   -3.32 KCAL/MOL
REMARK 923 INTER-LIGAND FREE ENERGY PREDICTED BY IDOCK:   -3.25 KCAL/MOL
REMARK 924 INTRA-LIGAND FREE ENERGY PREDICTED BY IDOCK:   -0.07 KCAL/MOL
REMARK 927      BINDING AFFINITY PREDICTED BY RF-SCORE:    0.00 PKD
ROOT
HETATM    1  C   UNL     1     -11.375  14.881  64.539  1.00  0.00    -0.300 C  
HETATM    2  N   UNL     1     -11.429  13.717  65.534  1.00  0.00    -0.302 N  
HETATM    3  C   UNL     1     -10.159  12.892  65.373  1.00  0.00    -0.251 C  
HETATM    4  C   UNL     1     -12.649  12.865  65.201  1.00  0.00    -0.471 C  
ENDROOT
BRANCH   2   5
HETATM    5  C   UNL     1     -11.545  14.315  66.954  1.00  0.00    -0.387 C  
BRANCH   5   6
HETATM    6  C   UNL     1     -10.205  14.689  67.609  1.00  0.00    -0.232 C  
BRANCH   6   7
HETATM    7  O   UNL     1      -9.810  16.020  67.234  1.00  0.00    -0.231 OA 
BRANCH   7   8
HETATM    8  C   UNL     1      -8.603  16.093  66.626  1.00  0.00    -0.276 C  
HETATM    9  N   UNL     1      -7.954  14.915  66.720  1.00  0.00    -0.331 N  
HETATM   10  O   UNL     1      -8.170  17.081  66.054  1.00  0.00    -0.463 OA 
HETATM   11  H1  UNL     1      -7.045  14.970  66.262  1.00  0.00     0.000 HD 
HETATM   12  H2  UNL     1      -8.322  14.086  67.185  1.00  0.00     0.000 HD 
ENDBRANCH   7   8
ENDBRANCH   6   7
ENDBRANCH   5   6
ENDBRANCH   2   5
TORSDOF 4
ENDMDL
MODEL       85
REMARK 921   NORMALIZED FREE ENERGY PREDICTED BY IDOCK:   -2.39 KCAL/MOL
REMARK 922        TOTAL FREE ENERGY PREDICTED BY IDOCK:   -3.28 KCAL/MOL
REMARK 923 INTER-LIGAND FREE ENERGY PREDICTED BY IDOCK:   -2.97 KCAL/MOL
REMARK 924 INTRA-LIGAND FREE ENERGY PREDICTED BY IDOCK:   -0.31 KCAL/MOL
REMARK 927      BINDING AFFINITY PREDICTED BY RF-SCORE:    0.00 PKD
ROOT
HETATM    1  C   UNL     1      -8.548  17.668  67.869  1.00  0.00    -0.238 C  
HETATM    2  N   UNL     1     -10.060  17.565  67.648  1.00  0.00    -0.314 N  
HETATM    3  C   UNL     1     -10.607  18.969  67.427  1.00  0.00    -0.474 C  
HETATM    4  C   UNL     1     -10.682  16.954  68.900  1.00  0.00    -0.321 C  
ENDROOT
BRANCH   2   5
HETATM    5  C   UNL     1     -10.297  16.661  66.417  1.00  0.00    -0.306 C  
BRANCH   5   6
HETATM    6  C   UNL     1      -9.192  15.624  66.156  1.00  0.00    -0.343 C  
BRANCH   6   7
HETATM    7  O   UNL     1      -9.595  14.324  66.621  1.00  0.00    -0.266 OA 
BRANCH   7   8
HETATM    8  C   UNL     1      -8.923  13.888  67.712  1.00  0.00    -0.188 C  
HETATM    9  N   UNL     1      -9.775  13.353  68.609  1.00  0.00    -0.390 N  
HETATM   10  O   UNL     1      -7.713  13.953  67.856  1.00  0.00    -0.128 OA 
HETATM   11  H1  UNL     1      -9.269  13.025  69.431  1.00  0.00     0.000 HD 
HETATM   12  H2  UNL     1     -10.785  13.286  68.482  1.00  0.00     0.000 HD 
ENDBRANCH   7   8
ENDBRANCH   6   7
ENDBRANCH   5   6
ENDBRANCH   2   5
TORSDOF 4
ENDMDL
MODEL       86
REMARK 921   NORMALIZED FREE ENERGY PREDICTED BY IDOCK:   -2.36 KCAL/MOL
REMARK 922        TOTAL FREE ENERGY PREDICTED BY IDOCK:   -3.24 KCAL/MOL
REMARK 923 INTER-LIGAND FREE ENERGY PREDICTED BY IDOCK:   -3.12 KCAL/MOL
REMARK 924 INTRA-LIGAND FREE ENERGY PREDICTED BY IDOCK:   -0.12 KCAL/MOL
REMARK 927      BINDING AFFINITY PREDICTED BY RF-SCORE:    0.00 PKD
ROOT
HETATM    1  C   UNL     1     -10.528   4.828  72.013  1.00  0.00    -0.155 C  
HETATM    2  N   UNL     1     -10.279   6.329  71.836  1.00  0.00    -0.199 N  
HETATM    3  C   UNL     1      -8.848   6.522  71.354  1.00  0.00    -0.137 C  
HETATM    4  C   UNL     1     -10.468   7.004  73.191  1.00  0.00    -0.303 C  
ENDROOT
BRANCH   2   5
HETATM    5  C   UNL     1     -11.304   6.859  70.808  1.00  0.00    -0.310 C  
BRANCH   5   6
HETATM    6  C   UNL     1     -10.710   7.254  69.447  1.00  0.00    -0.225 C  
BRANCH   6   7
HETATM    7  O   UNL     1     -11.136   6.340  68.421  1.00  0.00    -0.323 OA 
BRANCH   7   8
HETATM    8  C   UNL     1     -10.872   6.754  67.160  1.00  0.00    -0.392 C  
HETATM    9  N   UNL     1     -11.008   5.733  66.290  1.00  0.00    -0.737 N  
HETATM   10  O   UNL     1     -10.573   7.896  66.850  1.00  0.00    -0.341 OA 
HETATM   11  H1  UNL     1     -10.809   6.045  65.340  1.00  0.00     0.000 HD 
HETATM   12  H2  UNL     1     -11.272   4.782  66.547  1.00  0.00     0.000 HD 
ENDBRANCH   7   8
ENDBRANCH   6   7
ENDBRANCH   5   6
ENDBRANCH   2   5
TORSDOF 4
ENDMDL
MODEL       87
REMARK 921   NORMALIZED FREE ENERGY PREDICTED BY IDOCK:   -2.35 KCAL/MOL
REMARK 922        TOTAL FREE ENERGY PREDICTED BY IDOCK:   -3.23 KCAL/MOL
REMARK 923 INTER-LIGAND FREE ENERGY PREDICTED BY IDOCK:   -2.93 KCAL/MOL
REMARK 924 INTRA-LIGAND FREE ENERGY PREDICTED BY IDOCK:   -0.31 KCAL/MOL
REMARK 927      BINDING AFFINITY PREDICTED BY RF-SCORE:    0.00 PKD
ROOT
HETATM    1  C   UNL     1      -8.942   6.718  67.827  1.00  0.00    -0.116 C  
HETATM    2  N   UNL     1      -9.796   7.380  68.913  1.00  0.00    -0.154 N  
HETATM    3  C   UNL     1     -10.363   8.676  68.351  1.00  0.00    -0.201 C  
HETATM    4  C   UNL     1      -8.895   7.679  70.107  1.00  0.00    -0.146 C  
ENDROOT
BRANCH   2   5
HETATM    5  C   UNL     1     -10.916   6.388  69.302  1.00  0.00    -0.356 C  
BRANCH   5   6
HETATM    6  C   UNL     1     -11.233   6.329  70.805  1.00  0.00    -0.324 C  
BRANCH   6   7
HETATM    7  O   UNL     1     -12.511   6.931  71.079  1.00  0.00    -0.382 OA 
BRANCH   7   8
HETATM    8  C   UNL     1     -12.440   8.185  71.585  1.00  0.00    -0.319 C  
HETATM    9  N   UNL     1     -13.337   8.989  70.980  1.00  0.00    -0.547 N  
HETATM   10  O   UNL     1     -11.685   8.533  72.478  1.00  0.00    -0.380 OA 
HETATM   11  H1  UNL     1     -13.284   9.934  71.362  1.00  0.00     0.000 HD 
HETATM   12  H2  UNL     1     -13.978   8.695  70.244  1.00  0.00     0.000 HD 
ENDBRANCH   7   8
ENDBRANCH   6   7
ENDBRANCH   5   6
ENDBRANCH   2   5
TORSDOF 4
ENDMDL
MODEL       88
REMARK 921   NORMALIZED FREE ENERGY PREDICTED BY IDOCK:   -2.34 KCAL/MOL
REMARK 922        TOTAL FREE ENERGY PREDICTED BY IDOCK:   -3.22 KCAL/MOL
REMARK 923 INTER-LIGAND FREE ENERGY PREDICTED BY IDOCK:   -3.09 KCAL/MOL
REMARK 924 INTRA-LIGAND FREE ENERGY PREDICTED BY IDOCK:   -0.12 KCAL/MOL
REMARK 927      BINDING AFFINITY PREDICTED BY RF-SCORE:    0.00 PKD
ROOT
HETATM    1  C   UNL     1     -10.479  10.382  67.033  1.00  0.00    -0.251 C  
HETATM    2  N   UNL     1     -10.864  11.848  67.257  1.00  0.00    -0.235 N  
HETATM    3  C   UNL     1     -11.365  12.418  65.937  1.00  0.00    -0.356 C  
HETATM    4  C   UNL     1      -9.617  12.601  67.710  1.00  0.00    -0.197 C  
ENDROOT
BRANCH   2   5
HETATM    5  C   UNL     1     -11.958  11.887  68.348  1.00  0.00    -0.182 C  
BRANCH   5   6
HETATM    6  C   UNL     1     -11.675  12.847  69.514  1.00  0.00    -0.323 C  
BRANCH   6   7
HETATM    7  O   UNL     1     -12.508  14.017  69.423  1.00  0.00    -0.283 OA 
BRANCH   7   8
HETATM    8  C   UNL     1     -12.820  14.574  70.617  1.00  0.00    -0.340 C  
HETATM    9  N   UNL     1     -12.714  15.916  70.554  1.00  0.00    -0.588 N  
HETATM   10  O   UNL     1     -13.168  13.949  71.606  1.00  0.00    -0.338 OA 
HETATM   11  H1  UNL     1     -12.950  16.335  71.453  1.00  0.00     0.000 HD 
HETATM   12  H2  UNL     1     -12.438  16.438  69.723  1.00  0.00     0.000 HD 
ENDBRANCH   7   8
ENDBRANCH   6   7
ENDBRANCH   5   6
ENDBRANCH   2   5
TORSDOF 4
ENDMDL
MODEL       89
REMARK 921   NORMALIZED FREE ENERGY PREDICTED BY IDOCK:   -2.32 KCAL/MOL
REMARK 922        TOTAL FREE ENERGY PREDICTED BY IDOCK:   -3.19 KCAL/MOL
REMARK 923 INTER-LIGAND FREE ENERGY PREDICTED BY IDOCK:   -3.05 KCAL/MOL
REMARK 924 INTRA-LIGAND FREE ENERGY PREDICTED BY IDOCK:   -0.14 KCAL/MOL
REMARK 927      BINDING AFFINITY PREDICTED BY RF-SCORE:    0.00 PKD
ROOT
HETATM    1  C   UNL     1     -12.233  12.649  63.456  1.00  0.00    -0.547 C  
HETATM    2  N   UNL     1     -11.723  12.973  64.864  1.00  0.00    -0.325 N  
HETATM    3  C   UNL     1     -12.784  13.799  65.577  1.00  0.00    -0.488 C  
HETATM    4  C   UNL     1     -10.437  13.783  64.727  1.00  0.00    -0.428 C  
ENDROOT
BRANCH   2   5
HETATM    5  C   UNL     1     -11.457  11.635  65.589  1.00  0.00    -0.105 C  
BRANCH   5   6
HETATM    6  C   UNL     1     -10.514  11.731  66.799  1.00  0.00    -0.225 C  
BRANCH   6   7
HETATM    7  O   UNL     1      -9.586  10.632  66.809  1.00  0.00    -0.164 OA 
BRANCH   7   8
HETATM    8  C   UNL     1     -10.126   9.449  67.186  1.00  0.00    -0.231 C  
HETATM    9  N   UNL     1     -10.564   9.514  68.459  1.00  0.00    -0.247 N  
HETATM   10  O   UNL     1     -10.221   8.468  66.467  1.00  0.00    -0.289 OA 
HETATM   11  H1  UNL     1     -10.971   8.623  68.742  1.00  0.00     0.000 HD 
HETATM   12  H2  UNL     1     -10.497  10.339  69.055  1.00  0.00     0.000 HD 
ENDBRANCH   7   8
ENDBRANCH   6   7
ENDBRANCH   5   6
ENDBRANCH   2   5
TORSDOF 4
ENDMDL
MODEL       90
REMARK 921   NORMALIZED FREE ENERGY PREDICTED BY IDOCK:   -2.31 KCAL/MOL
REMARK 922        TOTAL FREE ENERGY PREDICTED BY IDOCK:   -3.18 KCAL/MOL
REMARK 923 INTER-LIGAND FREE ENERGY PREDICTED BY IDOCK:   -3.05 KCAL/MOL
REMARK 924 INTRA-LIGAND FREE ENERGY PREDICTED BY IDOCK:   -0.13 KCAL/MOL
REMARK 927      BINDING AFFINITY PREDICTED BY RF-SCORE:    0.00 PKD
ROOT
HETATM    1  C   UNL     1      -9.403   7.963  68.725  1.00  0.00    -0.146 C  
HETATM    2  N   UNL     1     -10.105   6.672  68.292  1.00  0.00    -0.151 N  
HETATM    3  C   UNL     1      -9.050   5.588  68.124  1.00  0.00    -0.108 C  
HETATM    4  C   UNL     1     -10.801   6.934  66.961  1.00  0.00    -0.366 C  
ENDROOT
BRANCH   2   5
HETATM    5  C   UNL     1     -11.132   6.304  69.388  1.00  0.00    -0.410 C  
BRANCH   5   6
HETATM    6  C   UNL     1     -11.026   7.133  70.678  1.00  0.00    -0.258 C  
BRANCH   6   7
HETATM    7  O   UNL     1     -12.218   7.911  70.882  1.00  0.00    -0.243 OA 
BRANCH   7   8
HETATM    8  C   UNL     1     -12.510   8.156  72.181  1.00  0.00    -0.322 C  
HETATM    9  N   UNL     1     -11.650   7.504  72.988  1.00  0.00    -0.612 N  
HETATM   10  O   UNL     1     -13.412   8.882  72.567  1.00  0.00    -0.438 OA 
HETATM   11  H1  UNL     1     -11.869   7.688  73.967  1.00  0.00     0.000 HD 
HETATM   12  H2  UNL     1     -10.887   6.909  72.666  1.00  0.00     0.000 HD 
ENDBRANCH   7   8
ENDBRANCH   6   7
ENDBRANCH   5   6
ENDBRANCH   2   5
TORSDOF 4
ENDMDL
MODEL       91
REMARK 921   NORMALIZED FREE ENERGY PREDICTED BY IDOCK:   -2.31 KCAL/MOL
REMARK 922        TOTAL FREE ENERGY PREDICTED BY IDOCK:   -3.18 KCAL/MOL
REMARK 923 INTER-LIGAND FREE ENERGY PREDICTED BY IDOCK:   -3.08 KCAL/MOL
REMARK 924 INTRA-LIGAND FREE ENERGY PREDICTED BY IDOCK:   -0.10 KCAL/MOL
REMARK 927      BINDING AFFINITY PREDICTED BY RF-SCORE:    0.00 PKD
ROOT
HETATM    1  C   UNL     1     -10.327  14.476  65.259  1.00  0.00    -0.410 C  
HETATM    2  N   UNL     1     -11.410  13.396  65.176  1.00  0.00    -0.294 N  
HETATM    3  C   UNL     1     -11.267  12.677  63.842  1.00  0.00    -0.442 C  
HETATM    4  C   UNL     1     -12.770  14.082  65.256  1.00  0.00    -0.439 C  
ENDROOT
BRANCH   2   5
HETATM    5  C   UNL     1     -11.207  12.433  66.368  1.00  0.00    -0.319 C  
BRANCH   5   6
HETATM    6  C   UNL     1      -9.864  11.685  66.374  1.00  0.00    -0.207 C  
BRANCH   6   7
HETATM    7  O   UNL     1     -10.040  10.321  65.955  1.00  0.00    -0.246 OA 
BRANCH   7   8
HETATM    8  C   UNL     1      -8.946   9.768  65.380  1.00  0.00    -0.190 C  
HETATM    9  N   UNL     1      -9.208   8.508  64.981  1.00  0.00    -0.395 N  
HETATM   10  O   UNL     1      -7.878  10.339  65.225  1.00  0.00    -0.140 OA 
HETATM   11  H1  UNL     1      -8.384   8.092  64.547  1.00  0.00     0.000 HD 
HETATM   12  H2  UNL     1     -10.105   8.036  65.096  1.00  0.00     0.000 HD 
ENDBRANCH   7   8
ENDBRANCH   6   7
ENDBRANCH   5   6
ENDBRANCH   2   5
TORSDOF 4
ENDMDL
MODEL       92
REMARK 921   NORMALIZED FREE ENERGY PREDICTED BY IDOCK:   -2.28 KCAL/MOL
REMARK 922        TOTAL FREE ENERGY PREDICTED BY IDOCK:   -3.14 KCAL/MOL
REMARK 923 INTER-LIGAND FREE ENERGY PREDICTED BY IDOCK:   -3.06 KCAL/MOL
REMARK 924 INTRA-LIGAND FREE ENERGY PREDICTED BY IDOCK:   -0.09 KCAL/MOL
REMARK 927      BINDING AFFINITY PREDICTED BY RF-SCORE:    0.00 PKD
ROOT
HETATM    1  C   UNL     1      -6.814  16.132  69.084  1.00  0.00    -0.196 C  
HETATM    2  N   UNL     1      -7.407  17.255  68.228  1.00  0.00    -0.205 N  
HETATM    3  C   UNL     1      -7.194  16.902  66.763  1.00  0.00    -0.243 C  
HETATM    4  C   UNL     1      -6.671  18.547  68.565  1.00  0.00    -0.255 C  
ENDROOT
BRANCH   2   5
HETATM    5  C   UNL     1      -8.909  17.369  68.575  1.00  0.00    -0.277 C  
BRANCH   5   6
HETATM    6  C   UNL     1      -9.702  16.058  68.454  1.00  0.00    -0.213 C  
BRANCH   6   7
HETATM    7  O   UNL     1     -11.109  16.325  68.325  1.00  0.00    -0.341 OA 
BRANCH   7   8
HETATM    8  C   UNL     1     -11.900  15.538  69.092  1.00  0.00    -0.354 C  
HETATM    9  N   UNL     1     -12.370  14.499  68.374  1.00  0.00    -0.605 N  
HETATM   10  O   UNL     1     -12.136  15.730  70.274  1.00  0.00    -0.368 OA 
HETATM   11  H1  UNL     1     -12.965  13.906  68.952  1.00  0.00     0.000 HD 
HETATM   12  H2  UNL     1     -12.161  14.330  67.390  1.00  0.00     0.000 HD 
ENDBRANCH   7   8
ENDBRANCH   6   7
ENDBRANCH   5   6
ENDBRANCH   2   5
TORSDOF 4
ENDMDL
MODEL       93
REMARK 921   NORMALIZED FREE ENERGY PREDICTED BY IDOCK:   -2.25 KCAL/MOL
REMARK 922        TOTAL FREE ENERGY PREDICTED BY IDOCK:   -3.11 KCAL/MOL
REMARK 923 INTER-LIGAND FREE ENERGY PREDICTED BY IDOCK:   -2.93 KCAL/MOL
REMARK 924 INTRA-LIGAND FREE ENERGY PREDICTED BY IDOCK:   -0.18 KCAL/MOL
REMARK 927      BINDING AFFINITY PREDICTED BY RF-SCORE:    0.00 PKD
ROOT
HETATM    1  C   UNL     1     -11.716   9.890  71.132  1.00  0.00    -0.396 C  
HETATM    2  N   UNL     1     -10.525   8.947  70.933  1.00  0.00    -0.218 N  
HETATM    3  C   UNL     1     -11.015   7.705  70.203  1.00  0.00    -0.246 C  
HETATM    4  C   UNL     1      -9.988   8.566  72.309  1.00  0.00    -0.315 C  
ENDROOT
BRANCH   2   5
HETATM    5  C   UNL     1      -9.455   9.706  70.114  1.00  0.00    -0.253 C  
BRANCH   5   6
HETATM    6  C   UNL     1      -9.923  10.192  68.733  1.00  0.00    -0.179 C  
BRANCH   6   7
HETATM    7  O   UNL     1      -9.928  11.629  68.675  1.00  0.00    -0.209 OA 
BRANCH   7   8
HETATM    8  C   UNL     1     -11.096  12.166  68.249  1.00  0.00    -0.243 C  
HETATM    9  N   UNL     1     -11.000  13.509  68.179  1.00  0.00    -0.246 N  
HETATM   10  O   UNL     1     -12.089  11.524  67.950  1.00  0.00    -0.630 OA 
HETATM   11  H1  UNL     1     -11.879  13.914  67.857  1.00  0.00     0.000 HD 
HETATM   12  H2  UNL     1     -10.165  14.045  68.415  1.00  0.00     0.000 HD 
ENDBRANCH   7   8
ENDBRANCH   6   7
ENDBRANCH   5   6
ENDBRANCH   2   5
TORSDOF 4
ENDMDL
MODEL       94
REMARK 921   NORMALIZED FREE ENERGY PREDICTED BY IDOCK:   -2.24 KCAL/MOL
REMARK 922        TOTAL FREE ENERGY PREDICTED BY IDOCK:   -3.09 KCAL/MOL
REMARK 923 INTER-LIGAND FREE ENERGY PREDICTED BY IDOCK:   -2.96 KCAL/MOL
REMARK 924 INTRA-LIGAND FREE ENERGY PREDICTED BY IDOCK:   -0.13 KCAL/MOL
REMARK 927      BINDING AFFINITY PREDICTED BY RF-SCORE:    0.00 PKD
ROOT
HETATM    1  C   UNL     1     -10.037   4.778  66.723  1.00  0.00    -0.229 C  
HETATM    2  N   UNL     1      -9.777   5.415  68.092  1.00  0.00    -0.131 N  
HETATM    3  C   UNL     1      -8.546   6.303  67.980  1.00  0.00    -0.116 C  
HETATM    4  C   UNL     1      -9.522   4.294  69.095  1.00  0.00    -0.175 C  
ENDROOT
BRANCH   2   5
HETATM    5  C   UNL     1     -11.034   6.227  68.481  1.00  0.00    -0.340 C  
BRANCH   5   6
HETATM    6  C   UNL     1     -11.378   6.208  69.978  1.00  0.00    -0.373 C  
BRANCH   6   7
HETATM    7  O   UNL     1     -11.317   7.534  70.531  1.00  0.00    -0.275 OA 
BRANCH   7   8
HETATM    8  C   UNL     1     -12.293   7.811  71.428  1.00  0.00    -0.323 C  
HETATM    9  N   UNL     1     -13.485   7.369  70.979  1.00  0.00    -0.609 N  
HETATM   10  O   UNL     1     -12.116   8.364  72.501  1.00  0.00    -0.393 OA 
HETATM   11  H1  UNL     1     -14.220   7.578  71.654  1.00  0.00     0.000 HD 
HETATM   12  H2  UNL     1     -13.631   6.894  70.089  1.00  0.00     0.000 HD 
ENDBRANCH   7   8
ENDBRANCH   6   7
ENDBRANCH   5   6
ENDBRANCH   2   5
TORSDOF 4
ENDMDL
MODEL       95
REMARK 921   NORMALIZED FREE ENERGY PREDICTED BY IDOCK:   -2.24 KCAL/MOL
REMARK 922        TOTAL FREE ENERGY PREDICTED BY IDOCK:   -3.09 KCAL/MOL
REMARK 923 INTER-LIGAND FREE ENERGY PREDICTED BY IDOCK:   -3.01 KCAL/MOL
REMARK 924 INTRA-LIGAND FREE ENERGY PREDICTED BY IDOCK:   -0.08 KCAL/MOL
REMARK 927      BINDING AFFINITY PREDICTED BY RF-SCORE:    0.00 PKD
ROOT
HETATM    1  C   UNL     1     -10.417   8.703  67.537  1.00  0.00    -0.266 C  
HETATM    2  N   UNL     1     -10.120  10.030  68.243  1.00  0.00    -0.153 N  
HETATM    3  C   UNL     1     -11.269  10.988  67.961  1.00  0.00    -0.309 C  
HETATM    4  C   UNL     1      -8.822  10.590  67.672  1.00  0.00    -0.131 C  
ENDROOT
BRANCH   2   5
HETATM    5  C   UNL     1      -9.978   9.738  69.754  1.00  0.00    -0.236 C  
BRANCH   5   6
HETATM    6  C   UNL     1     -11.098   8.873  70.354  1.00  0.00    -0.239 C  
BRANCH   6   7
HETATM    7  O   UNL     1     -11.361   9.255  71.716  1.00  0.00    -0.369 OA 
BRANCH   7   8
HETATM    8  C   UNL     1     -11.863   8.261  72.487  1.00  0.00    -0.373 C  
HETATM    9  N   UNL     1     -13.208   8.240  72.412  1.00  0.00    -0.562 N  
HETATM   10  O   UNL     1     -11.190   7.481  73.141  1.00  0.00    -0.369 OA 
HETATM   11  H1  UNL     1     -13.586   7.491  72.992  1.00  0.00     0.000 HD 
HETATM   12  H2  UNL     1     -13.769   8.882  71.853  1.00  0.00     0.000 HD 
ENDBRANCH   7   8
ENDBRANCH   6   7
ENDBRANCH   5   6
ENDBRANCH   2   5
TORSDOF 4
ENDMDL
MODEL       96
REMARK 921   NORMALIZED FREE ENERGY PREDICTED BY IDOCK:   -2.23 KCAL/MOL
REMARK 922        TOTAL FREE ENERGY PREDICTED BY IDOCK:   -3.08 KCAL/MOL
REMARK 923 INTER-LIGAND FREE ENERGY PREDICTED BY IDOCK:   -2.98 KCAL/MOL
REMARK 924 INTRA-LIGAND FREE ENERGY PREDICTED BY IDOCK:   -0.10 KCAL/MOL
REMARK 927      BINDING AFFINITY PREDICTED BY RF-SCORE:    0.00 PKD
ROOT
HETATM    1  C   UNL     1     -10.488   7.411  68.570  1.00  0.00    -0.186 C  
HETATM    2  N   UNL     1      -9.870   8.105  69.788  1.00  0.00    -0.184 N  
HETATM    3  C   UNL     1      -8.359   8.134  69.606  1.00  0.00    -0.125 C  
HETATM    4  C   UNL     1     -10.230   7.293  71.028  1.00  0.00    -0.192 C  
ENDROOT
BRANCH   2   5
HETATM    5  C   UNL     1     -10.463   9.530  69.871  1.00  0.00    -0.240 C  
BRANCH   5   6
HETATM    6  C   UNL     1     -11.485   9.740  71.000  1.00  0.00    -0.383 C  
BRANCH   6   7
HETATM    7  O   UNL     1     -12.586  10.546  70.545  1.00  0.00    -0.331 OA 
BRANCH   7   8
HETATM    8  C   UNL     1     -12.709  11.735  71.183  1.00  0.00    -0.305 C  
HETATM    9  N   UNL     1     -12.031  12.695  70.524  1.00  0.00    -0.533 N  
HETATM   10  O   UNL     1     -13.358  11.915  72.200  1.00  0.00    -0.503 OA 
HETATM   11  H1  UNL     1     -12.123  13.590  71.004  1.00  0.00     0.000 HD 
HETATM   12  H2  UNL     1     -11.500  12.548  69.666  1.00  0.00     0.000 HD 
ENDBRANCH   7   8
ENDBRANCH   6   7
ENDBRANCH   5   6
ENDBRANCH   2   5
TORSDOF 4
ENDMDL
MODEL       97
REMARK 921   NORMALIZED FREE ENERGY PREDICTED BY IDOCK:   -2.22 KCAL/MOL
REMARK 922        TOTAL FREE ENERGY PREDICTED BY IDOCK:   -3.08 KCAL/MOL
REMARK 923 INTER-LIGAND FREE ENERGY PREDICTED BY IDOCK:   -3.03 KCAL/MOL
REMARK 924 INTRA-LIGAND FREE ENERGY PREDICTED BY IDOCK:   -0.05 KCAL/MOL
REMARK 927      BINDING AFFINITY PREDICTED BY RF-SCORE:    0.00 PKD
ROOT
HETATM    1  C   UNL     1      -7.777  15.781  69.184  1.00  0.00    -0.220 C  
HETATM    2  N   UNL     1      -9.075  16.366  68.619  1.00  0.00    -0.223 N  
HETATM    3  C   UNL     1     -10.162  16.224  69.675  1.00  0.00    -0.216 C  
HETATM    4  C   UNL     1      -9.451  15.569  67.374  1.00  0.00    -0.211 C  
ENDROOT
BRANCH   2   5
HETATM    5  C   UNL     1      -8.810  17.847  68.267  1.00  0.00    -0.275 C  
BRANCH   5   6
HETATM    6  C   UNL     1      -9.772  18.850  68.924  1.00  0.00    -0.366 C  
BRANCH   6   7
HETATM    7  O   UNL     1     -10.823  19.219  68.013  1.00  0.00    -0.316 OA 
BRANCH   7   8
HETATM    8  C   UNL     1     -10.387  19.678  66.816  1.00  0.00    -0.476 C  
HETATM    9  N   UNL     1     -10.771  18.849  65.825  1.00  0.00    -0.389 N  
HETATM   10  O   UNL     1      -9.755  20.709  66.654  1.00  0.00    -0.336 OA 
HETATM   11  H1  UNL     1     -10.443  19.195  64.923  1.00  0.00     0.000 HD 
HETATM   12  H2  UNL     1     -11.312  17.995  65.958  1.00  0.00     0.000 HD 
ENDBRANCH   7   8
ENDBRANCH   6   7
ENDBRANCH   5   6
ENDBRANCH   2   5
TORSDOF 4
ENDMDL
MODEL       98
REMARK 921   NORMALIZED FREE ENERGY PREDICTED BY IDOCK:   -2.22 KCAL/MOL
REMARK 922        TOTAL FREE ENERGY PREDICTED BY IDOCK:   -3.07 KCAL/MOL
REMARK 923 INTER-LIGAND FREE ENERGY PREDICTED BY IDOCK:   -2.86 KCAL/MOL
REMARK 924 INTRA-LIGAND FREE ENERGY PREDICTED BY IDOCK:   -0.21 KCAL/MOL
REMARK 927      BINDING AFFINITY PREDICTED BY RF-SCORE:    0.00 PKD
ROOT
HETATM    1  C   UNL     1     -10.870  17.576  65.812  1.00  0.00     0.012 C  
HETATM    2  N   UNL     1      -9.957  17.203  66.984  1.00  0.00    -0.277 N  
HETATM    3  C   UNL     1      -8.642  16.684  66.418  1.00  0.00    -0.310 C  
HETATM    4  C   UNL     1     -10.646  16.108  67.792  1.00  0.00    -0.309 C  
ENDROOT
BRANCH   2   5
HETATM    5  C   UNL     1      -9.747  18.472  67.841  1.00  0.00    -0.314 C  
BRANCH   5   6
HETATM    6  C   UNL     1      -9.534  19.766  67.039  1.00  0.00    -0.363 C  
BRANCH   6   7
HETATM    7  O   UNL     1      -8.417  20.508  67.559  1.00  0.00    -0.319 OA 
BRANCH   7   8
HETATM    8  C   UNL     1      -7.239  20.249  66.944  1.00  0.00    -0.270 C  
HETATM    9  N   UNL     1      -7.292  20.618  65.649  1.00  0.00    -0.518 N  
HETATM   10  O   UNL     1      -6.260  19.767  67.490  1.00  0.00    -0.192 OA 
HETATM   11  H1  UNL     1      -6.405  20.423  65.185  1.00  0.00     0.000 HD 
HETATM   12  H2  UNL     1      -8.106  21.034  65.196  1.00  0.00     0.000 HD 
ENDBRANCH   7   8
ENDBRANCH   6   7
ENDBRANCH   5   6
ENDBRANCH   2   5
TORSDOF 4
ENDMDL
MODEL       99
REMARK 921   NORMALIZED FREE ENERGY PREDICTED BY IDOCK:   -2.21 KCAL/MOL
REMARK 922        TOTAL FREE ENERGY PREDICTED BY IDOCK:   -3.06 KCAL/MOL
REMARK 923 INTER-LIGAND FREE ENERGY PREDICTED BY IDOCK:   -2.77 KCAL/MOL
REMARK 924 INTRA-LIGAND FREE ENERGY PREDICTED BY IDOCK:   -0.28 KCAL/MOL
REMARK 927      BINDING AFFINITY PREDICTED BY RF-SCORE:    0.00 PKD
ROOT
HETATM    1  C   UNL     1     -10.351  14.597  66.085  1.00  0.00    -0.300 C  
HETATM    2  N   UNL     1     -11.207  13.362  65.781  1.00  0.00    -0.289 N  
HETATM    3  C   UNL     1     -10.363  12.383  64.977  1.00  0.00    -0.293 C  
HETATM    4  C   UNL     1     -12.411  13.811  64.959  1.00  0.00    -0.428 C  
ENDROOT
BRANCH   2   5
HETATM    5  C   UNL     1     -11.655  12.756  67.131  1.00  0.00    -0.364 C  
BRANCH   5   6
HETATM    6  C   UNL     1     -10.701  13.020  68.306  1.00  0.00    -0.245 C  
BRANCH   6   7
HETATM    7  O   UNL     1      -9.734  11.962  68.424  1.00  0.00    -0.203 OA 
BRANCH   7   8
HETATM    8  C   UNL     1      -8.459  12.339  68.168  1.00  0.00    -0.176 C  
HETATM    9  N   UNL     1      -8.076  13.314  69.017  1.00  0.00    -0.329 N  
HETATM   10  O   UNL     1      -7.749  11.851  67.304  1.00  0.00    -0.147 OA 
HETATM   11  H1  UNL     1      -7.116  13.598  68.824  1.00  0.00     0.000 HD 
HETATM   12  H2  UNL     1      -8.664  13.712  69.749  1.00  0.00     0.000 HD 
ENDBRANCH   7   8
ENDBRANCH   6   7
ENDBRANCH   5   6
ENDBRANCH   2   5
TORSDOF 4
ENDMDL
MODEL      100
REMARK 921   NORMALIZED FREE ENERGY PREDICTED BY IDOCK:   -2.20 KCAL/MOL
REMARK 922        TOTAL FREE ENERGY PREDICTED BY IDOCK:   -3.05 KCAL/MOL
REMARK 923 INTER-LIGAND FREE ENERGY PREDICTED BY IDOCK:   -2.81 KCAL/MOL
REMARK 924 INTRA-LIGAND FREE ENERGY PREDICTED BY IDOCK:   -0.24 KCAL/MOL
REMARK 927      BINDING AFFINITY PREDICTED BY RF-SCORE:    0.00 PKD
ROOT
HETATM    1  C   UNL     1      -9.347  18.776  68.484  1.00  0.00    -0.350 C  
HETATM    2  N   UNL     1      -9.494  17.767  67.340  1.00  0.00    -0.251 N  
HETATM    3  C   UNL     1     -10.289  18.426  66.222  1.00  0.00    -0.415 C  
HETATM    4  C   UNL     1     -10.250  16.554  67.873  1.00  0.00    -0.273 C  
ENDROOT
BRANCH   2   5
HETATM    5  C   UNL     1      -8.074  17.372  66.876  1.00  0.00    -0.227 C  
BRANCH   5   6
HETATM    6  C   UNL     1      -7.406  18.371  65.918  1.00  0.00    -0.203 C  
BRANCH   6   7
HETATM    7  O   UNL     1      -6.361  19.098  66.588  1.00  0.00    -0.185 OA 
BRANCH   7   8
HETATM    8  C   UNL     1      -6.355  20.428  66.336  1.00  0.00    -0.208 C  
HETATM    9  N   UNL     1      -7.353  20.752  65.490  1.00  0.00    -0.476 N  
HETATM   10  O   UNL     1      -5.570  21.225  66.824  1.00  0.00    -0.224 OA 
HETATM   11  H1  UNL     1      -7.349  21.754  65.300  1.00  0.00     0.000 HD 
HETATM   12  H2  UNL     1      -8.018  20.088  65.094  1.00  0.00     0.000 HD 
ENDBRANCH   7   8
ENDBRANCH   6   7
ENDBRANCH   5   6
ENDBRANCH   2   5
TORSDOF 4
ENDMDL
MODEL      101
REMARK 921   NORMALIZED FREE ENERGY PREDICTED BY IDOCK:   -2.18 KCAL/MOL
REMARK 922        TOTAL FREE ENERGY PREDICTED BY IDOCK:   -3.03 KCAL/MOL
REMARK 923 INTER-LIGAND FREE ENERGY PREDICTED BY IDOCK:   -2.86 KCAL/MOL
REMARK 924 INTRA-LIGAND FREE ENERGY PREDICTED BY IDOCK:   -0.17 KCAL/MOL
REMARK 927      BINDING AFFINITY PREDICTED BY RF-SCORE:    0.00 PKD
ROOT
HETATM    1  C   UNL     1      -5.834  16.109  69.374  1.00  0.00    -0.141 C  
HETATM    2  N   UNL     1      -6.458  17.165  68.457  1.00  0.00    -0.158 N  
HETATM    3  C   UNL     1      -6.200  16.756  67.013  1.00  0.00    -0.186 C  
HETATM    4  C   UNL     1      -5.786  18.503  68.748  1.00  0.00    -0.206 C  
ENDROOT
BRANCH   2   5
HETATM    5  C   UNL     1      -7.970  17.227  68.770  1.00  0.00    -0.250 C  
BRANCH   5   6
HETATM    6  C   UNL     1      -8.841  17.808  67.644  1.00  0.00    -0.248 C  
BRANCH   6   7
HETATM    7  O   UNL     1      -9.106  19.203  67.874  1.00  0.00    -0.289 OA 
BRANCH   7   8
HETATM    8  C   UNL     1      -9.401  19.907  66.756  1.00  0.00    -0.384 C  
HETATM    9  N   UNL     1      -8.277  20.407  66.204  1.00  0.00    -0.542 N  
HETATM   10  O   UNL     1     -10.523  20.052  66.301  1.00  0.00    -0.454 OA 
HETATM   11  H1  UNL     1      -8.499  20.937  65.361  1.00  0.00     0.000 HD 
HETATM   12  H2  UNL     1      -7.337  20.274  66.576  1.00  0.00     0.000 HD 
ENDBRANCH   7   8
ENDBRANCH   6   7
ENDBRANCH   5   6
ENDBRANCH   2   5
TORSDOF 4
ENDMDL
MODEL      102
REMARK 921   NORMALIZED FREE ENERGY PREDICTED BY IDOCK:   -2.17 KCAL/MOL
REMARK 922        TOTAL FREE ENERGY PREDICTED BY IDOCK:   -3.01 KCAL/MOL
REMARK 923 INTER-LIGAND FREE ENERGY PREDICTED BY IDOCK:   -2.83 KCAL/MOL
REMARK 924 INTRA-LIGAND FREE ENERGY PREDICTED BY IDOCK:   -0.18 KCAL/MOL
REMARK 927      BINDING AFFINITY PREDICTED BY RF-SCORE:    0.00 PKD
ROOT
HETATM    1  C   UNL     1      -6.691  16.880  69.186  1.00  0.00    -0.232 C  
HETATM    2  N   UNL     1      -6.552  18.042  68.197  1.00  0.00    -0.195 N  
HETATM    3  C   UNL     1      -6.294  17.462  66.813  1.00  0.00    -0.202 C  
HETATM    4  C   UNL     1      -5.366  18.896  68.633  1.00  0.00    -0.196 C  
ENDROOT
BRANCH   2   5
HETATM    5  C   UNL     1      -7.864  18.857  68.239  1.00  0.00    -0.308 C  
BRANCH   5   6
HETATM    6  C   UNL     1      -9.071  18.109  68.828  1.00  0.00    -0.224 C  
BRANCH   6   7
HETATM    7  O   UNL     1     -10.256  18.367  68.056  1.00  0.00    -0.346 OA 
BRANCH   7   8
HETATM    8  C   UNL     1     -10.445  17.514  67.021  1.00  0.00    -0.293 C  
HETATM    9  N   UNL     1     -10.726  16.276  67.476  1.00  0.00    -0.316 N  
HETATM   10  O   UNL     1     -10.390  17.826  65.843  1.00  0.00    -0.517 OA 
HETATM   11  H1  UNL     1     -10.869  15.634  66.697  1.00  0.00     0.000 HD 
HETATM   12  H2  UNL     1     -10.787  16.019  68.461  1.00  0.00     0.000 HD 
ENDBRANCH   7   8
ENDBRANCH   6   7
ENDBRANCH   5   6
ENDBRANCH   2   5
TORSDOF 4
ENDMDL
MODEL      103
REMARK 921   NORMALIZED FREE ENERGY PREDICTED BY IDOCK:   -2.17 KCAL/MOL
REMARK 922        TOTAL FREE ENERGY PREDICTED BY IDOCK:   -3.00 KCAL/MOL
REMARK 923 INTER-LIGAND FREE ENERGY PREDICTED BY IDOCK:   -2.88 KCAL/MOL
REMARK 924 INTRA-LIGAND FREE ENERGY PREDICTED BY IDOCK:   -0.12 KCAL/MOL
REMARK 927      BINDING AFFINITY PREDICTED BY RF-SCORE:    0.00 PKD
ROOT
HETATM    1  C   UNL     1     -12.043  14.198  64.186  1.00  0.00    -0.406 C  
HETATM    2  N   UNL     1     -11.730  12.716  64.416  1.00  0.00    -0.346 N  
HETATM    3  C   UNL     1     -10.349  12.426  63.846  1.00  0.00    -0.423 C  
HETATM    4  C   UNL     1     -12.782  11.890  63.682  1.00  0.00    -0.390 C  
ENDROOT
BRANCH   2   5
HETATM    5  C   UNL     1     -11.786  12.454  65.938  1.00  0.00    -0.419 C  
BRANCH   5   6
HETATM    6  C   UNL     1     -10.434  12.557  66.662  1.00  0.00    -0.233 C  
BRANCH   6   7
HETATM    7  O   UNL     1     -10.466  11.834  67.905  1.00  0.00    -0.188 OA 
BRANCH   7   8
HETATM    8  C   UNL     1      -9.416  11.000  68.094  1.00  0.00    -0.172 C  
HETATM    9  N   UNL     1      -8.869  10.656  66.912  1.00  0.00    -0.137 N  
HETATM   10  O   UNL     1      -9.010  10.629  69.183  1.00  0.00    -0.170 OA 
HETATM   11  H1  UNL     1      -8.078  10.029  67.054  1.00  0.00     0.000 HD 
HETATM   12  H2  UNL     1      -9.199  10.979  66.002  1.00  0.00     0.000 HD 
ENDBRANCH   7   8
ENDBRANCH   6   7
ENDBRANCH   5   6
ENDBRANCH   2   5
TORSDOF 4
ENDMDL
MODEL      104
REMARK 921   NORMALIZED FREE ENERGY PREDICTED BY IDOCK:   -2.16 KCAL/MOL
REMARK 922        TOTAL FREE ENERGY PREDICTED BY IDOCK:   -3.00 KCAL/MOL
REMARK 923 INTER-LIGAND FREE ENERGY PREDICTED BY IDOCK:   -2.89 KCAL/MOL
REMARK 924 INTRA-LIGAND FREE ENERGY PREDICTED BY IDOCK:   -0.10 KCAL/MOL
REMARK 927      BINDING AFFINITY PREDICTED BY RF-SCORE:    0.00 PKD
ROOT
HETATM    1  C   UNL     1     -11.451   5.843  72.603  1.00  0.00    -0.272 C  
HETATM    2  N   UNL     1     -12.072   6.889  71.672  1.00  0.00    -0.335 N  
HETATM    3  C   UNL     1     -11.575   8.264  72.099  1.00  0.00    -0.364 C  
HETATM    4  C   UNL     1     -13.588   6.814  71.819  1.00  0.00    -0.059 C  
ENDROOT
BRANCH   2   5
HETATM    5  C   UNL     1     -11.640   6.550  70.227  1.00  0.00    -0.409 C  
BRANCH   5   6
HETATM    6  C   UNL     1     -10.479   7.397  69.683  1.00  0.00    -0.232 C  
BRANCH   6   7
HETATM    7  O   UNL     1      -9.846   6.739  68.572  1.00  0.00    -0.138 OA 
BRANCH   7   8
HETATM    8  C   UNL     1     -10.560   6.775  67.422  1.00  0.00    -0.302 C  
HETATM    9  N   UNL     1     -10.896   8.044  67.114  1.00  0.00    -0.484 N  
HETATM   10  O   UNL     1     -10.842   5.798  66.747  1.00  0.00    -0.298 OA 
HETATM   11  H1  UNL     1     -11.433   8.071  66.248  1.00  0.00     0.000 HD 
HETATM   12  H2  UNL     1     -10.648   8.862  67.671  1.00  0.00     0.000 HD 
ENDBRANCH   7   8
ENDBRANCH   6   7
ENDBRANCH   5   6
ENDBRANCH   2   5
TORSDOF 4
ENDMDL
MODEL      105
REMARK 921   NORMALIZED FREE ENERGY PREDICTED BY IDOCK:   -2.15 KCAL/MOL
REMARK 922        TOTAL FREE ENERGY PREDICTED BY IDOCK:   -2.99 KCAL/MOL
REMARK 923 INTER-LIGAND FREE ENERGY PREDICTED BY IDOCK:   -2.88 KCAL/MOL
REMARK 924 INTRA-LIGAND FREE ENERGY PREDICTED BY IDOCK:   -0.11 KCAL/MOL
REMARK 927      BINDING AFFINITY PREDICTED BY RF-SCORE:    0.00 PKD
ROOT
HETATM    1  C   UNL     1     -10.958   7.662  72.974  1.00  0.00    -0.400 C  
HETATM    2  N   UNL     1     -11.780   8.275  71.836  1.00  0.00    -0.299 N  
HETATM    3  C   UNL     1     -13.123   8.717  72.401  1.00  0.00    -0.391 C  
HETATM    4  C   UNL     1     -11.989   7.203  70.772  1.00  0.00    -0.310 C  
ENDROOT
BRANCH   2   5
HETATM    5  C   UNL     1     -10.980   9.469  71.267  1.00  0.00    -0.370 C  
BRANCH   5   6
HETATM    6  C   UNL     1     -11.217   9.753  69.775  1.00  0.00    -0.202 C  
BRANCH   6   7
HETATM    7  O   UNL     1     -10.091  10.443  69.203  1.00  0.00    -0.200 OA 
BRANCH   7   8
HETATM    8  C   UNL     1     -10.032  10.390  67.852  1.00  0.00    -0.167 C  
HETATM    9  N   UNL     1     -11.003   9.589  67.368  1.00  0.00    -0.393 N  
HETATM   10  O   UNL     1      -9.226  10.997  67.166  1.00  0.00    -0.152 OA 
HETATM   11  H1  UNL     1     -10.958   9.550  66.350  1.00  0.00     0.000 HD 
HETATM   12  H2  UNL     1     -11.686   9.093  67.940  1.00  0.00     0.000 HD 
ENDBRANCH   7   8
ENDBRANCH   6   7
ENDBRANCH   5   6
ENDBRANCH   2   5
TORSDOF 4
ENDMDL
MODEL      106
REMARK 921   NORMALIZED FREE ENERGY PREDICTED BY IDOCK:   -2.13 KCAL/MOL
REMARK 922        TOTAL FREE ENERGY PREDICTED BY IDOCK:   -2.97 KCAL/MOL
REMARK 923 INTER-LIGAND FREE ENERGY PREDICTED BY IDOCK:   -2.66 KCAL/MOL
REMARK 924 INTRA-LIGAND FREE ENERGY PREDICTED BY IDOCK:   -0.31 KCAL/MOL
REMARK 927      BINDING AFFINITY PREDICTED BY RF-SCORE:    0.00 PKD
ROOT
HETATM    1  C   UNL     1      -8.503   7.095  72.220  1.00  0.00    -0.116 C  
HETATM    2  N   UNL     1      -9.182   6.085  73.151  1.00  0.00    -0.133 N  
HETATM    3  C   UNL     1      -8.218   5.756  74.283  1.00  0.00    -0.103 C  
HETATM    4  C   UNL     1      -9.487   4.827  72.344  1.00  0.00    -0.134 C  
ENDROOT
BRANCH   2   5
HETATM    5  C   UNL     1     -10.483   6.730  73.679  1.00  0.00    -0.347 C  
BRANCH   5   6
HETATM    6  C   UNL     1     -11.017   7.895  72.830  1.00  0.00    -0.393 C  
BRANCH   6   7
HETATM    7  O   UNL     1     -12.095   7.455  71.984  1.00  0.00    -0.291 OA 
BRANCH   7   8
HETATM    8  C   UNL     1     -11.764   7.330  70.677  1.00  0.00    -0.275 C  
HETATM    9  N   UNL     1     -11.480   8.536  70.146  1.00  0.00    -0.462 N  
HETATM   10  O   UNL     1     -11.709   6.273  70.071  1.00  0.00    -0.408 OA 
HETATM   11  H1  UNL     1     -11.230   8.442  69.161  1.00  0.00     0.000 HD 
HETATM   12  H2  UNL     1     -11.510   9.418  70.656  1.00  0.00     0.000 HD 
ENDBRANCH   7   8
ENDBRANCH   6   7
ENDBRANCH   5   6
ENDBRANCH   2   5
TORSDOF 4
ENDMDL
MODEL      107
REMARK 921   NORMALIZED FREE ENERGY PREDICTED BY IDOCK:   -2.13 KCAL/MOL
REMARK 922        TOTAL FREE ENERGY PREDICTED BY IDOCK:   -2.97 KCAL/MOL
REMARK 923 INTER-LIGAND FREE ENERGY PREDICTED BY IDOCK:   -2.80 KCAL/MOL
REMARK 924 INTRA-LIGAND FREE ENERGY PREDICTED BY IDOCK:   -0.17 KCAL/MOL
REMARK 927      BINDING AFFINITY PREDICTED BY RF-SCORE:    0.00 PKD
ROOT
HETATM    1  C   UNL     1      -5.489  20.872  68.933  1.00  0.00    -0.362 C  
HETATM    2  N   UNL     1      -6.064  20.441  67.580  1.00  0.00    -0.215 N  
HETATM    3  C   UNL     1      -5.677  18.989  67.337  1.00  0.00    -0.168 C  
HETATM    4  C   UNL     1      -5.455  21.331  66.501  1.00  0.00    -0.258 C  
ENDROOT
BRANCH   2   5
HETATM    5  C   UNL     1      -7.598  20.621  67.641  1.00  0.00    -0.241 C  
BRANCH   5   6
HETATM    6  C   UNL     1      -8.409  19.344  67.369  1.00  0.00    -0.292 C  
BRANCH   6   7
HETATM    7  O   UNL     1      -9.294  19.060  68.467  1.00  0.00    -0.341 OA 
BRANCH   7   8
HETATM    8  C   UNL     1      -9.608  17.750  68.606  1.00  0.00    -0.322 C  
HETATM    9  N   UNL     1      -8.490  17.004  68.701  1.00  0.00    -0.259 N  
HETATM   10  O   UNL     1     -10.745  17.310  68.659  1.00  0.00    -0.340 OA 
HETATM   11  H1  UNL     1      -8.727  16.017  68.806  1.00  0.00     0.000 HD 
HETATM   12  H2  UNL     1      -7.540  17.374  68.672  1.00  0.00     0.000 HD 
ENDBRANCH   7   8
ENDBRANCH   6   7
ENDBRANCH   5   6
ENDBRANCH   2   5
TORSDOF 4
ENDMDL
MODEL      108
REMARK 921   NORMALIZED FREE ENERGY PREDICTED BY IDOCK:   -2.13 KCAL/MOL
REMARK 922        TOTAL FREE ENERGY PREDICTED BY IDOCK:   -2.96 KCAL/MOL
REMARK 923 INTER-LIGAND FREE ENERGY PREDICTED BY IDOCK:   -2.73 KCAL/MOL
REMARK 924 INTRA-LIGAND FREE ENERGY PREDICTED BY IDOCK:   -0.24 KCAL/MOL
REMARK 927      BINDING AFFINITY PREDICTED BY RF-SCORE:    0.00 PKD
ROOT
HETATM    1  C   UNL     1     -10.355   8.450  72.308  1.00  0.00    -0.333 C  
HETATM    2  N   UNL     1     -11.460   8.587  71.256  1.00  0.00    -0.266 N  
HETATM    3  C   UNL     1     -11.657  10.068  70.960  1.00  0.00    -0.393 C  
HETATM    4  C   UNL     1     -12.742   7.997  71.836  1.00  0.00    -0.327 C  
ENDROOT
BRANCH   2   5
HETATM    5  C   UNL     1     -11.014   7.808  69.998  1.00  0.00    -0.214 C  
BRANCH   5   6
HETATM    6  C   UNL     1     -11.525   6.360  69.920  1.00  0.00    -0.415 C  
BRANCH   6   7
HETATM    7  O   UNL     1     -10.430   5.444  69.740  1.00  0.00    -0.284 OA 
BRANCH   7   8
HETATM    8  C   UNL     1      -9.714   5.202  70.863  1.00  0.00    -0.188 C  
HETATM    9  N   UNL     1     -10.535   4.925  71.895  1.00  0.00    -0.192 N  
HETATM   10  O   UNL     1      -8.495   5.214  70.926  1.00  0.00    -0.114 OA 
HETATM   11  H1  UNL     1      -9.995   4.742  72.741  1.00  0.00     0.000 HD 
HETATM   12  H2  UNL     1     -11.553   4.900  71.838  1.00  0.00     0.000 HD 
ENDBRANCH   7   8
ENDBRANCH   6   7
ENDBRANCH   5   6
ENDBRANCH   2   5
TORSDOF 4
ENDMDL
MODEL      109
REMARK 921   NORMALIZED FREE ENERGY PREDICTED BY IDOCK:   -2.11 KCAL/MOL
REMARK 922        TOTAL FREE ENERGY PREDICTED BY IDOCK:   -2.94 KCAL/MOL
REMARK 923 INTER-LIGAND FREE ENERGY PREDICTED BY IDOCK:   -2.83 KCAL/MOL
REMARK 924 INTRA-LIGAND FREE ENERGY PREDICTED BY IDOCK:   -0.11 KCAL/MOL
REMARK 927      BINDING AFFINITY PREDICTED BY RF-SCORE:    0.00 PKD
ROOT
HETATM    1  C   UNL     1     -10.669   5.841  70.040  1.00  0.00    -0.330 C  
HETATM    2  N   UNL     1     -10.682   6.913  71.135  1.00  0.00    -0.223 N  
HETATM    3  C   UNL     1      -9.253   7.120  71.618  1.00  0.00    -0.144 C  
HETATM    4  C   UNL     1     -11.552   6.407  72.282  1.00  0.00    -0.299 C  
ENDROOT
BRANCH   2   5
HETATM    5  C   UNL     1     -11.271   8.204  70.524  1.00  0.00    -0.247 C  
BRANCH   5   6
HETATM    6  C   UNL     1     -10.454   8.803  69.368  1.00  0.00    -0.222 C  
BRANCH   6   7
HETATM    7  O   UNL     1     -10.618  10.231  69.316  1.00  0.00    -0.200 OA 
BRANCH   7   8
HETATM    8  C   UNL     1     -11.245  10.681  68.203  1.00  0.00    -0.302 C  
HETATM    9  N   UNL     1     -10.614  10.241  67.096  1.00  0.00    -0.261 N  
HETATM   10  O   UNL     1     -12.251  11.371  68.202  1.00  0.00    -0.602 OA 
HETATM   11  H1  UNL     1     -11.086  10.580  66.258  1.00  0.00     0.000 HD 
HETATM   12  H2  UNL     1      -9.781   9.653  67.097  1.00  0.00     0.000 HD 
ENDBRANCH   7   8
ENDBRANCH   6   7
ENDBRANCH   5   6
ENDBRANCH   2   5
TORSDOF 4
ENDMDL
MODEL      110
REMARK 921   NORMALIZED FREE ENERGY PREDICTED BY IDOCK:   -2.11 KCAL/MOL
REMARK 922        TOTAL FREE ENERGY PREDICTED BY IDOCK:   -2.93 KCAL/MOL
REMARK 923 INTER-LIGAND FREE ENERGY PREDICTED BY IDOCK:   -2.80 KCAL/MOL
REMARK 924 INTRA-LIGAND FREE ENERGY PREDICTED BY IDOCK:   -0.13 KCAL/MOL
REMARK 927      BINDING AFFINITY PREDICTED BY RF-SCORE:    0.00 PKD
ROOT
HETATM    1  C   UNL     1      -8.868   9.790  68.502  1.00  0.00    -0.121 C  
HETATM    2  N   UNL     1      -9.241  10.353  67.127  1.00  0.00    -0.142 N  
HETATM    3  C   UNL     1      -8.883   9.315  66.073  1.00  0.00    -0.160 C  
HETATM    4  C   UNL     1      -8.431  11.626  66.901  1.00  0.00    -0.168 C  
ENDROOT
BRANCH   2   5
HETATM    5  C   UNL     1     -10.756  10.658  67.138  1.00  0.00    -0.272 C  
BRANCH   5   6
HETATM    6  C   UNL     1     -11.217  11.607  68.256  1.00  0.00    -0.260 C  
BRANCH   6   7
HETATM    7  O   UNL     1     -12.367  11.072  68.934  1.00  0.00    -0.516 OA 
BRANCH   7   8
HETATM    8  C   UNL     1     -12.384  11.299  70.269  1.00  0.00    -0.307 C  
HETATM    9  N   UNL     1     -11.665  12.399  70.569  1.00  0.00    -0.487 N  
HETATM   10  O   UNL     1     -12.983  10.616  71.083  1.00  0.00    -0.365 OA 
HETATM   11  H1  UNL     1     -11.678  12.571  71.574  1.00  0.00     0.000 HD 
HETATM   12  H2  UNL     1     -11.177  12.979  69.887  1.00  0.00     0.000 HD 
ENDBRANCH   7   8
ENDBRANCH   6   7
ENDBRANCH   5   6
ENDBRANCH   2   5
TORSDOF 4
ENDMDL
MODEL      111
REMARK 921   NORMALIZED FREE ENERGY PREDICTED BY IDOCK:   -2.09 KCAL/MOL
REMARK 922        TOTAL FREE ENERGY PREDICTED BY IDOCK:   -2.91 KCAL/MOL
REMARK 923 INTER-LIGAND FREE ENERGY PREDICTED BY IDOCK:   -3.14 KCAL/MOL
REMARK 924 INTRA-LIGAND FREE ENERGY PREDICTED BY IDOCK:    0.24 KCAL/MOL
REMARK 927      BINDING AFFINITY PREDICTED BY RF-SCORE:    0.00 PKD
ROOT
HETATM    1  C   UNL     1      -9.708  13.060  68.298  1.00  0.00    -0.221 C  
HETATM    2  N   UNL     1     -11.216  13.316  68.393  1.00  0.00    -0.263 N  
HETATM    3  C   UNL     1     -11.697  13.841  67.047  1.00  0.00    -0.390 C  
HETATM    4  C   UNL     1     -11.451  14.364  69.476  1.00  0.00    -0.288 C  
ENDROOT
BRANCH   2   5
HETATM    5  C   UNL     1     -11.899  11.979  68.761  1.00  0.00    -0.302 C  
BRANCH   5   6
HETATM    6  C   UNL     1     -10.940  10.792  68.941  1.00  0.00    -0.241 C  
BRANCH   6   7
HETATM    7  O   UNL     1     -10.978  10.307  70.295  1.00  0.00    -0.286 OA 
BRANCH   7   8
HETATM    8  C   UNL     1     -12.171  10.473  70.914  1.00  0.00    -0.388 C  
HETATM    9  N   UNL     1     -12.969   9.410  70.693  1.00  0.00    -0.518 N  
HETATM   10  O   UNL     1     -12.473  11.440  71.594  1.00  0.00    -0.247 OA 
HETATM   11  H1  UNL     1     -13.867   9.535  71.159  1.00  0.00     0.000 HD 
HETATM   12  H2  UNL     1     -12.711   8.595  70.137  1.00  0.00     0.000 HD 
ENDBRANCH   7   8
ENDBRANCH   6   7
ENDBRANCH   5   6
ENDBRANCH   2   5
TORSDOF 4
ENDMDL
MODEL      112
REMARK 921   NORMALIZED FREE ENERGY PREDICTED BY IDOCK:   -2.07 KCAL/MOL
REMARK 922        TOTAL FREE ENERGY PREDICTED BY IDOCK:   -2.88 KCAL/MOL
REMARK 923 INTER-LIGAND FREE ENERGY PREDICTED BY IDOCK:   -2.77 KCAL/MOL
REMARK 924 INTRA-LIGAND FREE ENERGY PREDICTED BY IDOCK:   -0.12 KCAL/MOL
REMARK 927      BINDING AFFINITY PREDICTED BY RF-SCORE:    0.00 PKD
ROOT
HETATM    1  C   UNL     1     -10.404  11.004  68.883  1.00  0.00    -0.205 C  
HETATM    2  N   UNL     1      -9.537  10.190  67.918  1.00  0.00    -0.148 N  
HETATM    3  C   UNL     1     -10.296   8.923  67.547  1.00  0.00    -0.263 C  
HETATM    4  C   UNL     1      -8.240   9.829  68.636  1.00  0.00    -0.106 C  
ENDROOT
BRANCH   2   5
HETATM    5  C   UNL     1      -9.255  11.070  66.680  1.00  0.00    -0.167 C  
BRANCH   5   6
HETATM    6  C   UNL     1     -10.507  11.626  65.983  1.00  0.00    -0.251 C  
BRANCH   6   7
HETATM    7  O   UNL     1     -10.417  13.054  65.839  1.00  0.00    -0.272 OA 
BRANCH   7   8
HETATM    8  C   UNL     1     -10.692  13.508  64.593  1.00  0.00    -0.416 C  
HETATM    9  N   UNL     1     -10.424  14.826  64.501  1.00  0.00    -0.505 N  
HETATM   10  O   UNL     1     -11.104  12.816  63.676  1.00  0.00    -0.432 OA 
HETATM   11  H1  UNL     1     -10.630  15.167  63.562  1.00  0.00     0.000 HD 
HETATM   12  H2  UNL     1     -10.064  15.400  65.263  1.00  0.00     0.000 HD 
ENDBRANCH   7   8
ENDBRANCH   6   7
ENDBRANCH   5   6
ENDBRANCH   2   5
TORSDOF 4
ENDMDL
MODEL      113
REMARK 921   NORMALIZED FREE ENERGY PREDICTED BY IDOCK:   -2.07 KCAL/MOL
REMARK 922        TOTAL FREE ENERGY PREDICTED BY IDOCK:   -2.88 KCAL/MOL
REMARK 923 INTER-LIGAND FREE ENERGY PREDICTED BY IDOCK:   -3.02 KCAL/MOL
REMARK 924 INTRA-LIGAND FREE ENERGY PREDICTED BY IDOCK:    0.14 KCAL/MOL
REMARK 927      BINDING AFFINITY PREDICTED BY RF-SCORE:    0.00 PKD
ROOT
HETATM    1  C   UNL     1      -8.245  15.842  69.124  1.00  0.00    -0.240 C  
HETATM    2  N   UNL     1      -7.472  16.707  68.123  1.00  0.00    -0.164 N  
HETATM    3  C   UNL     1      -6.000  16.684  68.508  1.00  0.00    -0.125 C  
HETATM    4  C   UNL     1      -8.012  18.131  68.210  1.00  0.00    -0.295 C  
ENDROOT
BRANCH   2   5
HETATM    5  C   UNL     1      -7.703  16.116  66.713  1.00  0.00    -0.253 C  
BRANCH   5   6
HETATM    6  C   UNL     1      -9.113  16.337  66.142  1.00  0.00    -0.341 C  
BRANCH   6   7
HETATM    7  O   UNL     1     -10.050  15.419  66.732  1.00  0.00    -0.252 OA 
BRANCH   7   8
HETATM    8  C   UNL     1     -11.004  14.972  65.882  1.00  0.00    -0.343 C  
HETATM    9  N   UNL     1     -10.674  15.263  64.607  1.00  0.00    -0.612 N  
HETATM   10  O   UNL     1     -12.012  14.372  66.220  1.00  0.00    -0.396 OA 
HETATM   11  H1  UNL     1     -11.393  14.926  63.967  1.00  0.00     0.000 HD 
HETATM   12  H2  UNL     1      -9.825  15.752  64.324  1.00  0.00     0.000 HD 
ENDBRANCH   7   8
ENDBRANCH   6   7
ENDBRANCH   5   6
ENDBRANCH   2   5
TORSDOF 4
ENDMDL
MODEL      114
REMARK 921   NORMALIZED FREE ENERGY PREDICTED BY IDOCK:   -2.07 KCAL/MOL
REMARK 922        TOTAL FREE ENERGY PREDICTED BY IDOCK:   -2.88 KCAL/MOL
REMARK 923 INTER-LIGAND FREE ENERGY PREDICTED BY IDOCK:   -2.77 KCAL/MOL
REMARK 924 INTRA-LIGAND FREE ENERGY PREDICTED BY IDOCK:   -0.12 KCAL/MOL
REMARK 927      BINDING AFFINITY PREDICTED BY RF-SCORE:    0.00 PKD
ROOT
HETATM    1  C   UNL     1      -8.400   8.827  63.905  1.00  0.00    -0.141 C  
HETATM    2  N   UNL     1      -8.568   9.540  65.250  1.00  0.00    -0.146 N  
HETATM    3  C   UNL     1      -7.226   9.529  65.968  1.00  0.00    -0.093 C  
HETATM    4  C   UNL     1      -9.603   8.773  66.067  1.00  0.00    -0.226 C  
ENDROOT
BRANCH   2   5
HETATM    5  C   UNL     1      -9.050  10.981  64.963  1.00  0.00    -0.164 C  
BRANCH   5   6
HETATM    6  C   UNL     1     -10.255  11.082  64.015  1.00  0.00    -0.358 C  
BRANCH   6   7
HETATM    7  O   UNL     1     -11.451  11.411  64.745  1.00  0.00    -0.145 OA 
BRANCH   7   8
HETATM    8  C   UNL     1     -12.208  12.376  64.171  1.00  0.00    -0.468 C  
HETATM    9  N   UNL     1     -12.105  13.529  64.861  1.00  0.00    -0.377 N  
HETATM   10  O   UNL     1     -12.874  12.228  63.159  1.00  0.00    -0.646 OA 
HETATM   11  H1  UNL     1     -12.675  14.255  64.429  1.00  0.00     0.000 HD 
HETATM   12  H2  UNL     1     -11.536  13.656  65.698  1.00  0.00     0.000 HD 
ENDBRANCH   7   8
ENDBRANCH   6   7
ENDBRANCH   5   6
ENDBRANCH   2   5
TORSDOF 4
ENDMDL
MODEL      115
REMARK 921   NORMALIZED FREE ENERGY PREDICTED BY IDOCK:   -2.06 KCAL/MOL
REMARK 922        TOTAL FREE ENERGY PREDICTED BY IDOCK:   -2.87 KCAL/MOL
REMARK 923 INTER-LIGAND FREE ENERGY PREDICTED BY IDOCK:   -2.78 KCAL/MOL
REMARK 924 INTRA-LIGAND FREE ENERGY PREDICTED BY IDOCK:   -0.09 KCAL/MOL
REMARK 927      BINDING AFFINITY PREDICTED BY RF-SCORE:    0.00 PKD
ROOT
HETATM    1  C   UNL     1     -10.419  13.404  65.425  1.00  0.00    -0.302 C  
HETATM    2  N   UNL     1     -11.674  13.611  66.279  1.00  0.00    -0.349 N  
HETATM    3  C   UNL     1     -12.865  13.777  65.345  1.00  0.00    -0.410 C  
HETATM    4  C   UNL     1     -11.480  14.878  67.106  1.00  0.00    -0.335 C  
ENDROOT
BRANCH   2   5
HETATM    5  C   UNL     1     -11.833  12.375  67.193  1.00  0.00    -0.291 C  
BRANCH   5   6
HETATM    6  C   UNL     1     -10.545  11.566  67.414  1.00  0.00    -0.214 C  
BRANCH   6   7
HETATM    7  O   UNL     1     -10.663  10.254  66.835  1.00  0.00    -0.239 OA 
BRANCH   7   8
HETATM    8  C   UNL     1     -10.081   9.270  67.560  1.00  0.00    -0.218 C  
HETATM    9  N   UNL     1     -10.262   8.074  66.963  1.00  0.00    -0.276 N  
HETATM   10  O   UNL     1      -9.460   9.443  68.596  1.00  0.00    -0.144 OA 
HETATM   11  H1  UNL     1      -9.823   7.333  67.509  1.00  0.00     0.000 HD 
HETATM   12  H2  UNL     1     -10.767   7.932  66.089  1.00  0.00     0.000 HD 
ENDBRANCH   7   8
ENDBRANCH   6   7
ENDBRANCH   5   6
ENDBRANCH   2   5
TORSDOF 4
ENDMDL
MODEL      116
REMARK 921   NORMALIZED FREE ENERGY PREDICTED BY IDOCK:   -2.05 KCAL/MOL
REMARK 922        TOTAL FREE ENERGY PREDICTED BY IDOCK:   -2.86 KCAL/MOL
REMARK 923 INTER-LIGAND FREE ENERGY PREDICTED BY IDOCK:   -2.69 KCAL/MOL
REMARK 924 INTRA-LIGAND FREE ENERGY PREDICTED BY IDOCK:   -0.17 KCAL/MOL
REMARK 927      BINDING AFFINITY PREDICTED BY RF-SCORE:    0.00 PKD
ROOT
HETATM    1  C   UNL     1     -10.416   8.814  71.150  1.00  0.00    -0.245 C  
HETATM    2  N   UNL     1     -11.498   8.065  71.934  1.00  0.00    -0.274 N  
HETATM    3  C   UNL     1     -12.587   9.058  72.315  1.00  0.00    -0.375 C  
HETATM    4  C   UNL     1     -10.857   7.486  73.192  1.00  0.00    -0.395 C  
ENDROOT
BRANCH   2   5
HETATM    5  C   UNL     1     -12.044   6.939  71.026  1.00  0.00    -0.380 C  
BRANCH   5   6
HETATM    6  C   UNL     1     -11.216   6.672  69.760  1.00  0.00    -0.356 C  
BRANCH   6   7
HETATM    7  O   UNL     1     -10.443   5.467  69.902  1.00  0.00    -0.283 OA 
BRANCH   7   8
HETATM    8  C   UNL     1      -9.466   5.317  68.976  1.00  0.00    -0.135 C  
HETATM    9  N   UNL     1      -8.399   6.078  69.289  1.00  0.00    -0.114 N  
HETATM   10  O   UNL     1      -9.535   4.580  68.006  1.00  0.00    -0.133 OA 
HETATM   11  H1  UNL     1      -7.663   5.965  68.591  1.00  0.00     0.000 HD 
HETATM   12  H2  UNL     1      -8.336   6.683  70.107  1.00  0.00     0.000 HD 
ENDBRANCH   7   8
ENDBRANCH   6   7
ENDBRANCH   5   6
ENDBRANCH   2   5
TORSDOF 4
ENDMDL
MODEL      117
REMARK 921   NORMALIZED FREE ENERGY PREDICTED BY IDOCK:   -2.04 KCAL/MOL
REMARK 922        TOTAL FREE ENERGY PREDICTED BY IDOCK:   -2.85 KCAL/MOL
REMARK 923 INTER-LIGAND FREE ENERGY PREDICTED BY IDOCK:   -2.63 KCAL/MOL
REMARK 924 INTRA-LIGAND FREE ENERGY PREDICTED BY IDOCK:   -0.22 KCAL/MOL
REMARK 927      BINDING AFFINITY PREDICTED BY RF-SCORE:    0.00 PKD
ROOT
HETATM    1  C   UNL     1     -11.815  13.547  68.334  1.00  0.00    -0.373 C  
HETATM    2  N   UNL     1     -11.236  13.353  66.929  1.00  0.00    -0.300 N  
HETATM    3  C   UNL     1      -9.914  14.104  66.849  1.00  0.00    -0.261 C  
HETATM    4  C   UNL     1     -12.226  13.931  65.924  1.00  0.00    -0.467 C  
ENDROOT
BRANCH   2   5
HETATM    5  C   UNL     1     -11.045  11.836  66.704  1.00  0.00    -0.310 C  
BRANCH   5   6
HETATM    6  C   UNL     1      -9.861  11.214  67.462  1.00  0.00    -0.177 C  
BRANCH   6   7
HETATM    7  O   UNL     1      -9.090  10.365  66.593  1.00  0.00    -0.149 OA 
BRANCH   7   8
HETATM    8  C   UNL     1      -7.989  10.954  66.070  1.00  0.00    -0.132 C  
HETATM    9  N   UNL     1      -7.888  10.680  64.754  1.00  0.00    -0.347 N  
HETATM   10  O   UNL     1      -7.210  11.653  66.696  1.00  0.00    -0.114 OA 
HETATM   11  H1  UNL     1      -7.059  11.124  64.360  1.00  0.00     0.000 HD 
HETATM   12  H2  UNL     1      -8.547  10.108  64.227  1.00  0.00     0.000 HD 
ENDBRANCH   7   8
ENDBRANCH   6   7
ENDBRANCH   5   6
ENDBRANCH   2   5
TORSDOF 4
ENDMDL
MODEL      118
REMARK 921   NORMALIZED FREE ENERGY PREDICTED BY IDOCK:   -2.01 KCAL/MOL
REMARK 922        TOTAL FREE ENERGY PREDICTED BY IDOCK:   -2.81 KCAL/MOL
REMARK 923 INTER-LIGAND FREE ENERGY PREDICTED BY IDOCK:   -2.63 KCAL/MOL
REMARK 924 INTRA-LIGAND FREE ENERGY PREDICTED BY IDOCK:   -0.18 KCAL/MOL
REMARK 927      BINDING AFFINITY PREDICTED BY RF-SCORE:    0.00 PKD
ROOT
HETATM    1  C   UNL     1     -10.491  15.700  69.827  1.00  0.00    -0.308 C  
HETATM    2  N   UNL     1     -10.696  15.516  68.320  1.00  0.00    -0.262 N  
HETATM    3  C   UNL     1     -10.750  16.894  67.674  1.00  0.00    -0.290 C  
HETATM    4  C   UNL     1     -12.020  14.789  68.107  1.00  0.00    -0.230 C  
ENDROOT
BRANCH   2   5
HETATM    5  C   UNL     1      -9.515  14.679  67.781  1.00  0.00    -0.205 C  
BRANCH   5   6
HETATM    6  C   UNL     1      -9.827  13.854  66.523  1.00  0.00    -0.290 C  
BRANCH   6   7
HETATM    7  O   UNL     1      -9.508  12.467  66.732  1.00  0.00    -0.215 OA 
BRANCH   7   8
HETATM    8  C   UNL     1     -10.467  11.605  66.319  1.00  0.00    -0.246 C  
HETATM    9  N   UNL     1     -10.047  10.331  66.453  1.00  0.00    -0.227 N  
HETATM   10  O   UNL     1     -11.566  11.934  65.903  1.00  0.00    -0.359 OA 
HETATM   11  H1  UNL     1     -10.769   9.682  66.142  1.00  0.00     0.000 HD 
HETATM   12  H2  UNL     1      -9.134  10.056  66.815  1.00  0.00     0.000 HD 
ENDBRANCH   7   8
ENDBRANCH   6   7
ENDBRANCH   5   6
ENDBRANCH   2   5
TORSDOF 4
ENDMDL
MODEL      119
REMARK 921   NORMALIZED FREE ENERGY PREDICTED BY IDOCK:   -1.96 KCAL/MOL
REMARK 922        TOTAL FREE ENERGY PREDICTED BY IDOCK:   -2.75 KCAL/MOL
REMARK 923 INTER-LIGAND FREE ENERGY PREDICTED BY IDOCK:   -2.65 KCAL/MOL
REMARK 924 INTRA-LIGAND FREE ENERGY PREDICTED BY IDOCK:   -0.10 KCAL/MOL
REMARK 927      BINDING AFFINITY PREDICTED BY RF-SCORE:    0.00 PKD
ROOT
HETATM    1  C   UNL     1      -8.679   6.339  72.337  1.00  0.00    -0.121 C  
HETATM    2  N   UNL     1     -10.128   6.383  72.832  1.00  0.00    -0.178 N  
HETATM    3  C   UNL     1     -10.120   6.801  74.296  1.00  0.00    -0.317 C  
HETATM    4  C   UNL     1     -10.718   4.983  72.693  1.00  0.00    -0.222 C  
ENDROOT
BRANCH   2   5
HETATM    5  C   UNL     1     -10.896   7.395  71.952  1.00  0.00    -0.229 C  
BRANCH   5   6
HETATM    6  C   UNL     1     -10.064   8.593  71.469  1.00  0.00    -0.274 C  
BRANCH   6   7
HETATM    7  O   UNL     1     -10.902   9.743  71.260  1.00  0.00    -0.334 OA 
BRANCH   7   8
HETATM    8  C   UNL     1     -10.771  10.315  70.039  1.00  0.00    -0.292 C  
HETATM    9  N   UNL     1     -11.208  11.589  70.066  1.00  0.00    -0.489 N  
HETATM   10  O   UNL     1     -10.303   9.761  69.058  1.00  0.00    -0.190 OA 
HETATM   11  H1  UNL     1     -11.109  12.020  69.147  1.00  0.00     0.000 HD 
HETATM   12  H2  UNL     1     -11.586  12.057  70.890  1.00  0.00     0.000 HD 
ENDBRANCH   7   8
ENDBRANCH   6   7
ENDBRANCH   5   6
ENDBRANCH   2   5
TORSDOF 4
ENDMDL
MODEL      120
REMARK 921   NORMALIZED FREE ENERGY PREDICTED BY IDOCK:   -1.92 KCAL/MOL
REMARK 922        TOTAL FREE ENERGY PREDICTED BY IDOCK:   -2.71 KCAL/MOL
REMARK 923 INTER-LIGAND FREE ENERGY PREDICTED BY IDOCK:   -2.54 KCAL/MOL
REMARK 924 INTRA-LIGAND FREE ENERGY PREDICTED BY IDOCK:   -0.17 KCAL/MOL
REMARK 927      BINDING AFFINITY PREDICTED BY RF-SCORE:    0.00 PKD
ROOT
HETATM    1  C   UNL     1      -8.272  10.017  65.317  1.00  0.00    -0.148 C  
HETATM    2  N   UNL     1      -9.670  10.643  65.333  1.00  0.00    -0.232 N  
HETATM    3  C   UNL     1     -10.175  10.720  63.899  1.00  0.00    -0.309 C  
HETATM    4  C   UNL     1      -9.554  12.046  65.920  1.00  0.00    -0.223 C  
ENDROOT
BRANCH   2   5
HETATM    5  C   UNL     1     -10.577   9.751  66.210  1.00  0.00     0.000 C  
BRANCH   5   6
HETATM    6  C   UNL     1      -9.915   9.220  67.492  1.00  0.00    -0.202 C  
BRANCH   6   7
HETATM    7  O   UNL     1     -10.824   9.300  68.604  1.00  0.00    -0.179 OA 
BRANCH   7   8
HETATM    8  C   UNL     1     -11.170  10.561  68.953  1.00  0.00    -0.266 C  
HETATM    9  N   UNL     1     -10.134  11.188  69.544  1.00  0.00    -0.433 N  
HETATM   10  O   UNL     1     -12.261  11.066  68.743  1.00  0.00    -0.546 OA 
HETATM   11  H1  UNL     1     -10.395  12.139  69.806  1.00  0.00     0.000 HD 
HETATM   12  H2  UNL     1      -9.218  10.771  69.706  1.00  0.00     0.000 HD 
ENDBRANCH   7   8
ENDBRANCH   6   7
ENDBRANCH   5   6
ENDBRANCH   2   5
TORSDOF 4
ENDMDL
MODEL      121
REMARK 921   NORMALIZED FREE ENERGY PREDICTED BY IDOCK:   -1.92 KCAL/MOL
REMARK 922        TOTAL FREE ENERGY PREDICTED BY IDOCK:   -2.70 KCAL/MOL
REMARK 923 INTER-LIGAND FREE ENERGY PREDICTED BY IDOCK:   -2.50 KCAL/MOL
REMARK 924 INTRA-LIGAND FREE ENERGY PREDICTED BY IDOCK:   -0.20 KCAL/MOL
REMARK 927      BINDING AFFINITY PREDICTED BY RF-SCORE:    0.00 PKD
ROOT
HETATM    1  C   UNL     1      -7.260   9.919  70.129  1.00  0.00    -0.155 C  
HETATM    2  N   UNL     1      -8.659   9.667  69.557  1.00  0.00    -0.157 N  
HETATM    3  C   UNL     1      -8.599   8.424  68.679  1.00  0.00    -0.132 C  
HETATM    4  C   UNL     1      -9.054  10.878  68.719  1.00  0.00    -0.171 C  
ENDROOT
BRANCH   2   5
HETATM    5  C   UNL     1      -9.628   9.480  70.746  1.00  0.00    -0.192 C  
BRANCH   5   6
HETATM    6  C   UNL     1     -11.100   9.274  70.355  1.00  0.00    -0.255 C  
BRANCH   6   7
HETATM    7  O   UNL     1     -11.679   8.190  71.103  1.00  0.00    -0.280 OA 
BRANCH   7   8
HETATM    8  C   UNL     1     -11.269   6.960  70.712  1.00  0.00    -0.294 C  
HETATM    9  N   UNL     1     -11.780   6.655  69.502  1.00  0.00    -0.657 N  
HETATM   10  O   UNL     1     -10.524   6.239  71.354  1.00  0.00    -0.208 OA 
HETATM   11  H1  UNL     1     -11.471   5.729  69.208  1.00  0.00     0.000 HD 
HETATM   12  H2  UNL     1     -12.391   7.265  68.959  1.00  0.00     0.000 HD 
ENDBRANCH   7   8
ENDBRANCH   6   7
ENDBRANCH   5   6
ENDBRANCH   2   5
TORSDOF 4
ENDMDL
MODEL      122
REMARK 921   NORMALIZED FREE ENERGY PREDICTED BY IDOCK:   -1.92 KCAL/MOL
REMARK 922        TOTAL FREE ENERGY PREDICTED BY IDOCK:   -2.70 KCAL/MOL
REMARK 923 INTER-LIGAND FREE ENERGY PREDICTED BY IDOCK:   -2.63 KCAL/MOL
REMARK 924 INTRA-LIGAND FREE ENERGY PREDICTED BY IDOCK:   -0.07 KCAL/MOL
REMARK 927      BINDING AFFINITY PREDICTED BY RF-SCORE:    0.00 PKD
ROOT
HETATM    1  C   UNL     1      -6.543  13.989  69.458  1.00  0.00    -0.115 C  
HETATM    2  N   UNL     1      -7.339  14.820  68.446  1.00  0.00    -0.109 N  
HETATM    3  C   UNL     1      -8.144  13.868  67.573  1.00  0.00    -0.182 C  
HETATM    4  C   UNL     1      -6.348  15.601  67.590  1.00  0.00    -0.163 C  
ENDROOT
BRANCH   2   5
HETATM    5  C   UNL     1      -8.255  15.778  69.241  1.00  0.00    -0.247 C  
BRANCH   5   6
HETATM    6  C   UNL     1      -9.187  16.646  68.379  1.00  0.00    -0.225 C  
BRANCH   6   7
HETATM    7  O   UNL     1      -9.693  17.758  69.138  1.00  0.00    -0.210 OA 
BRANCH   7   8
HETATM    8  C   UNL     1     -10.279  18.723  68.391  1.00  0.00    -0.361 C  
HETATM    9  N   UNL     1     -10.342  19.880  69.080  1.00  0.00    -0.599 N  
HETATM   10  O   UNL     1     -10.675  18.573  67.246  1.00  0.00    -0.419 OA 
HETATM   11  H1  UNL     1     -10.783  20.607  68.517  1.00  0.00     0.000 HD 
HETATM   12  H2  UNL     1      -9.998  20.009  70.031  1.00  0.00     0.000 HD 
ENDBRANCH   7   8
ENDBRANCH   6   7
ENDBRANCH   5   6
ENDBRANCH   2   5
TORSDOF 4
ENDMDL
MODEL      123
REMARK 921   NORMALIZED FREE ENERGY PREDICTED BY IDOCK:   -1.91 KCAL/MOL
REMARK 922        TOTAL FREE ENERGY PREDICTED BY IDOCK:   -2.69 KCAL/MOL
REMARK 923 INTER-LIGAND FREE ENERGY PREDICTED BY IDOCK:   -2.67 KCAL/MOL
REMARK 924 INTRA-LIGAND FREE ENERGY PREDICTED BY IDOCK:   -0.02 KCAL/MOL
REMARK 927      BINDING AFFINITY PREDICTED BY RF-SCORE:    0.00 PKD
ROOT
HETATM    1  C   UNL     1      -7.871   9.911  65.434  1.00  0.00    -0.132 C  
HETATM    2  N   UNL     1      -8.870   9.583  66.548  1.00  0.00    -0.137 N  
HETATM    3  C   UNL     1      -8.158   9.731  67.886  1.00  0.00    -0.112 C  
HETATM    4  C   UNL     1      -9.333   8.143  66.361  1.00  0.00    -0.210 C  
ENDROOT
BRANCH   2   5
HETATM    5  C   UNL     1     -10.056  10.566  66.421  1.00  0.00    -0.228 C  
BRANCH   5   6
HETATM    6  C   UNL     1      -9.714  12.035  66.715  1.00  0.00    -0.207 C  
BRANCH   6   7
HETATM    7  O   UNL     1     -10.859  12.878  66.498  1.00  0.00    -0.266 OA 
BRANCH   7   8
HETATM    8  C   UNL     1     -11.295  12.908  65.217  1.00  0.00    -0.300 C  
HETATM    9  N   UNL     1     -10.280  13.201  64.380  1.00  0.00    -0.590 N  
HETATM   10  O   UNL     1     -12.442  12.680  64.867  1.00  0.00    -0.484 OA 
HETATM   11  H1  UNL     1     -10.609  13.223  63.414  1.00  0.00     0.000 HD 
HETATM   12  H2  UNL     1      -9.319  13.376  64.671  1.00  0.00     0.000 HD 
ENDBRANCH   7   8
ENDBRANCH   6   7
ENDBRANCH   5   6
ENDBRANCH   2   5
TORSDOF 4
ENDMDL
MODEL      124
REMARK 921   NORMALIZED FREE ENERGY PREDICTED BY IDOCK:   -1.90 KCAL/MOL
REMARK 922        TOTAL FREE ENERGY PREDICTED BY IDOCK:   -2.68 KCAL/MOL
REMARK 923 INTER-LIGAND FREE ENERGY PREDICTED BY IDOCK:   -2.55 KCAL/MOL
REMARK 924 INTRA-LIGAND FREE ENERGY PREDICTED BY IDOCK:   -0.13 KCAL/MOL
REMARK 927      BINDING AFFINITY PREDICTED BY RF-SCORE:    0.00 PKD
ROOT
HETATM    1  C   UNL     1     -10.239   6.241  67.066  1.00  0.00    -0.201 C  
HETATM    2  N   UNL     1      -9.442   7.537  67.246  1.00  0.00    -0.144 N  
HETATM    3  C   UNL     1      -8.879   7.944  65.892  1.00  0.00    -0.148 C  
HETATM    4  C   UNL     1      -8.304   7.262  68.223  1.00  0.00    -0.125 C  
ENDROOT
BRANCH   2   5
HETATM    5  C   UNL     1     -10.405   8.608  67.808  1.00  0.00    -0.242 C  
BRANCH   5   6
HETATM    6  C   UNL     1     -10.051  10.056  67.434  1.00  0.00    -0.208 C  
BRANCH   6   7
HETATM    7  O   UNL     1     -10.058  10.899  68.600  1.00  0.00    -0.176 OA 
BRANCH   7   8
HETATM    8  C   UNL     1     -11.221  11.562  68.803  1.00  0.00    -0.249 C  
HETATM    9  N   UNL     1     -11.411  11.789  70.118  1.00  0.00    -0.497 N  
HETATM   10  O   UNL     1     -11.980  11.921  67.918  1.00  0.00    -0.556 OA 
HETATM   11  H1  UNL     1     -12.286  12.289  70.270  1.00  0.00     0.000 HD 
HETATM   12  H2  UNL     1     -10.769  11.502  70.856  1.00  0.00     0.000 HD 
ENDBRANCH   7   8
ENDBRANCH   6   7
ENDBRANCH   5   6
ENDBRANCH   2   5
TORSDOF 4
ENDMDL
MODEL      125
REMARK 921   NORMALIZED FREE ENERGY PREDICTED BY IDOCK:   -1.87 KCAL/MOL
REMARK 922        TOTAL FREE ENERGY PREDICTED BY IDOCK:   -2.64 KCAL/MOL
REMARK 923 INTER-LIGAND FREE ENERGY PREDICTED BY IDOCK:   -2.44 KCAL/MOL
REMARK 924 INTRA-LIGAND FREE ENERGY PREDICTED BY IDOCK:   -0.21 KCAL/MOL
REMARK 927      BINDING AFFINITY PREDICTED BY RF-SCORE:    0.00 PKD
ROOT
HETATM    1  C   UNL     1      -8.180   6.215  70.236  1.00  0.00    -0.124 C  
HETATM    2  N   UNL     1      -9.064   5.812  69.052  1.00  0.00    -0.116 N  
HETATM    3  C   UNL     1      -9.655   4.439  69.342  1.00  0.00    -0.199 C  
HETATM    4  C   UNL     1      -8.187   5.750  67.806  1.00  0.00    -0.101 C  
ENDROOT
BRANCH   2   5
HETATM    5  C   UNL     1     -10.165   6.886  68.899  1.00  0.00    -0.177 C  
BRANCH   5   6
HETATM    6  C   UNL     1     -11.413   6.661  69.767  1.00  0.00    -0.328 C  
BRANCH   6   7
HETATM    7  O   UNL     1     -11.425   7.567  70.885  1.00  0.00    -0.274 OA 
BRANCH   7   8
HETATM    8  C   UNL     1     -11.856   7.017  72.045  1.00  0.00    -0.298 C  
HETATM    9  N   UNL     1     -12.650   7.880  72.709  1.00  0.00    -0.518 N  
HETATM   10  O   UNL     1     -11.581   5.890  72.425  1.00  0.00    -0.302 OA 
HETATM   11  H1  UNL     1     -12.975   7.465  73.583  1.00  0.00     0.000 HD 
HETATM   12  H2  UNL     1     -12.891   8.816  72.385  1.00  0.00     0.000 HD 
ENDBRANCH   7   8
ENDBRANCH   6   7
ENDBRANCH   5   6
ENDBRANCH   2   5
TORSDOF 4
ENDMDL
MODEL      126
REMARK 921   NORMALIZED FREE ENERGY PREDICTED BY IDOCK:   -1.85 KCAL/MOL
REMARK 922        TOTAL FREE ENERGY PREDICTED BY IDOCK:   -2.61 KCAL/MOL
REMARK 923 INTER-LIGAND FREE ENERGY PREDICTED BY IDOCK:   -2.51 KCAL/MOL
REMARK 924 INTRA-LIGAND FREE ENERGY PREDICTED BY IDOCK:   -0.10 KCAL/MOL
REMARK 927      BINDING AFFINITY PREDICTED BY RF-SCORE:    0.00 PKD
ROOT
HETATM    1  C   UNL     1     -10.891   7.070  72.464  1.00  0.00    -0.252 C  
HETATM    2  N   UNL     1     -10.354   5.636  72.417  1.00  0.00    -0.196 N  
HETATM    3  C   UNL     1     -11.222   4.771  73.321  1.00  0.00    -0.340 C  
HETATM    4  C   UNL     1      -8.918   5.650  72.930  1.00  0.00    -0.123 C  
ENDROOT
BRANCH   2   5
HETATM    5  C   UNL     1     -10.411   5.160  70.947  1.00  0.00    -0.212 C  
BRANCH   5   6
HETATM    6  C   UNL     1     -10.073   6.238  69.905  1.00  0.00    -0.173 C  
BRANCH   6   7
HETATM    7  O   UNL     1     -11.131   6.361  68.939  1.00  0.00    -0.329 OA 
BRANCH   7   8
HETATM    8  C   UNL     1     -10.767   6.970  67.786  1.00  0.00    -0.231 C  
HETATM    9  N   UNL     1     -11.030   8.290  67.846  1.00  0.00    -0.476 N  
HETATM   10  O   UNL     1     -10.253   6.406  66.834  1.00  0.00    -0.179 OA 
HETATM   11  H1  UNL     1     -10.755   8.749  66.978  1.00  0.00     0.000 HD 
HETATM   12  H2  UNL     1     -11.445   8.764  68.648  1.00  0.00     0.000 HD 
ENDBRANCH   7   8
ENDBRANCH   6   7
ENDBRANCH   5   6
ENDBRANCH   2   5
TORSDOF 4
ENDMDL
MODEL      127
REMARK 921   NORMALIZED FREE ENERGY PREDICTED BY IDOCK:   -1.84 KCAL/MOL
REMARK 922        TOTAL FREE ENERGY PREDICTED BY IDOCK:   -2.60 KCAL/MOL
REMARK 923 INTER-LIGAND FREE ENERGY PREDICTED BY IDOCK:   -2.48 KCAL/MOL
REMARK 924 INTRA-LIGAND FREE ENERGY PREDICTED BY IDOCK:   -0.12 KCAL/MOL
REMARK 927      BINDING AFFINITY PREDICTED BY RF-SCORE:    0.00 PKD
ROOT
HETATM    1  C   UNL     1     -11.764  12.546  66.762  1.00  0.00    -0.384 C  
HETATM    2  N   UNL     1     -10.478  13.359  66.946  1.00  0.00    -0.271 N  
HETATM    3  C   UNL     1     -10.675  14.305  68.122  1.00  0.00    -0.244 C  
HETATM    4  C   UNL     1     -10.236  14.157  65.669  1.00  0.00    -0.339 C  
ENDROOT
BRANCH   2   5
HETATM    5  C   UNL     1      -9.324  12.363  67.201  1.00  0.00    -0.199 C  
BRANCH   5   6
HETATM    6  C   UNL     1      -9.589  10.929  66.718  1.00  0.00    -0.183 C  
BRANCH   6   7
HETATM    7  O   UNL     1      -8.991   9.972  67.611  1.00  0.00    -0.131 OA 
BRANCH   7   8
HETATM    8  C   UNL     1      -9.458   8.709  67.470  1.00  0.00    -0.149 C  
HETATM    9  N   UNL     1     -10.128   8.581  66.308  1.00  0.00    -0.441 N  
HETATM   10  O   UNL     1      -9.280   7.809  68.274  1.00  0.00    -0.140 OA 
HETATM   11  H1  UNL     1     -10.480   7.629  66.202  1.00  0.00     0.000 HD 
HETATM   12  H2  UNL     1     -10.264   9.330  65.629  1.00  0.00     0.000 HD 
ENDBRANCH   7   8
ENDBRANCH   6   7
ENDBRANCH   5   6
ENDBRANCH   2   5
TORSDOF 4
ENDMDL
MODEL      128
REMARK 921   NORMALIZED FREE ENERGY PREDICTED BY IDOCK:   -1.83 KCAL/MOL
REMARK 922        TOTAL FREE ENERGY PREDICTED BY IDOCK:   -2.59 KCAL/MOL
REMARK 923 INTER-LIGAND FREE ENERGY PREDICTED BY IDOCK:   -2.47 KCAL/MOL
REMARK 924 INTRA-LIGAND FREE ENERGY PREDICTED BY IDOCK:   -0.12 KCAL/MOL
REMARK 927      BINDING AFFINITY PREDICTED BY RF-SCORE:    0.00 PKD
ROOT
HETATM    1  C   UNL     1     -11.870  13.753  67.240  1.00  0.00    -0.401 C  
HETATM    2  N   UNL     1     -10.994  14.927  67.689  1.00  0.00    -0.290 N  
HETATM    3  C   UNL     1     -11.749  15.704  68.759  1.00  0.00    -0.370 C  
HETATM    4  C   UNL     1     -10.741  15.819  66.478  1.00  0.00    -0.283 C  
ENDROOT
BRANCH   2   5
HETATM    5  C   UNL     1      -9.670  14.346  68.232  1.00  0.00    -0.222 C  
BRANCH   5   6
HETATM    6  C   UNL     1      -8.478  15.316  68.205  1.00  0.00    -0.154 C  
BRANCH   6   7
HETATM    7  O   UNL     1      -8.051  15.634  69.542  1.00  0.00    -0.236 OA 
BRANCH   7   8
HETATM    8  C   UNL     1      -6.721  15.859  69.664  1.00  0.00    -0.173 C  
HETATM    9  N   UNL     1      -6.115  14.800  70.236  1.00  0.00    -0.159 N  
HETATM   10  O   UNL     1      -6.149  16.870  69.290  1.00  0.00    -0.179 OA 
HETATM   11  H1  UNL     1      -5.113  14.969  70.328  1.00  0.00     0.000 HD 
HETATM   12  H2  UNL     1      -6.591  13.949  70.535  1.00  0.00     0.000 HD 
ENDBRANCH   7   8
ENDBRANCH   6   7
ENDBRANCH   5   6
ENDBRANCH   2   5
TORSDOF 4
ENDMDL
MODEL      129
REMARK 921   NORMALIZED FREE ENERGY PREDICTED BY IDOCK:   -1.82 KCAL/MOL
REMARK 922        TOTAL FREE ENERGY PREDICTED BY IDOCK:   -2.58 KCAL/MOL
REMARK 923 INTER-LIGAND FREE ENERGY PREDICTED BY IDOCK:   -2.42 KCAL/MOL
REMARK 924 INTRA-LIGAND FREE ENERGY PREDICTED BY IDOCK:   -0.16 KCAL/MOL
REMARK 927      BINDING AFFINITY PREDICTED BY RF-SCORE:    0.00 PKD
ROOT
HETATM    1  C   UNL     1      -8.223  11.155  66.438  1.00  0.00    -0.164 C  
HETATM    2  N   UNL     1      -9.548  10.849  67.145  1.00  0.00    -0.164 N  
HETATM    3  C   UNL     1     -10.462  12.057  66.989  1.00  0.00    -0.221 C  
HETATM    4  C   UNL     1      -9.252  10.607  68.621  1.00  0.00    -0.181 C  
ENDROOT
BRANCH   2   5
HETATM    5  C   UNL     1     -10.152   9.587  66.489  1.00  0.00    -0.256 C  
BRANCH   5   6
HETATM    6  C   UNL     1      -9.644   8.255  67.062  1.00  0.00    -0.191 C  
BRANCH   6   7
HETATM    7  O   UNL     1     -10.737   7.475  67.579  1.00  0.00    -0.256 OA 
BRANCH   7   8
HETATM    8  C   UNL     1     -10.503   6.922  68.793  1.00  0.00    -0.205 C  
HETATM    9  N   UNL     1     -11.662   6.568  69.382  1.00  0.00    -0.632 N  
HETATM   10  O   UNL     1      -9.396   6.750  69.277  1.00  0.00    -0.144 OA 
HETATM   11  H1  UNL     1     -11.486   6.152  70.296  1.00  0.00     0.000 HD 
HETATM   12  H2  UNL     1     -12.587   6.698  68.970  1.00  0.00     0.000 HD 
ENDBRANCH   7   8
ENDBRANCH   6   7
ENDBRANCH   5   6
ENDBRANCH   2   5
TORSDOF 4
ENDMDL
MODEL      130
REMARK 921   NORMALIZED FREE ENERGY PREDICTED BY IDOCK:   -1.82 KCAL/MOL
REMARK 922        TOTAL FREE ENERGY PREDICTED BY IDOCK:   -2.57 KCAL/MOL
REMARK 923 INTER-LIGAND FREE ENERGY PREDICTED BY IDOCK:   -2.44 KCAL/MOL
REMARK 924 INTRA-LIGAND FREE ENERGY PREDICTED BY IDOCK:   -0.13 KCAL/MOL
REMARK 927      BINDING AFFINITY PREDICTED BY RF-SCORE:    0.00 PKD
ROOT
HETATM    1  C   UNL     1     -10.529  15.767  69.797  1.00  0.00    -0.317 C  
HETATM    2  N   UNL     1     -10.583  15.652  68.270  1.00  0.00    -0.254 N  
HETATM    3  C   UNL     1     -10.698  17.054  67.689  1.00  0.00    -0.295 C  
HETATM    4  C   UNL     1     -11.815  14.832  67.901  1.00  0.00    -0.297 C  
ENDROOT
BRANCH   2   5
HETATM    5  C   UNL     1      -9.290  14.945  67.804  1.00  0.00    -0.194 C  
BRANCH   5   6
HETATM    6  C   UNL     1      -9.497  13.537  67.224  1.00  0.00    -0.230 C  
BRANCH   6   7
HETATM    7  O   UNL     1      -9.308  12.535  68.239  1.00  0.00    -0.205 OA 
BRANCH   7   8
HETATM    8  C   UNL     1      -8.079  11.967  68.241  1.00  0.00    -0.155 C  
HETATM    9  N   UNL     1      -7.813  11.421  69.444  1.00  0.00    -0.363 N  
HETATM   10  O   UNL     1      -7.326  11.936  67.281  1.00  0.00    -0.127 OA 
HETATM   11  H1  UNL     1      -6.888  10.993  69.446  1.00  0.00     0.000 HD 
HETATM   12  H2  UNL     1      -8.449  11.435  70.242  1.00  0.00     0.000 HD 
ENDBRANCH   7   8
ENDBRANCH   6   7
ENDBRANCH   5   6
ENDBRANCH   2   5
TORSDOF 4
ENDMDL
MODEL      131
REMARK 921   NORMALIZED FREE ENERGY PREDICTED BY IDOCK:   -1.80 KCAL/MOL
REMARK 922        TOTAL FREE ENERGY PREDICTED BY IDOCK:   -2.56 KCAL/MOL
REMARK 923 INTER-LIGAND FREE ENERGY PREDICTED BY IDOCK:   -2.44 KCAL/MOL
REMARK 924 INTRA-LIGAND FREE ENERGY PREDICTED BY IDOCK:   -0.12 KCAL/MOL
REMARK 927      BINDING AFFINITY PREDICTED BY RF-SCORE:    0.00 PKD
ROOT
HETATM    1  C   UNL     1      -9.312  11.627  66.200  1.00  0.00    -0.224 C  
HETATM    2  N   UNL     1     -10.533  12.069  67.014  1.00  0.00    -0.218 N  
HETATM    3  C   UNL     1     -11.535  12.709  66.062  1.00  0.00    -0.368 C  
HETATM    4  C   UNL     1     -10.069  13.091  68.047  1.00  0.00    -0.235 C  
ENDROOT
BRANCH   2   5
HETATM    5  C   UNL     1     -11.120  10.816  67.702  1.00  0.00    -0.319 C  
BRANCH   5   6
HETATM    6  C   UNL     1     -10.129  10.038  68.583  1.00  0.00    -0.172 C  
BRANCH   6   7
HETATM    7  O   UNL     1     -10.638   9.897  69.920  1.00  0.00    -0.233 OA 
BRANCH   7   8
HETATM    8  C   UNL     1     -10.629   8.628  70.391  1.00  0.00    -0.220 C  
HETATM    9  N   UNL     1     -11.275   8.557  71.571  1.00  0.00    -0.261 N  
HETATM   10  O   UNL     1     -10.125   7.677  69.816  1.00  0.00    -0.189 OA 
HETATM   11  H1  UNL     1     -11.268   7.601  71.925  1.00  0.00     0.000 HD 
HETATM   12  H2  UNL     1     -11.709   9.349  72.045  1.00  0.00     0.000 HD 
ENDBRANCH   7   8
ENDBRANCH   6   7
ENDBRANCH   5   6
ENDBRANCH   2   5
TORSDOF 4
ENDMDL
MODEL      132
REMARK 921   NORMALIZED FREE ENERGY PREDICTED BY IDOCK:   -1.79 KCAL/MOL
REMARK 922        TOTAL FREE ENERGY PREDICTED BY IDOCK:   -2.54 KCAL/MOL
REMARK 923 INTER-LIGAND FREE ENERGY PREDICTED BY IDOCK:   -2.38 KCAL/MOL
REMARK 924 INTRA-LIGAND FREE ENERGY PREDICTED BY IDOCK:   -0.16 KCAL/MOL
REMARK 927      BINDING AFFINITY PREDICTED BY RF-SCORE:    0.00 PKD
ROOT
HETATM    1  C   UNL     1      -8.647  10.452  69.081  1.00  0.00    -0.164 C  
HETATM    2  N   UNL     1      -8.482   9.035  69.640  1.00  0.00    -0.122 N  
HETATM    3  C   UNL     1      -7.022   8.842  70.027  1.00  0.00    -0.043 C  
HETATM    4  C   UNL     1      -8.866   8.046  68.544  1.00  0.00    -0.134 C  
ENDROOT
BRANCH   2   5
HETATM    5  C   UNL     1      -9.419   8.897  70.861  1.00  0.00    -0.236 C  
BRANCH   5   6
HETATM    6  C   UNL     1     -10.916   9.045  70.546  1.00  0.00    -0.252 C  
BRANCH   6   7
HETATM    7  O   UNL     1     -11.609   7.805  70.773  1.00  0.00    -0.286 OA 
BRANCH   7   8
HETATM    8  C   UNL     1     -11.809   7.508  72.079  1.00  0.00    -0.294 C  
HETATM    9  N   UNL     1     -12.561   8.459  72.669  1.00  0.00    -0.598 N  
HETATM   10  O   UNL     1     -11.385   6.510  72.638  1.00  0.00    -0.257 OA 
HETATM   11  H1  UNL     1     -12.713   8.235  73.652  1.00  0.00     0.000 HD 
HETATM   12  H2  UNL     1     -12.928   9.285  72.197  1.00  0.00     0.000 HD 
ENDBRANCH   7   8
ENDBRANCH   6   7
ENDBRANCH   5   6
ENDBRANCH   2   5
TORSDOF 4
ENDMDL
MODEL      133
REMARK 921   NORMALIZED FREE ENERGY PREDICTED BY IDOCK:   -1.79 KCAL/MOL
REMARK 922        TOTAL FREE ENERGY PREDICTED BY IDOCK:   -2.54 KCAL/MOL
REMARK 923 INTER-LIGAND FREE ENERGY PREDICTED BY IDOCK:   -2.39 KCAL/MOL
REMARK 924 INTRA-LIGAND FREE ENERGY PREDICTED BY IDOCK:   -0.15 KCAL/MOL
REMARK 927      BINDING AFFINITY PREDICTED BY RF-SCORE:    0.00 PKD
ROOT
HETATM    1  C   UNL     1     -11.641  12.080  66.519  1.00  0.00    -0.314 C  
HETATM    2  N   UNL     1     -11.385  13.583  66.373  1.00  0.00    -0.308 N  
HETATM    3  C   UNL     1     -12.122  14.305  67.493  1.00  0.00    -0.312 C  
HETATM    4  C   UNL     1     -11.930  14.027  65.019  1.00  0.00    -0.401 C  
ENDROOT
BRANCH   2   5
HETATM    5  C   UNL     1      -9.858  13.811  66.454  1.00  0.00    -0.298 C  
BRANCH   5   6
HETATM    6  C   UNL     1      -9.028  12.543  66.705  1.00  0.00    -0.198 C  
BRANCH   6   7
HETATM    7  O   UNL     1      -8.661  12.441  68.092  1.00  0.00    -0.173 OA 
BRANCH   7   8
HETATM    8  C   UNL     1      -8.227  11.214  68.467  1.00  0.00    -0.149 C  
HETATM    9  N   UNL     1      -8.440  10.318  67.483  1.00  0.00    -0.118 N  
HETATM   10  O   UNL     1      -7.698  10.960  69.537  1.00  0.00    -0.115 OA 
HETATM   11  H1  UNL     1      -8.113   9.394  67.765  1.00  0.00     0.000 HD 
HETATM   12  H2  UNL     1      -8.869  10.534  66.583  1.00  0.00     0.000 HD 
ENDBRANCH   7   8
ENDBRANCH   6   7
ENDBRANCH   5   6
ENDBRANCH   2   5
TORSDOF 4
ENDMDL
MODEL      134
REMARK 921   NORMALIZED FREE ENERGY PREDICTED BY IDOCK:   -1.79 KCAL/MOL
REMARK 922        TOTAL FREE ENERGY PREDICTED BY IDOCK:   -2.54 KCAL/MOL
REMARK 923 INTER-LIGAND FREE ENERGY PREDICTED BY IDOCK:   -2.45 KCAL/MOL
REMARK 924 INTRA-LIGAND FREE ENERGY PREDICTED BY IDOCK:   -0.09 KCAL/MOL
REMARK 927      BINDING AFFINITY PREDICTED BY RF-SCORE:    0.00 PKD
ROOT
HETATM    1  C   UNL     1     -10.522  15.706  69.789  1.00  0.00    -0.308 C  
HETATM    2  N   UNL     1     -10.376  15.918  68.278  1.00  0.00    -0.237 N  
HETATM    3  C   UNL     1     -10.776  17.351  67.956  1.00  0.00    -0.359 C  
HETATM    4  C   UNL     1     -11.311  14.943  67.571  1.00  0.00    -0.342 C  
ENDROOT
BRANCH   2   5
HETATM    5  C   UNL     1      -8.902  15.639  67.904  1.00  0.00    -0.171 C  
BRANCH   5   6
HETATM    6  C   UNL     1      -7.899  15.812  69.055  1.00  0.00    -0.206 C  
BRANCH   6   7
HETATM    7  O   UNL     1      -7.517  17.192  69.194  1.00  0.00    -0.232 OA 
BRANCH   7   8
HETATM    8  C   UNL     1      -6.181  17.395  69.278  1.00  0.00    -0.238 C  
HETATM    9  N   UNL     1      -5.553  16.852  68.215  1.00  0.00    -0.120 N  
HETATM   10  O   UNL     1      -5.625  18.003  70.178  1.00  0.00    -0.232 OA 
HETATM   11  H1  UNL     1      -4.547  17.006  68.278  1.00  0.00     0.000 HD 
HETATM   12  H2  UNL     1      -6.020  16.357  67.456  1.00  0.00     0.000 HD 
ENDBRANCH   7   8
ENDBRANCH   6   7
ENDBRANCH   5   6
ENDBRANCH   2   5
TORSDOF 4
ENDMDL
MODEL      135
REMARK 921   NORMALIZED FREE ENERGY PREDICTED BY IDOCK:   -1.78 KCAL/MOL
REMARK 922        TOTAL FREE ENERGY PREDICTED BY IDOCK:   -2.53 KCAL/MOL
REMARK 923 INTER-LIGAND FREE ENERGY PREDICTED BY IDOCK:   -2.38 KCAL/MOL
REMARK 924 INTRA-LIGAND FREE ENERGY PREDICTED BY IDOCK:   -0.16 KCAL/MOL
REMARK 927      BINDING AFFINITY PREDICTED BY RF-SCORE:    0.00 PKD
ROOT
HETATM    1  C   UNL     1     -11.390   6.430  69.866  1.00  0.00    -0.434 C  
HETATM    2  N   UNL     1     -11.788   7.144  71.162  1.00  0.00    -0.308 N  
HETATM    3  C   UNL     1     -10.943   6.581  72.296  1.00  0.00    -0.249 C  
HETATM    4  C   UNL     1     -13.265   6.863  71.423  1.00  0.00    -0.212 C  
ENDROOT
BRANCH   2   5
HETATM    5  C   UNL     1     -11.541   8.656  70.962  1.00  0.00    -0.281 C  
BRANCH   5   6
HETATM    6  C   UNL     1     -10.488   9.004  69.898  1.00  0.00    -0.215 C  
BRANCH   6   7
HETATM    7  O   UNL     1      -9.361   9.668  70.496  1.00  0.00    -0.253 OA 
BRANCH   7   8
HETATM    8  C   UNL     1      -8.246   9.677  69.729  1.00  0.00    -0.161 C  
HETATM    9  N   UNL     1      -8.037   8.460  69.187  1.00  0.00    -0.117 N  
HETATM   10  O   UNL     1      -7.540  10.653  69.538  1.00  0.00    -0.146 OA 
HETATM   11  H1  UNL     1      -7.197   8.466  68.609  1.00  0.00     0.000 HD 
HETATM   12  H2  UNL     1      -8.635   7.648  69.335  1.00  0.00     0.000 HD 
ENDBRANCH   7   8
ENDBRANCH   6   7
ENDBRANCH   5   6
ENDBRANCH   2   5
TORSDOF 4
ENDMDL
MODEL      136
REMARK 921   NORMALIZED FREE ENERGY PREDICTED BY IDOCK:   -1.78 KCAL/MOL
REMARK 922        TOTAL FREE ENERGY PREDICTED BY IDOCK:   -2.53 KCAL/MOL
REMARK 923 INTER-LIGAND FREE ENERGY PREDICTED BY IDOCK:   -2.84 KCAL/MOL
REMARK 924 INTRA-LIGAND FREE ENERGY PREDICTED BY IDOCK:    0.31 KCAL/MOL
REMARK 927      BINDING AFFINITY PREDICTED BY RF-SCORE:    0.00 PKD
ROOT
HETATM    1  C   UNL     1      -8.310  15.862  69.145  1.00  0.00    -0.253 C  
HETATM    2  N   UNL     1      -7.607  16.554  67.973  1.00  0.00    -0.157 N  
HETATM    3  C   UNL     1      -6.128  16.197  68.025  1.00  0.00    -0.120 C  
HETATM    4  C   UNL     1      -7.785  18.060  68.136  1.00  0.00    -0.272 C  
ENDROOT
BRANCH   2   5
HETATM    5  C   UNL     1      -8.269  16.059  66.667  1.00  0.00    -0.289 C  
BRANCH   5   6
HETATM    6  C   UNL     1      -9.641  16.680  66.362  1.00  0.00    -0.285 C  
BRANCH   6   7
HETATM    7  O   UNL     1      -9.490  17.975  65.756  1.00  0.00    -0.495 OA 
BRANCH   7   8
HETATM    8  C   UNL     1     -10.460  18.861  66.082  1.00  0.00    -0.457 C  
HETATM    9  N   UNL     1     -11.148  18.433  67.159  1.00  0.00    -0.055 N  
HETATM   10  O   UNL     1     -10.670  19.911  65.496  1.00  0.00    -0.461 OA 
HETATM   11  H1  UNL     1     -11.878  19.100  67.405  1.00  0.00     0.000 HD 
HETATM   12  H2  UNL     1     -10.963  17.562  67.658  1.00  0.00     0.000 HD 
ENDBRANCH   7   8
ENDBRANCH   6   7
ENDBRANCH   5   6
ENDBRANCH   2   5
TORSDOF 4
ENDMDL
MODEL      137
REMARK 921   NORMALIZED FREE ENERGY PREDICTED BY IDOCK:   -1.78 KCAL/MOL
REMARK 922        TOTAL FREE ENERGY PREDICTED BY IDOCK:   -2.53 KCAL/MOL
REMARK 923 INTER-LIGAND FREE ENERGY PREDICTED BY IDOCK:   -2.39 KCAL/MOL
REMARK 924 INTRA-LIGAND FREE ENERGY PREDICTED BY IDOCK:   -0.14 KCAL/MOL
REMARK 927      BINDING AFFINITY PREDICTED BY RF-SCORE:    0.00 PKD
ROOT
HETATM    1  C   UNL     1     -11.397   7.589  70.872  1.00  0.00    -0.277 C  
HETATM    2  N   UNL     1     -10.272   6.962  70.043  1.00  0.00    -0.193 N  
HETATM    3  C   UNL     1     -10.900   6.064  68.987  1.00  0.00    -0.342 C  
HETATM    4  C   UNL     1      -9.399   6.132  70.980  1.00  0.00    -0.164 C  
ENDROOT
BRANCH   2   5
HETATM    5  C   UNL     1      -9.459   8.111  69.406  1.00  0.00    -0.162 C  
BRANCH   5   6
HETATM    6  C   UNL     1     -10.139   8.799  68.212  1.00  0.00    -0.188 C  
BRANCH   6   7
HETATM    7  O   UNL     1      -9.163   9.221  67.244  1.00  0.00    -0.125 OA 
BRANCH   7   8
HETATM    8  C   UNL     1      -9.439   8.848  65.972  1.00  0.00    -0.252 C  
HETATM    9  N   UNL     1      -9.527   7.506  65.882  1.00  0.00    -0.404 N  
HETATM   10  O   UNL     1      -9.606   9.620  65.041  1.00  0.00    -0.280 OA 
HETATM   11  H1  UNL     1      -9.736   7.225  64.925  1.00  0.00     0.000 HD 
HETATM   12  H2  UNL     1      -9.403   6.862  66.663  1.00  0.00     0.000 HD 
ENDBRANCH   7   8
ENDBRANCH   6   7
ENDBRANCH   5   6
ENDBRANCH   2   5
TORSDOF 4
ENDMDL
MODEL      138
REMARK 921   NORMALIZED FREE ENERGY PREDICTED BY IDOCK:   -1.78 KCAL/MOL
REMARK 922        TOTAL FREE ENERGY PREDICTED BY IDOCK:   -2.53 KCAL/MOL
REMARK 923 INTER-LIGAND FREE ENERGY PREDICTED BY IDOCK:   -2.41 KCAL/MOL
REMARK 924 INTRA-LIGAND FREE ENERGY PREDICTED BY IDOCK:   -0.11 KCAL/MOL
REMARK 927      BINDING AFFINITY PREDICTED BY RF-SCORE:    0.00 PKD
ROOT
HETATM    1  C   UNL     1      -8.957  10.152  69.170  1.00  0.00    -0.175 C  
HETATM    2  N   UNL     1      -9.771   9.569  68.011  1.00  0.00    -0.144 N  
HETATM    3  C   UNL     1     -10.980  10.465  67.779  1.00  0.00    -0.309 C  
HETATM    4  C   UNL     1     -10.228   8.169  68.409  1.00  0.00    -0.209 C  
ENDROOT
BRANCH   2   5
HETATM    5  C   UNL     1      -8.853   9.517  66.769  1.00  0.00    -0.131 C  
BRANCH   5   6
HETATM    6  C   UNL     1      -9.588   9.534  65.419  1.00  0.00    -0.272 C  
BRANCH   6   7
HETATM    7  O   UNL     1      -9.213  10.690  64.650  1.00  0.00    -0.201 OA 
BRANCH   7   8
HETATM    8  C   UNL     1      -9.040  10.449  63.329  1.00  0.00    -0.263 C  
HETATM    9  N   UNL     1      -8.704  11.583  62.682  1.00  0.00    -0.468 N  
HETATM   10  O   UNL     1      -9.153   9.355  62.800  1.00  0.00    -0.240 OA 
HETATM   11  H1  UNL     1      -8.574  11.402  61.687  1.00  0.00     0.000 HD 
HETATM   12  H2  UNL     1      -8.595  12.495  63.127  1.00  0.00     0.000 HD 
ENDBRANCH   7   8
ENDBRANCH   6   7
ENDBRANCH   5   6
ENDBRANCH   2   5
TORSDOF 4
ENDMDL
MODEL      139
REMARK 921   NORMALIZED FREE ENERGY PREDICTED BY IDOCK:   -1.77 KCAL/MOL
REMARK 922        TOTAL FREE ENERGY PREDICTED BY IDOCK:   -2.52 KCAL/MOL
REMARK 923 INTER-LIGAND FREE ENERGY PREDICTED BY IDOCK:   -2.43 KCAL/MOL
REMARK 924 INTRA-LIGAND FREE ENERGY PREDICTED BY IDOCK:   -0.08 KCAL/MOL
REMARK 927      BINDING AFFINITY PREDICTED BY RF-SCORE:    0.00 PKD
ROOT
HETATM    1  C   UNL     1      -8.501  10.741  65.760  1.00  0.00    -0.174 C  
HETATM    2  N   UNL     1      -7.773  11.101  67.059  1.00  0.00    -0.132 N  
HETATM    3  C   UNL     1      -6.279  11.152  66.771  1.00  0.00    -0.122 C  
HETATM    4  C   UNL     1      -8.069  10.011  68.085  1.00  0.00    -0.108 C  
ENDROOT
BRANCH   2   5
HETATM    5  C   UNL     1      -8.310  12.469  67.537  1.00  0.00    -0.175 C  
BRANCH   5   6
HETATM    6  C   UNL     1      -9.787  12.735  67.208  1.00  0.00    -0.207 C  
BRANCH   6   7
HETATM    7  O   UNL     1     -10.259  13.907  67.896  1.00  0.00    -0.232 OA 
BRANCH   7   8
HETATM    8  C   UNL     1     -11.347  14.484  67.334  1.00  0.00    -0.356 C  
HETATM    9  N   UNL     1     -12.148  15.005  68.284  1.00  0.00    -0.567 N  
HETATM   10  O   UNL     1     -11.562  14.542  66.134  1.00  0.00    -0.362 OA 
HETATM   11  H1  UNL     1     -12.967  15.440  67.861  1.00  0.00     0.000 HD 
HETATM   12  H2  UNL     1     -11.961  14.970  69.286  1.00  0.00     0.000 HD 
ENDBRANCH   7   8
ENDBRANCH   6   7
ENDBRANCH   5   6
ENDBRANCH   2   5
TORSDOF 4
ENDMDL
MODEL      140
REMARK 921   NORMALIZED FREE ENERGY PREDICTED BY IDOCK:   -1.77 KCAL/MOL
REMARK 922        TOTAL FREE ENERGY PREDICTED BY IDOCK:   -2.51 KCAL/MOL
REMARK 923 INTER-LIGAND FREE ENERGY PREDICTED BY IDOCK:   -2.39 KCAL/MOL
REMARK 924 INTRA-LIGAND FREE ENERGY PREDICTED BY IDOCK:   -0.12 KCAL/MOL
REMARK 927      BINDING AFFINITY PREDICTED BY RF-SCORE:    0.00 PKD
ROOT
HETATM    1  C   UNL     1     -12.081  14.135  69.331  1.00  0.00    -0.328 C  
HETATM    2  N   UNL     1     -11.274  14.476  68.075  1.00  0.00    -0.279 N  
HETATM    3  C   UNL     1     -11.068  15.984  68.034  1.00  0.00    -0.334 C  
HETATM    4  C   UNL     1     -12.078  14.026  66.859  1.00  0.00    -0.430 C  
ENDROOT
BRANCH   2   5
HETATM    5  C   UNL     1      -9.930  13.718  68.158  1.00  0.00    -0.242 C  
BRANCH   5   6
HETATM    6  C   UNL     1      -8.948  14.016  67.014  1.00  0.00    -0.235 C  
BRANCH   6   7
HETATM    7  O   UNL     1      -7.905  14.903  67.456  1.00  0.00    -0.154 OA 
BRANCH   7   8
HETATM    8  C   UNL     1      -6.924  14.300  68.168  1.00  0.00    -0.129 C  
HETATM    9  N   UNL     1      -6.711  14.956  69.327  1.00  0.00    -0.129 N  
HETATM   10  O   UNL     1      -6.330  13.293  67.820  1.00  0.00    -0.131 OA 
HETATM   11  H1  UNL     1      -5.972  14.502  69.863  1.00  0.00     0.000 HD 
HETATM   12  H2  UNL     1      -7.217  15.790  69.624  1.00  0.00     0.000 HD 
ENDBRANCH   7   8
ENDBRANCH   6   7
ENDBRANCH   5   6
ENDBRANCH   2   5
TORSDOF 4
ENDMDL
MODEL      141
REMARK 921   NORMALIZED FREE ENERGY PREDICTED BY IDOCK:   -1.76 KCAL/MOL
REMARK 922        TOTAL FREE ENERGY PREDICTED BY IDOCK:   -2.51 KCAL/MOL
REMARK 923 INTER-LIGAND FREE ENERGY PREDICTED BY IDOCK:   -2.33 KCAL/MOL
REMARK 924 INTRA-LIGAND FREE ENERGY PREDICTED BY IDOCK:   -0.18 KCAL/MOL
REMARK 927      BINDING AFFINITY PREDICTED BY RF-SCORE:    0.00 PKD
ROOT
HETATM    1  C   UNL     1      -9.024  11.421  68.285  1.00  0.00    -0.175 C  
HETATM    2  N   UNL     1      -9.531  10.154  67.589  1.00  0.00    -0.147 N  
HETATM    3  C   UNL     1      -8.506   9.049  67.805  1.00  0.00    -0.117 C  
HETATM    4  C   UNL     1      -9.668  10.453  66.100  1.00  0.00    -0.209 C  
ENDROOT
BRANCH   2   5
HETATM    5  C   UNL     1     -10.900   9.791  68.207  1.00  0.00    -0.210 C  
BRANCH   5   6
HETATM    6  C   UNL     1     -10.840   8.782  69.365  1.00  0.00    -0.110 C  
BRANCH   6   7
HETATM    7  O   UNL     1     -10.958   9.454  70.632  1.00  0.00    -0.244 OA 
BRANCH   7   8
HETATM    8  C   UNL     1     -12.216   9.488  71.130  1.00  0.00    -0.338 C  
HETATM    9  N   UNL     1     -12.674   8.237  71.341  1.00  0.00    -0.405 N  
HETATM   10  O   UNL     1     -12.841  10.507  71.374  1.00  0.00    -0.376 OA 
HETATM   11  H1  UNL     1     -13.622   8.263  71.717  1.00  0.00     0.000 HD 
HETATM   12  H2  UNL     1     -12.147   7.386  71.151  1.00  0.00     0.000 HD 
ENDBRANCH   7   8
ENDBRANCH   6   7
ENDBRANCH   5   6
ENDBRANCH   2   5
TORSDOF 4
ENDMDL
MODEL      142
REMARK 921   NORMALIZED FREE ENERGY PREDICTED BY IDOCK:   -1.75 KCAL/MOL
REMARK 922        TOTAL FREE ENERGY PREDICTED BY IDOCK:   -2.49 KCAL/MOL
REMARK 923 INTER-LIGAND FREE ENERGY PREDICTED BY IDOCK:   -2.42 KCAL/MOL
REMARK 924 INTRA-LIGAND FREE ENERGY PREDICTED BY IDOCK:   -0.07 KCAL/MOL
REMARK 927      BINDING AFFINITY PREDICTED BY RF-SCORE:    0.00 PKD
ROOT
HETATM    1  C   UNL     1     -12.058  13.782  71.187  1.00  0.00    -0.185 C  
HETATM    2  N   UNL     1     -11.941  15.296  70.983  1.00  0.00    -0.310 N  
HETATM    3  C   UNL     1     -11.733  15.947  72.344  1.00  0.00    -0.477 C  
HETATM    4  C   UNL     1     -13.243  15.792  70.361  1.00  0.00     0.362 C  
ENDROOT
BRANCH   2   5
HETATM    5  C   UNL     1     -10.745  15.554  70.038  1.00  0.00    -0.318 C  
BRANCH   5   6
HETATM    6  C   UNL     1     -11.107  16.237  68.710  1.00  0.00    -0.355 C  
BRANCH   6   7
HETATM    7  O   UNL     1     -11.120  15.283  67.634  1.00  0.00    -0.307 OA 
BRANCH   7   8
HETATM    8  C   UNL     1     -10.174  15.493  66.689  1.00  0.00    -0.276 C  
HETATM    9  N   UNL     1      -8.969  15.078  67.128  1.00  0.00    -0.205 N  
HETATM   10  O   UNL     1     -10.385  15.972  65.587  1.00  0.00    -0.352 OA 
HETATM   11  H1  UNL     1      -8.256  15.236  66.416  1.00  0.00     0.000 HD 
HETATM   12  H2  UNL     1      -8.795  14.665  68.044  1.00  0.00     0.000 HD 
ENDBRANCH   7   8
ENDBRANCH   6   7
ENDBRANCH   5   6
ENDBRANCH   2   5
TORSDOF 4
ENDMDL
MODEL      143
REMARK 921   NORMALIZED FREE ENERGY PREDICTED BY IDOCK:   -1.74 KCAL/MOL
REMARK 922        TOTAL FREE ENERGY PREDICTED BY IDOCK:   -2.47 KCAL/MOL
REMARK 923 INTER-LIGAND FREE ENERGY PREDICTED BY IDOCK:   -2.35 KCAL/MOL
REMARK 924 INTRA-LIGAND FREE ENERGY PREDICTED BY IDOCK:   -0.12 KCAL/MOL
REMARK 927      BINDING AFFINITY PREDICTED BY RF-SCORE:    0.00 PKD
ROOT
HETATM    1  C   UNL     1      -8.382   7.830  68.128  1.00  0.00    -0.124 C  
HETATM    2  N   UNL     1      -8.056   7.376  69.555  1.00  0.00    -0.127 N  
HETATM    3  C   UNL     1      -6.585   6.987  69.608  1.00  0.00    -0.045 C  
HETATM    4  C   UNL     1      -8.927   6.167  69.878  1.00  0.00    -0.139 C  
ENDROOT
BRANCH   2   5
HETATM    5  C   UNL     1      -8.370   8.553  70.506  1.00  0.00    -0.135 C  
BRANCH   5   6
HETATM    6  C   UNL     1      -9.669   9.312  70.189  1.00  0.00    -0.218 C  
BRANCH   6   7
HETATM    7  O   UNL     1     -10.518   9.373  71.349  1.00  0.00    -0.333 OA 
BRANCH   7   8
HETATM    8  C   UNL     1     -11.789   9.760  71.090  1.00  0.00    -0.382 C  
HETATM    9  N   UNL     1     -11.977   9.905  69.763  1.00  0.00    -0.465 N  
HETATM   10  O   UNL     1     -12.650   9.932  71.937  1.00  0.00    -0.388 OA 
HETATM   11  H1  UNL     1     -12.935  10.196  69.568  1.00  0.00     0.000 HD 
HETATM   12  H2  UNL     1     -11.262   9.747  69.054  1.00  0.00     0.000 HD 
ENDBRANCH   7   8
ENDBRANCH   6   7
ENDBRANCH   5   6
ENDBRANCH   2   5
TORSDOF 4
ENDMDL
MODEL      144
REMARK 921   NORMALIZED FREE ENERGY PREDICTED BY IDOCK:   -1.71 KCAL/MOL
REMARK 922        TOTAL FREE ENERGY PREDICTED BY IDOCK:   -2.45 KCAL/MOL
REMARK 923 INTER-LIGAND FREE ENERGY PREDICTED BY IDOCK:   -2.43 KCAL/MOL
REMARK 924 INTRA-LIGAND FREE ENERGY PREDICTED BY IDOCK:   -0.02 KCAL/MOL
REMARK 927      BINDING AFFINITY PREDICTED BY RF-SCORE:    0.00 PKD
ROOT
HETATM    1  C   UNL     1     -10.178   4.911  69.645  1.00  0.00    -0.195 C  
HETATM    2  N   UNL     1     -10.630   6.354  69.403  1.00  0.00    -0.229 N  
HETATM    3  C   UNL     1     -11.837   6.631  70.289  1.00  0.00    -0.316 C  
HETATM    4  C   UNL     1     -11.019   6.489  67.934  1.00  0.00    -0.294 C  
ENDROOT
BRANCH   2   5
HETATM    5  C   UNL     1      -9.444   7.284  69.747  1.00  0.00    -0.149 C  
BRANCH   5   6
HETATM    6  C   UNL     1      -8.639   6.872  70.989  1.00  0.00    -0.135 C  
BRANCH   6   7
HETATM    7  O   UNL     1      -9.327   7.257  72.192  1.00  0.00    -0.136 OA 
BRANCH   7   8
HETATM    8  C   UNL     1      -8.628   8.096  72.992  1.00  0.00    -0.219 C  
HETATM    9  N   UNL     1      -8.793   7.761  74.287  1.00  0.00    -0.427 N  
HETATM   10  O   UNL     1      -7.930   9.014  72.594  1.00  0.00    -0.326 OA 
HETATM   11  H1  UNL     1      -8.265   8.393  74.889  1.00  0.00     0.000 HD 
HETATM   12  H2  UNL     1      -9.364   6.984  74.618  1.00  0.00     0.000 HD 
ENDBRANCH   7   8
ENDBRANCH   6   7
ENDBRANCH   5   6
ENDBRANCH   2   5
TORSDOF 4
ENDMDL
MODEL      145
REMARK 921   NORMALIZED FREE ENERGY PREDICTED BY IDOCK:   -1.70 KCAL/MOL
REMARK 922        TOTAL FREE ENERGY PREDICTED BY IDOCK:   -2.43 KCAL/MOL
REMARK 923 INTER-LIGAND FREE ENERGY PREDICTED BY IDOCK:   -2.22 KCAL/MOL
REMARK 924 INTRA-LIGAND FREE ENERGY PREDICTED BY IDOCK:   -0.21 KCAL/MOL
REMARK 927      BINDING AFFINITY PREDICTED BY RF-SCORE:    0.00 PKD
ROOT
HETATM    1  C   UNL     1      -9.212   5.154  68.336  1.00  0.00    -0.117 C  
HETATM    2  N   UNL     1     -10.190   6.319  68.515  1.00  0.00    -0.160 N  
HETATM    3  C   UNL     1     -11.131   5.981  69.662  1.00  0.00    -0.404 C  
HETATM    4  C   UNL     1     -10.981   6.477  67.220  1.00  0.00    -0.400 C  
ENDROOT
BRANCH   2   5
HETATM    5  C   UNL     1      -9.361   7.589  68.812  1.00  0.00    -0.147 C  
BRANCH   5   6
HETATM    6  C   UNL     1     -10.031   8.590  69.767  1.00  0.00    -0.191 C  
BRANCH   6   7
HETATM    7  O   UNL     1     -10.940   9.445  69.051  1.00  0.00    -0.176 OA 
BRANCH   7   8
HETATM    8  C   UNL     1     -10.344  10.468  68.394  1.00  0.00    -0.176 C  
HETATM    9  N   UNL     1     -10.685  10.453  67.090  1.00  0.00    -0.266 N  
HETATM   10  O   UNL     1      -9.616  11.299  68.913  1.00  0.00    -0.183 OA 
HETATM   11  H1  UNL     1     -10.236  11.224  66.595  1.00  0.00     0.000 HD 
HETATM   12  H2  UNL     1     -11.304   9.768  66.658  1.00  0.00     0.000 HD 
ENDBRANCH   7   8
ENDBRANCH   6   7
ENDBRANCH   5   6
ENDBRANCH   2   5
TORSDOF 4
ENDMDL
MODEL      146
REMARK 921   NORMALIZED FREE ENERGY PREDICTED BY IDOCK:   -1.68 KCAL/MOL
REMARK 922        TOTAL FREE ENERGY PREDICTED BY IDOCK:   -2.41 KCAL/MOL
REMARK 923 INTER-LIGAND FREE ENERGY PREDICTED BY IDOCK:   -2.29 KCAL/MOL
REMARK 924 INTRA-LIGAND FREE ENERGY PREDICTED BY IDOCK:   -0.12 KCAL/MOL
REMARK 927      BINDING AFFINITY PREDICTED BY RF-SCORE:    0.00 PKD
ROOT
HETATM    1  C   UNL     1     -10.893  16.427  67.932  1.00  0.00    -0.328 C  
HETATM    2  N   UNL     1      -9.752  15.887  67.063  1.00  0.00    -0.225 N  
HETATM    3  C   UNL     1      -8.510  16.726  67.330  1.00  0.00    -0.184 C  
HETATM    4  C   UNL     1     -10.167  16.018  65.601  1.00  0.00    -0.386 C  
ENDROOT
BRANCH   2   5
HETATM    5  C   UNL     1      -9.533  14.405  67.443  1.00  0.00    -0.207 C  
BRANCH   5   6
HETATM    6  C   UNL     1      -8.097  13.893  67.248  1.00  0.00    -0.145 C  
BRANCH   6   7
HETATM    7  O   UNL     1      -7.944  12.578  67.810  1.00  0.00    -0.137 OA 
BRANCH   7   8
HETATM    8  C   UNL     1      -8.401  11.577  67.020  1.00  0.00    -0.165 C  
HETATM    9  N   UNL     1      -7.615  11.436  65.935  1.00  0.00    -0.357 N  
HETATM   10  O   UNL     1      -9.376  10.887  67.268  1.00  0.00    -0.154 OA 
HETATM   11  H1  UNL     1      -7.960  10.682  65.341  1.00  0.00     0.000 HD 
HETATM   12  H2  UNL     1      -6.792  12.004  65.735  1.00  0.00     0.000 HD 
ENDBRANCH   7   8
ENDBRANCH   6   7
ENDBRANCH   5   6
ENDBRANCH   2   5
TORSDOF 4
ENDMDL
MODEL      147
REMARK 921   NORMALIZED FREE ENERGY PREDICTED BY IDOCK:   -1.67 KCAL/MOL
REMARK 922        TOTAL FREE ENERGY PREDICTED BY IDOCK:   -2.40 KCAL/MOL
REMARK 923 INTER-LIGAND FREE ENERGY PREDICTED BY IDOCK:   -2.14 KCAL/MOL
REMARK 924 INTRA-LIGAND FREE ENERGY PREDICTED BY IDOCK:   -0.26 KCAL/MOL
REMARK 927      BINDING AFFINITY PREDICTED BY RF-SCORE:    0.00 PKD
ROOT
HETATM    1  C   UNL     1     -11.780   6.662  69.914  1.00  0.00    -0.270 C  
HETATM    2  N   UNL     1     -10.875   6.706  71.149  1.00  0.00    -0.234 N  
HETATM    3  C   UNL     1      -9.580   5.978  70.818  1.00  0.00    -0.169 C  
HETATM    4  C   UNL     1     -11.595   5.996  72.291  1.00  0.00    -0.307 C  
ENDROOT
BRANCH   2   5
HETATM    5  C   UNL     1     -10.623   8.191  71.495  1.00  0.00    -0.228 C  
BRANCH   5   6
HETATM    6  C   UNL     1      -9.155   8.549  71.780  1.00  0.00    -0.235 C  
BRANCH   6   7
HETATM    7  O   UNL     1      -8.907   8.587  73.197  1.00  0.00    -0.320 OA 
BRANCH   7   8
HETATM    8  C   UNL     1      -7.984   7.694  73.626  1.00  0.00    -0.146 C  
HETATM    9  N   UNL     1      -6.741   8.116  73.320  1.00  0.00    -0.102 N  
HETATM   10  O   UNL     1      -8.241   6.662  74.225  1.00  0.00    -0.124 OA 
HETATM   11  H1  UNL     1      -6.046   7.443  73.643  1.00  0.00     0.000 HD 
HETATM   12  H2  UNL     1      -6.526   8.985  72.832  1.00  0.00     0.000 HD 
ENDBRANCH   7   8
ENDBRANCH   6   7
ENDBRANCH   5   6
ENDBRANCH   2   5
TORSDOF 4
ENDMDL
MODEL      148
REMARK 921   NORMALIZED FREE ENERGY PREDICTED BY IDOCK:   -1.67 KCAL/MOL
REMARK 922        TOTAL FREE ENERGY PREDICTED BY IDOCK:   -2.39 KCAL/MOL
REMARK 923 INTER-LIGAND FREE ENERGY PREDICTED BY IDOCK:   -2.27 KCAL/MOL
REMARK 924 INTRA-LIGAND FREE ENERGY PREDICTED BY IDOCK:   -0.12 KCAL/MOL
REMARK 927      BINDING AFFINITY PREDICTED BY RF-SCORE:    0.00 PKD
ROOT
HETATM    1  C   UNL     1     -10.265   8.782  72.144  1.00  0.00    -0.301 C  
HETATM    2  N   UNL     1     -10.510   9.205  70.693  1.00  0.00    -0.225 N  
HETATM    3  C   UNL     1     -11.661  10.201  70.674  1.00  0.00    -0.338 C  
HETATM    4  C   UNL     1     -10.885   7.961  69.893  1.00  0.00    -0.221 C  
ENDROOT
BRANCH   2   5
HETATM    5  C   UNL     1      -9.203   9.832  70.157  1.00  0.00    -0.208 C  
BRANCH   5   6
HETATM    6  C   UNL     1      -9.071   9.841  68.625  1.00  0.00    -0.130 C  
BRANCH   6   7
HETATM    7  O   UNL     1      -9.328  11.155  68.100  1.00  0.00    -0.163 OA 
BRANCH   7   8
HETATM    8  C   UNL     1      -8.713  11.416  66.922  1.00  0.00    -0.165 C  
HETATM    9  N   UNL     1      -7.884  12.471  67.047  1.00  0.00    -0.355 N  
HETATM   10  O   UNL     1      -8.871  10.772  65.898  1.00  0.00    -0.168 OA 
HETATM   11  H1  UNL     1      -7.420  12.667  66.160  1.00  0.00     0.000 HD 
HETATM   12  H2  UNL     1      -7.741  13.000  67.907  1.00  0.00     0.000 HD 
ENDBRANCH   7   8
ENDBRANCH   6   7
ENDBRANCH   5   6
ENDBRANCH   2   5
TORSDOF 4
ENDMDL
MODEL      149
REMARK 921   NORMALIZED FREE ENERGY PREDICTED BY IDOCK:   -1.66 KCAL/MOL
REMARK 922        TOTAL FREE ENERGY PREDICTED BY IDOCK:   -2.39 KCAL/MOL
REMARK 923 INTER-LIGAND FREE ENERGY PREDICTED BY IDOCK:   -2.26 KCAL/MOL
REMARK 924 INTRA-LIGAND FREE ENERGY PREDICTED BY IDOCK:   -0.13 KCAL/MOL
REMARK 927      BINDING AFFINITY PREDICTED BY RF-SCORE:    0.00 PKD
ROOT
HETATM    1  C   UNL     1      -9.246   4.153  67.974  1.00  0.00    -0.147 C  
HETATM    2  N   UNL     1      -9.066   4.933  66.668  1.00  0.00    -0.117 N  
HETATM    3  C   UNL     1      -9.922   4.274  65.596  1.00  0.00    -0.224 C  
HETATM    4  C   UNL     1      -7.594   4.865  66.275  1.00  0.00    -0.087 C  
ENDROOT
BRANCH   2   5
HETATM    5  C   UNL     1      -9.501   6.393  66.928  1.00  0.00    -0.143 C  
BRANCH   5   6
HETATM    6  C   UNL     1     -10.766   6.548  67.786  1.00  0.00    -0.296 C  
BRANCH   6   7
HETATM    7  O   UNL     1     -10.598   7.596  68.757  1.00  0.00    -0.204 OA 
BRANCH   7   8
HETATM    8  C   UNL     1     -11.021   7.277  70.003  1.00  0.00    -0.253 C  
HETATM    9  N   UNL     1     -12.266   6.761  69.960  1.00  0.00    -0.589 N  
HETATM   10  O   UNL     1     -10.361   7.417  71.019  1.00  0.00    -0.196 OA 
HETATM   11  H1  UNL     1     -12.584   6.520  70.898  1.00  0.00     0.000 HD 
HETATM   12  H2  UNL     1     -12.812   6.630  69.109  1.00  0.00     0.000 HD 
ENDBRANCH   7   8
ENDBRANCH   6   7
ENDBRANCH   5   6
ENDBRANCH   2   5
TORSDOF 4
ENDMDL
MODEL      150
REMARK 921   NORMALIZED FREE ENERGY PREDICTED BY IDOCK:   -1.66 KCAL/MOL
REMARK 922        TOTAL FREE ENERGY PREDICTED BY IDOCK:   -2.38 KCAL/MOL
REMARK 923 INTER-LIGAND FREE ENERGY PREDICTED BY IDOCK:   -2.14 KCAL/MOL
REMARK 924 INTRA-LIGAND FREE ENERGY PREDICTED BY IDOCK:   -0.24 KCAL/MOL
REMARK 927      BINDING AFFINITY PREDICTED BY RF-SCORE:    0.00 PKD
ROOT
HETATM    1  C   UNL     1      -8.084   7.554  67.829  1.00  0.00    -0.119 C  
HETATM    2  N   UNL     1      -7.600   6.722  69.022  1.00  0.00    -0.099 N  
HETATM    3  C   UNL     1      -6.078   6.758  69.043  1.00  0.00    -0.026 C  
HETATM    4  C   UNL     1      -8.085   5.289  68.828  1.00  0.00    -0.090 C  
ENDROOT
BRANCH   2   5
HETATM    5  C   UNL     1      -8.203   7.340  70.303  1.00  0.00    -0.133 C  
BRANCH   5   6
HETATM    6  C   UNL     1      -9.605   7.946  70.131  1.00  0.00    -0.175 C  
BRANCH   6   7
HETATM    7  O   UNL     1     -10.571   7.226  70.917  1.00  0.00    -0.217 OA 
BRANCH   7   8
HETATM    8  C   UNL     1     -11.592   6.699  70.202  1.00  0.00    -0.386 C  
HETATM    9  N   UNL     1     -12.770   6.951  70.807  1.00  0.00    -0.516 N  
HETATM   10  O   UNL     1     -11.466   6.099  69.147  1.00  0.00    -0.379 OA 
HETATM   11  H1  UNL     1     -13.540   6.554  70.268  1.00  0.00     0.000 HD 
HETATM   12  H2  UNL     1     -12.877   7.466  71.681  1.00  0.00     0.000 HD 
ENDBRANCH   7   8
ENDBRANCH   6   7
ENDBRANCH   5   6
ENDBRANCH   2   5
TORSDOF 4
ENDMDL
MODEL      151
REMARK 921   NORMALIZED FREE ENERGY PREDICTED BY IDOCK:   -1.66 KCAL/MOL
REMARK 922        TOTAL FREE ENERGY PREDICTED BY IDOCK:   -2.38 KCAL/MOL
REMARK 923 INTER-LIGAND FREE ENERGY PREDICTED BY IDOCK:   -2.28 KCAL/MOL
REMARK 924 INTRA-LIGAND FREE ENERGY PREDICTED BY IDOCK:   -0.10 KCAL/MOL
REMARK 927      BINDING AFFINITY PREDICTED BY RF-SCORE:    0.00 PKD
ROOT
HETATM    1  C   UNL     1      -9.369  10.700  69.050  1.00  0.00    -0.180 C  
HETATM    2  N   UNL     1      -8.951  10.075  67.715  1.00  0.00    -0.131 N  
HETATM    3  C   UNL     1      -7.430  10.046  67.657  1.00  0.00    -0.090 C  
HETATM    4  C   UNL     1      -9.499  10.949  66.591  1.00  0.00    -0.179 C  
ENDROOT
BRANCH   2   5
HETATM    5  C   UNL     1      -9.553   8.653  67.651  1.00  0.00    -0.155 C  
BRANCH   5   6
HETATM    6  C   UNL     1     -10.157   8.147  68.971  1.00  0.00    -0.205 C  
BRANCH   6   7
HETATM    7  O   UNL     1     -10.242   6.711  68.973  1.00  0.00    -0.162 OA 
BRANCH   7   8
HETATM    8  C   UNL     1     -11.041   6.201  69.940  1.00  0.00    -0.410 C  
HETATM    9  N   UNL     1     -12.039   7.059  70.229  1.00  0.00    -0.618 N  
HETATM   10  O   UNL     1     -10.891   5.108  70.461  1.00  0.00    -0.147 OA 
HETATM   11  H1  UNL     1     -12.641   6.675  70.957  1.00  0.00     0.000 HD 
HETATM   12  H2  UNL     1     -12.173   7.967  69.783  1.00  0.00     0.000 HD 
ENDBRANCH   7   8
ENDBRANCH   6   7
ENDBRANCH   5   6
ENDBRANCH   2   5
TORSDOF 4
ENDMDL
MODEL      152
REMARK 921   NORMALIZED FREE ENERGY PREDICTED BY IDOCK:   -1.65 KCAL/MOL
REMARK 922        TOTAL FREE ENERGY PREDICTED BY IDOCK:   -2.37 KCAL/MOL
REMARK 923 INTER-LIGAND FREE ENERGY PREDICTED BY IDOCK:   -2.28 KCAL/MOL
REMARK 924 INTRA-LIGAND FREE ENERGY PREDICTED BY IDOCK:   -0.09 KCAL/MOL
REMARK 927      BINDING AFFINITY PREDICTED BY RF-SCORE:    0.00 PKD
ROOT
HETATM    1  C   UNL     1     -10.631   9.663  67.471  1.00  0.00    -0.277 C  
HETATM    2  N   UNL     1     -10.515   9.393  68.975  1.00  0.00    -0.213 N  
HETATM    3  C   UNL     1     -11.448  10.349  69.705  1.00  0.00    -0.280 C  
HETATM    4  C   UNL     1      -9.071   9.654  69.392  1.00  0.00    -0.188 C  
ENDROOT
BRANCH   2   5
HETATM    5  C   UNL     1     -10.902   7.918  69.220  1.00  0.00    -0.064 C  
BRANCH   5   6
HETATM    6  C   UNL     1     -11.344   7.596  70.657  1.00  0.00    -0.272 C  
BRANCH   6   7
HETATM    7  O   UNL     1     -11.163   6.198  70.943  1.00  0.00    -0.298 OA 
BRANCH   7   8
HETATM    8  C   UNL     1     -11.503   5.837  72.203  1.00  0.00    -0.235 C  
HETATM    9  N   UNL     1     -12.373   6.723  72.728  1.00  0.00    -0.237 N  
HETATM   10  O   UNL     1     -11.094   4.840  72.776  1.00  0.00    -0.219 OA 
HETATM   11  H1  UNL     1     -12.629   6.451  73.677  1.00  0.00     0.000 HD 
HETATM   12  H2  UNL     1     -12.726   7.548  72.244  1.00  0.00     0.000 HD 
ENDBRANCH   7   8
ENDBRANCH   6   7
ENDBRANCH   5   6
ENDBRANCH   2   5
TORSDOF 4
ENDMDL
MODEL      153
REMARK 921   NORMALIZED FREE ENERGY PREDICTED BY IDOCK:   -1.65 KCAL/MOL
REMARK 922        TOTAL FREE ENERGY PREDICTED BY IDOCK:   -2.37 KCAL/MOL
REMARK 923 INTER-LIGAND FREE ENERGY PREDICTED BY IDOCK:   -2.24 KCAL/MOL
REMARK 924 INTRA-LIGAND FREE ENERGY PREDICTED BY IDOCK:   -0.12 KCAL/MOL
REMARK 927      BINDING AFFINITY PREDICTED BY RF-SCORE:    0.00 PKD
ROOT
HETATM    1  C   UNL     1     -10.626  16.193  66.612  1.00  0.00    -0.274 C  
HETATM    2  N   UNL     1     -10.981  14.749  66.981  1.00  0.00    -0.316 N  
HETATM    3  C   UNL     1     -12.003  14.236  65.977  1.00  0.00    -0.400 C  
HETATM    4  C   UNL     1     -11.583  14.753  68.383  1.00  0.00    -0.324 C  
ENDROOT
BRANCH   2   5
HETATM    5  C   UNL     1      -9.677  13.919  66.944  1.00  0.00    -0.268 C  
BRANCH   5   6
HETATM    6  C   UNL     1      -8.884  13.902  68.260  1.00  0.00    -0.185 C  
BRANCH   6   7
HETATM    7  O   UNL     1      -7.847  14.899  68.243  1.00  0.00    -0.112 OA 
BRANCH   7   8
HETATM    8  C   UNL     1      -6.687  14.508  68.820  1.00  0.00    -0.091 C  
HETATM    9  N   UNL     1      -5.701  14.446  67.903  1.00  0.00    -0.130 N  
HETATM   10  O   UNL     1      -6.548  14.266  70.008  1.00  0.00    -0.142 OA 
HETATM   11  H1  UNL     1      -4.827  14.152  68.338  1.00  0.00     0.000 HD 
HETATM   12  H2  UNL     1      -5.814  14.663  66.913  1.00  0.00     0.000 HD 
ENDBRANCH   7   8
ENDBRANCH   6   7
ENDBRANCH   5   6
ENDBRANCH   2   5
TORSDOF 4
ENDMDL
MODEL      154
REMARK 921   NORMALIZED FREE ENERGY PREDICTED BY IDOCK:   -1.62 KCAL/MOL
REMARK 922        TOTAL FREE ENERGY PREDICTED BY IDOCK:   -2.33 KCAL/MOL
REMARK 923 INTER-LIGAND FREE ENERGY PREDICTED BY IDOCK:   -2.20 KCAL/MOL
REMARK 924 INTRA-LIGAND FREE ENERGY PREDICTED BY IDOCK:   -0.13 KCAL/MOL
REMARK 927      BINDING AFFINITY PREDICTED BY RF-SCORE:    0.00 PKD
ROOT
HETATM    1  C   UNL     1     -10.709   7.400  67.351  1.00  0.00    -0.278 C  
HETATM    2  N   UNL     1      -9.668   8.256  68.079  1.00  0.00    -0.157 N  
HETATM    3  C   UNL     1      -8.283   7.797  67.643  1.00  0.00    -0.125 C  
HETATM    4  C   UNL     1      -9.841   8.039  69.579  1.00  0.00    -0.181 C  
ENDROOT
BRANCH   2   5
HETATM    5  C   UNL     1      -9.925   9.733  67.702  1.00  0.00    -0.174 C  
BRANCH   5   6
HETATM    6  C   UNL     1     -10.200  10.666  68.893  1.00  0.00    -0.201 C  
BRANCH   6   7
HETATM    7  O   UNL     1     -10.964  11.811  68.476  1.00  0.00    -0.200 OA 
BRANCH   7   8
HETATM    8  C   UNL     1     -10.245  12.752  67.819  1.00  0.00    -0.223 C  
HETATM    9  N   UNL     1      -9.237  13.201  68.592  1.00  0.00    -0.391 N  
HETATM   10  O   UNL     1     -10.467  13.126  66.678  1.00  0.00    -0.271 OA 
HETATM   11  H1  UNL     1      -8.696  13.910  68.097  1.00  0.00     0.000 HD 
HETATM   12  H2  UNL     1      -9.043  12.878  69.540  1.00  0.00     0.000 HD 
ENDBRANCH   7   8
ENDBRANCH   6   7
ENDBRANCH   5   6
ENDBRANCH   2   5
TORSDOF 4
ENDMDL
MODEL      155
REMARK 921   NORMALIZED FREE ENERGY PREDICTED BY IDOCK:   -1.60 KCAL/MOL
REMARK 922        TOTAL FREE ENERGY PREDICTED BY IDOCK:   -2.31 KCAL/MOL
REMARK 923 INTER-LIGAND FREE ENERGY PREDICTED BY IDOCK:   -2.20 KCAL/MOL
REMARK 924 INTRA-LIGAND FREE ENERGY PREDICTED BY IDOCK:   -0.11 KCAL/MOL
REMARK 927      BINDING AFFINITY PREDICTED BY RF-SCORE:    0.00 PKD
ROOT
HETATM    1  C   UNL     1      -8.880   9.919  67.484  1.00  0.00    -0.128 C  
HETATM    2  N   UNL     1      -8.572   9.862  65.984  1.00  0.00    -0.134 N  
HETATM    3  C   UNL     1      -7.102  10.204  65.785  1.00  0.00    -0.127 C  
HETATM    4  C   UNL     1      -9.448  10.895  65.282  1.00  0.00    -0.217 C  
ENDROOT
BRANCH   2   5
HETATM    5  C   UNL     1      -8.899   8.434  65.490  1.00  0.00    -0.130 C  
BRANCH   5   6
HETATM    6  C   UNL     1      -9.462   7.491  66.564  1.00  0.00    -0.179 C  
BRANCH   6   7
HETATM    7  O   UNL     1      -8.949   6.158  66.391  1.00  0.00    -0.141 OA 
BRANCH   7   8
HETATM    8  C   UNL     1      -9.876   5.181  66.525  1.00  0.00    -0.192 C  
HETATM    9  N   UNL     1     -11.118   5.686  66.381  1.00  0.00    -0.758 N  
HETATM   10  O   UNL     1      -9.623   4.005  66.727  1.00  0.00    -0.194 OA 
HETATM   11  H1  UNL     1     -11.816   4.950  66.482  1.00  0.00     0.000 HD 
HETATM   12  H2  UNL     1     -11.329   6.667  66.198  1.00  0.00     0.000 HD 
ENDBRANCH   7   8
ENDBRANCH   6   7
ENDBRANCH   5   6
ENDBRANCH   2   5
TORSDOF 4
ENDMDL
MODEL      156
REMARK 921   NORMALIZED FREE ENERGY PREDICTED BY IDOCK:   -1.60 KCAL/MOL
REMARK 922        TOTAL FREE ENERGY PREDICTED BY IDOCK:   -2.30 KCAL/MOL
REMARK 923 INTER-LIGAND FREE ENERGY PREDICTED BY IDOCK:   -2.07 KCAL/MOL
REMARK 924 INTRA-LIGAND FREE ENERGY PREDICTED BY IDOCK:   -0.24 KCAL/MOL
REMARK 927      BINDING AFFINITY PREDICTED BY RF-SCORE:    0.00 PKD
ROOT
HETATM    1  C   UNL     1      -9.194  12.231  66.573  1.00  0.00    -0.219 C  
HETATM    2  N   UNL     1     -10.444  11.473  66.114  1.00  0.00    -0.244 N  
HETATM    3  C   UNL     1     -11.349  12.449  65.375  1.00  0.00    -0.337 C  
HETATM    4  C   UNL     1     -11.155  10.938  67.352  1.00  0.00    -0.307 C  
ENDROOT
BRANCH   2   5
HETATM    5  C   UNL     1      -9.984  10.316  65.198  1.00  0.00    -0.325 C  
BRANCH   5   6
HETATM    6  C   UNL     1      -9.679   8.998  65.926  1.00  0.00    -0.236 C  
BRANCH   6   7
HETATM    7  O   UNL     1      -8.261   8.835  66.111  1.00  0.00    -0.110 OA 
BRANCH   7   8
HETATM    8  C   UNL     1      -7.890   8.576  67.387  1.00  0.00    -0.098 C  
HETATM    9  N   UNL     1      -6.693   9.136  67.653  1.00  0.00    -0.068 N  
HETATM   10  O   UNL     1      -8.556   7.943  68.190  1.00  0.00    -0.123 OA 
HETATM   11  H1  UNL     1      -6.414   8.942  68.614  1.00  0.00     0.000 HD 
HETATM   12  H2  UNL     1      -6.144   9.678  66.986  1.00  0.00     0.000 HD 
ENDBRANCH   7   8
ENDBRANCH   6   7
ENDBRANCH   5   6
ENDBRANCH   2   5
TORSDOF 4
ENDMDL
MODEL      157
REMARK 921   NORMALIZED FREE ENERGY PREDICTED BY IDOCK:   -1.60 KCAL/MOL
REMARK 922        TOTAL FREE ENERGY PREDICTED BY IDOCK:   -2.30 KCAL/MOL
REMARK 923 INTER-LIGAND FREE ENERGY PREDICTED BY IDOCK:   -2.09 KCAL/MOL
REMARK 924 INTRA-LIGAND FREE ENERGY PREDICTED BY IDOCK:   -0.22 KCAL/MOL
REMARK 927      BINDING AFFINITY PREDICTED BY RF-SCORE:    0.00 PKD
ROOT
HETATM    1  C   UNL     1     -11.472   6.493  70.229  1.00  0.00    -0.411 C  
HETATM    2  N   UNL     1     -11.203   7.828  70.932  1.00  0.00    -0.267 N  
HETATM    3  C   UNL     1     -10.208   7.584  72.057  1.00  0.00    -0.196 C  
HETATM    4  C   UNL     1     -12.523   8.336  71.503  1.00  0.00    -0.312 C  
ENDROOT
BRANCH   2   5
HETATM    5  C   UNL     1     -10.644   8.810  69.878  1.00  0.00    -0.224 C  
BRANCH   5   6
HETATM    6  C   UNL     1     -10.349   8.187  68.505  1.00  0.00    -0.198 C  
BRANCH   6   7
HETATM    7  O   UNL     1      -8.932   8.018  68.317  1.00  0.00    -0.133 OA 
BRANCH   7   8
HETATM    8  C   UNL     1      -8.512   6.732  68.366  1.00  0.00    -0.122 C  
HETATM    9  N   UNL     1      -7.916   6.475  69.547  1.00  0.00    -0.115 N  
HETATM   10  O   UNL     1      -8.669   5.914  67.474  1.00  0.00    -0.107 OA 
HETATM   11  H1  UNL     1      -7.600   5.506  69.584  1.00  0.00     0.000 HD 
HETATM   12  H2  UNL     1      -7.798   7.154  70.298  1.00  0.00     0.000 HD 
ENDBRANCH   7   8
ENDBRANCH   6   7
ENDBRANCH   5   6
ENDBRANCH   2   5
TORSDOF 4
ENDMDL
MODEL      158
REMARK 921   NORMALIZED FREE ENERGY PREDICTED BY IDOCK:   -1.55 KCAL/MOL
REMARK 922        TOTAL FREE ENERGY PREDICTED BY IDOCK:   -2.25 KCAL/MOL
REMARK 923 INTER-LIGAND FREE ENERGY PREDICTED BY IDOCK:   -2.14 KCAL/MOL
REMARK 924 INTRA-LIGAND FREE ENERGY PREDICTED BY IDOCK:   -0.11 KCAL/MOL
REMARK 927      BINDING AFFINITY PREDICTED BY RF-SCORE:    0.00 PKD
ROOT
HETATM    1  C   UNL     1      -8.186   3.469  70.207  1.00  0.00    -0.055 C  
HETATM    2  N   UNL     1      -9.010   3.072  71.436  1.00  0.00    -0.088 N  
HETATM    3  C   UNL     1      -8.080   3.025  72.640  1.00  0.00    -0.067 C  
HETATM    4  C   UNL     1      -9.605   1.691  71.181  1.00  0.00    -0.135 C  
ENDROOT
BRANCH   2   5
HETATM    5  C   UNL     1     -10.124   4.128  71.616  1.00  0.00    -0.128 C  
BRANCH   5   6
HETATM    6  C   UNL     1      -9.922   5.425  70.817  1.00  0.00    -0.204 C  
BRANCH   6   7
HETATM    7  O   UNL     1     -11.016   5.639  69.908  1.00  0.00    -0.339 OA 
BRANCH   7   8
HETATM    8  C   UNL     1     -10.866   6.711  69.096  1.00  0.00    -0.283 C  
HETATM    9  N   UNL     1     -11.305   6.428  67.854  1.00  0.00    -0.625 N  
HETATM   10  O   UNL     1     -10.415   7.791  69.445  1.00  0.00    -0.217 OA 
HETATM   11  H1  UNL     1     -11.192   7.236  67.242  1.00  0.00     0.000 HD 
HETATM   12  H2  UNL     1     -11.695   5.530  67.566  1.00  0.00     0.000 HD 
ENDBRANCH   7   8
ENDBRANCH   6   7
ENDBRANCH   5   6
ENDBRANCH   2   5
TORSDOF 4
ENDMDL
MODEL      159
REMARK 921   NORMALIZED FREE ENERGY PREDICTED BY IDOCK:   -1.55 KCAL/MOL
REMARK 922        TOTAL FREE ENERGY PREDICTED BY IDOCK:   -2.25 KCAL/MOL
REMARK 923 INTER-LIGAND FREE ENERGY PREDICTED BY IDOCK:   -2.01 KCAL/MOL
REMARK 924 INTRA-LIGAND FREE ENERGY PREDICTED BY IDOCK:   -0.24 KCAL/MOL
REMARK 927      BINDING AFFINITY PREDICTED BY RF-SCORE:    0.00 PKD
ROOT
HETATM    1  C   UNL     1      -7.915   5.415  65.007  1.00  0.00    -0.110 C  
HETATM    2  N   UNL     1      -8.515   5.969  66.304  1.00  0.00    -0.125 N  
HETATM    3  C   UNL     1      -8.125   7.436  66.422  1.00  0.00    -0.118 C  
HETATM    4  C   UNL     1      -7.931   5.179  67.471  1.00  0.00    -0.100 C  
ENDROOT
BRANCH   2   5
HETATM    5  C   UNL     1     -10.048   5.789  66.229  1.00  0.00    -0.078 C  
BRANCH   5   6
HETATM    6  C   UNL     1     -10.856   6.754  67.111  1.00  0.00    -0.392 C  
BRANCH   6   7
HETATM    7  O   UNL     1     -11.266   6.108  68.329  1.00  0.00    -0.323 OA 
BRANCH   7   8
HETATM    8  C   UNL     1     -11.202   6.896  69.428  1.00  0.00    -0.167 C  
HETATM    9  N   UNL     1     -10.322   7.899  69.238  1.00  0.00    -0.217 N  
HETATM   10  O   UNL     1     -11.864   6.732  70.440  1.00  0.00    -0.376 OA 
HETATM   11  H1  UNL     1     -10.275   8.493  70.066  1.00  0.00     0.000 HD 
HETATM   12  H2  UNL     1      -9.781   8.044  68.387  1.00  0.00     0.000 HD 
ENDBRANCH   7   8
ENDBRANCH   6   7
ENDBRANCH   5   6
ENDBRANCH   2   5
TORSDOF 4
ENDMDL
MODEL      160
REMARK 921   NORMALIZED FREE ENERGY PREDICTED BY IDOCK:   -1.55 KCAL/MOL
REMARK 922        TOTAL FREE ENERGY PREDICTED BY IDOCK:   -2.24 KCAL/MOL
REMARK 923 INTER-LIGAND FREE ENERGY PREDICTED BY IDOCK:   -2.15 KCAL/MOL
REMARK 924 INTRA-LIGAND FREE ENERGY PREDICTED BY IDOCK:   -0.09 KCAL/MOL
REMARK 927      BINDING AFFINITY PREDICTED BY RF-SCORE:    0.00 PKD
ROOT
HETATM    1  C   UNL     1      -8.401   6.406  70.410  1.00  0.00    -0.126 C  
HETATM    2  N   UNL     1      -9.666   6.055  69.619  1.00  0.00    -0.149 N  
HETATM    3  C   UNL     1     -10.084   4.639  69.991  1.00  0.00    -0.197 C  
HETATM    4  C   UNL     1      -9.330   6.126  68.133  1.00  0.00    -0.115 C  
ENDROOT
BRANCH   2   5
HETATM    5  C   UNL     1     -10.754   7.088  69.988  1.00  0.00    -0.242 C  
BRANCH   5   6
HETATM    6  C   UNL     1     -10.224   8.482  70.358  1.00  0.00    -0.195 C  
BRANCH   6   7
HETATM    7  O   UNL     1     -11.310   9.375  70.662  1.00  0.00    -0.263 OA 
BRANCH   7   8
HETATM    8  C   UNL     1     -11.526  10.331  69.727  1.00  0.00    -0.256 C  
HETATM    9  N   UNL     1     -12.136  11.399  70.276  1.00  0.00    -0.358 N  
HETATM   10  O   UNL     1     -11.195  10.244  68.555  1.00  0.00    -0.252 OA 
HETATM   11  H1  UNL     1     -12.298  12.119  69.572  1.00  0.00     0.000 HD 
HETATM   12  H2  UNL     1     -12.399  11.477  71.258  1.00  0.00     0.000 HD 
ENDBRANCH   7   8
ENDBRANCH   6   7
ENDBRANCH   5   6
ENDBRANCH   2   5
TORSDOF 4
ENDMDL
MODEL      161
REMARK 921   NORMALIZED FREE ENERGY PREDICTED BY IDOCK:   -1.54 KCAL/MOL
REMARK 922        TOTAL FREE ENERGY PREDICTED BY IDOCK:   -2.23 KCAL/MOL
REMARK 923 INTER-LIGAND FREE ENERGY PREDICTED BY IDOCK:   -2.10 KCAL/MOL
REMARK 924 INTRA-LIGAND FREE ENERGY PREDICTED BY IDOCK:   -0.13 KCAL/MOL
REMARK 927      BINDING AFFINITY PREDICTED BY RF-SCORE:    0.00 PKD
ROOT
HETATM    1  C   UNL     1      -6.499   9.176  66.879  1.00  0.00    -0.067 C  
HETATM    2  N   UNL     1      -7.664   9.931  67.527  1.00  0.00    -0.092 N  
HETATM    3  C   UNL     1      -7.141  10.641  68.768  1.00  0.00    -0.076 C  
HETATM    4  C   UNL     1      -8.729   8.912  67.919  1.00  0.00    -0.129 C  
ENDROOT
BRANCH   2   5
HETATM    5  C   UNL     1      -8.215  10.932  66.486  1.00  0.00    -0.157 C  
BRANCH   5   6
HETATM    6  C   UNL     1      -8.574  10.316  65.125  1.00  0.00    -0.171 C  
BRANCH   6   7
HETATM    7  O   UNL     1      -9.982  10.450  64.861  1.00  0.00    -0.306 OA 
BRANCH   7   8
HETATM    8  C   UNL     1     -10.275  11.061  63.689  1.00  0.00    -0.372 C  
HETATM    9  N   UNL     1      -9.182  11.123  62.903  1.00  0.00    -0.359 N  
HETATM   10  O   UNL     1     -11.379  11.478  63.380  1.00  0.00    -0.374 OA 
HETATM   11  H1  UNL     1      -9.403  11.583  62.020  1.00  0.00     0.000 HD 
HETATM   12  H2  UNL     1      -8.263  10.761  63.156  1.00  0.00     0.000 HD 
ENDBRANCH   7   8
ENDBRANCH   6   7
ENDBRANCH   5   6
ENDBRANCH   2   5
TORSDOF 4
ENDMDL
MODEL      162
REMARK 921   NORMALIZED FREE ENERGY PREDICTED BY IDOCK:   -1.53 KCAL/MOL
REMARK 922        TOTAL FREE ENERGY PREDICTED BY IDOCK:   -2.22 KCAL/MOL
REMARK 923 INTER-LIGAND FREE ENERGY PREDICTED BY IDOCK:   -1.97 KCAL/MOL
REMARK 924 INTRA-LIGAND FREE ENERGY PREDICTED BY IDOCK:   -0.26 KCAL/MOL
REMARK 927      BINDING AFFINITY PREDICTED BY RF-SCORE:    0.00 PKD
ROOT
HETATM    1  C   UNL     1     -10.848  15.419  67.361  1.00  0.00    -0.309 C  
HETATM    2  N   UNL     1      -9.837  16.565  67.467  1.00  0.00    -0.244 N  
HETATM    3  C   UNL     1      -9.344  16.637  68.906  1.00  0.00    -0.244 C  
HETATM    4  C   UNL     1     -10.549  17.861  67.094  1.00  0.00    -0.307 C  
ENDROOT
BRANCH   2   5
HETATM    5  C   UNL     1      -8.683  16.268  66.483  1.00  0.00    -0.292 C  
BRANCH   5   6
HETATM    6  C   UNL     1      -7.406  15.710  67.133  1.00  0.00    -0.212 C  
BRANCH   6   7
HETATM    7  O   UNL     1      -7.350  14.279  66.997  1.00  0.00    -0.013 OA 
BRANCH   7   8
HETATM    8  C   UNL     1      -7.199  13.613  68.166  1.00  0.00    -0.117 C  
HETATM    9  N   UNL     1      -6.318  14.251  68.962  1.00  0.00    -0.091 N  
HETATM   10  O   UNL     1      -7.793  12.590  68.466  1.00  0.00    -0.137 OA 
HETATM   11  H1  UNL     1      -6.205  13.750  69.843  1.00  0.00     0.000 HD 
HETATM   12  H2  UNL     1      -5.833  15.114  68.718  1.00  0.00     0.000 HD 
ENDBRANCH   7   8
ENDBRANCH   6   7
ENDBRANCH   5   6
ENDBRANCH   2   5
TORSDOF 4
ENDMDL
MODEL      163
REMARK 921   NORMALIZED FREE ENERGY PREDICTED BY IDOCK:   -1.53 KCAL/MOL
REMARK 922        TOTAL FREE ENERGY PREDICTED BY IDOCK:   -2.21 KCAL/MOL
REMARK 923 INTER-LIGAND FREE ENERGY PREDICTED BY IDOCK:   -2.01 KCAL/MOL
REMARK 924 INTRA-LIGAND FREE ENERGY PREDICTED BY IDOCK:   -0.20 KCAL/MOL
REMARK 927      BINDING AFFINITY PREDICTED BY RF-SCORE:    0.00 PKD
ROOT
HETATM    1  C   UNL     1     -10.828   5.656  70.656  1.00  0.00    -0.234 C  
HETATM    2  N   UNL     1     -10.379   5.884  72.103  1.00  0.00    -0.195 N  
HETATM    3  C   UNL     1      -8.962   5.348  72.253  1.00  0.00    -0.129 C  
HETATM    4  C   UNL     1     -11.327   5.118  73.019  1.00  0.00    -0.309 C  
ENDROOT
BRANCH   2   5
HETATM    5  C   UNL     1     -10.447   7.403  72.383  1.00  0.00    -0.233 C  
BRANCH   5   6
HETATM    6  C   UNL     1      -9.316   8.229  71.751  1.00  0.00    -0.202 C  
BRANCH   6   7
HETATM    7  O   UNL     1      -9.845   9.179  70.810  1.00  0.00    -0.225 OA 
BRANCH   7   8
HETATM    8  C   UNL     1      -9.757   8.791  69.515  1.00  0.00    -0.172 C  
HETATM    9  N   UNL     1      -8.530   8.299  69.253  1.00  0.00    -0.125 N  
HETATM   10  O   UNL     1     -10.667   8.859  68.705  1.00  0.00    -0.187 OA 
HETATM   11  H1  UNL     1      -8.464   8.007  68.278  1.00  0.00     0.000 HD 
HETATM   12  H2  UNL     1      -7.774   8.228  69.934  1.00  0.00     0.000 HD 
ENDBRANCH   7   8
ENDBRANCH   6   7
ENDBRANCH   5   6
ENDBRANCH   2   5
TORSDOF 4
ENDMDL
MODEL      164
REMARK 921   NORMALIZED FREE ENERGY PREDICTED BY IDOCK:   -1.52 KCAL/MOL
REMARK 922        TOTAL FREE ENERGY PREDICTED BY IDOCK:   -2.21 KCAL/MOL
REMARK 923 INTER-LIGAND FREE ENERGY PREDICTED BY IDOCK:   -2.12 KCAL/MOL
REMARK 924 INTRA-LIGAND FREE ENERGY PREDICTED BY IDOCK:   -0.09 KCAL/MOL
REMARK 927      BINDING AFFINITY PREDICTED BY RF-SCORE:    0.00 PKD
ROOT
HETATM    1  C   UNL     1      -8.179   7.684  69.920  1.00  0.00    -0.130 C  
HETATM    2  N   UNL     1      -8.313   7.940  68.415  1.00  0.00    -0.124 N  
HETATM    3  C   UNL     1      -9.117   6.799  67.807  1.00  0.00    -0.117 C  
HETATM    4  C   UNL     1      -6.912   7.969  67.813  1.00  0.00    -0.078 C  
ENDROOT
BRANCH   2   5
HETATM    5  C   UNL     1      -9.021   9.301  68.230  1.00  0.00    -0.129 C  
BRANCH   5   6
HETATM    6  C   UNL     1      -9.700   9.854  69.493  1.00  0.00    -0.220 C  
BRANCH   6   7
HETATM    7  O   UNL     1     -10.999  10.385  69.181  1.00  0.00    -0.214 OA 
BRANCH   7   8
HETATM    8  C   UNL     1     -11.798  10.576  70.258  1.00  0.00    -0.331 C  
HETATM    9  N   UNL     1     -11.993  11.892  70.474  1.00  0.00    -0.484 N  
HETATM   10  O   UNL     1     -12.289   9.681  70.927  1.00  0.00    -0.299 OA 
HETATM   11  H1  UNL     1     -12.595  12.035  71.284  1.00  0.00     0.000 HD 
HETATM   12  H2  UNL     1     -11.595  12.639  69.906  1.00  0.00     0.000 HD 
ENDBRANCH   7   8
ENDBRANCH   6   7
ENDBRANCH   5   6
ENDBRANCH   2   5
TORSDOF 4
ENDMDL
MODEL      165
REMARK 921   NORMALIZED FREE ENERGY PREDICTED BY IDOCK:   -1.52 KCAL/MOL
REMARK 922        TOTAL FREE ENERGY PREDICTED BY IDOCK:   -2.21 KCAL/MOL
REMARK 923 INTER-LIGAND FREE ENERGY PREDICTED BY IDOCK:   -2.11 KCAL/MOL
REMARK 924 INTRA-LIGAND FREE ENERGY PREDICTED BY IDOCK:   -0.10 KCAL/MOL
REMARK 927      BINDING AFFINITY PREDICTED BY RF-SCORE:    0.00 PKD
ROOT
HETATM    1  C   UNL     1      -6.549   7.450  68.568  1.00  0.00    -0.049 C  
HETATM    2  N   UNL     1      -7.778   7.518  67.654  1.00  0.00    -0.112 N  
HETATM    3  C   UNL     1      -7.369   8.197  66.354  1.00  0.00    -0.080 C  
HETATM    4  C   UNL     1      -8.848   8.344  68.360  1.00  0.00    -0.140 C  
ENDROOT
BRANCH   2   5
HETATM    5  C   UNL     1      -8.266   6.071  67.414  1.00  0.00    -0.106 C  
BRANCH   5   6
HETATM    6  C   UNL     1      -8.923   5.830  66.045  1.00  0.00    -0.151 C  
BRANCH   6   7
HETATM    7  O   UNL     1      -9.053   4.421  65.785  1.00  0.00    -0.124 OA 
BRANCH   7   8
HETATM    8  C   UNL     1     -10.113   4.092  65.010  1.00  0.00    -0.208 C  
HETATM    9  N   UNL     1     -11.187   4.839  65.337  1.00  0.00    -0.970 N  
HETATM   10  O   UNL     1     -10.094   3.252  64.125  1.00  0.00    -0.167 OA 
HETATM   11  H1  UNL     1     -11.985   4.591  64.753  1.00  0.00     0.000 HD 
HETATM   12  H2  UNL     1     -11.198   5.551  66.066  1.00  0.00     0.000 HD 
ENDBRANCH   7   8
ENDBRANCH   6   7
ENDBRANCH   5   6
ENDBRANCH   2   5
TORSDOF 4
ENDMDL
MODEL      166
REMARK 921   NORMALIZED FREE ENERGY PREDICTED BY IDOCK:   -1.51 KCAL/MOL
REMARK 922        TOTAL FREE ENERGY PREDICTED BY IDOCK:   -2.20 KCAL/MOL
REMARK 923 INTER-LIGAND FREE ENERGY PREDICTED BY IDOCK:   -1.95 KCAL/MOL
REMARK 924 INTRA-LIGAND FREE ENERGY PREDICTED BY IDOCK:   -0.25 KCAL/MOL
REMARK 927      BINDING AFFINITY PREDICTED BY RF-SCORE:    0.00 PKD
ROOT
HETATM    1  C   UNL     1     -11.395   6.418  69.903  1.00  0.00    -0.434 C  
HETATM    2  N   UNL     1      -9.994   6.615  70.490  1.00  0.00    -0.179 N  
HETATM    3  C   UNL     1      -9.499   5.272  71.006  1.00  0.00    -0.161 C  
HETATM    4  C   UNL     1     -10.099   7.610  71.642  1.00  0.00    -0.180 C  
ENDROOT
BRANCH   2   5
HETATM    5  C   UNL     1      -9.086   7.166  69.367  1.00  0.00    -0.145 C  
BRANCH   5   6
HETATM    6  C   UNL     1      -9.550   6.836  67.940  1.00  0.00    -0.120 C  
BRANCH   6   7
HETATM    7  O   UNL     1      -8.863   5.676  67.437  1.00  0.00    -0.109 OA 
BRANCH   7   8
HETATM    8  C   UNL     1      -9.678   4.660  67.070  1.00  0.00    -0.195 C  
HETATM    9  N   UNL     1      -9.647   3.675  67.989  1.00  0.00    -0.154 N  
HETATM   10  O   UNL     1     -10.362   4.646  66.059  1.00  0.00    -0.267 OA 
HETATM   11  H1  UNL     1     -10.261   2.909  67.713  1.00  0.00     0.000 HD 
HETATM   12  H2  UNL     1      -9.087   3.692  68.841  1.00  0.00     0.000 HD 
ENDBRANCH   7   8
ENDBRANCH   6   7
ENDBRANCH   5   6
ENDBRANCH   2   5
TORSDOF 4
ENDMDL
MODEL      167
REMARK 921   NORMALIZED FREE ENERGY PREDICTED BY IDOCK:   -1.48 KCAL/MOL
REMARK 922        TOTAL FREE ENERGY PREDICTED BY IDOCK:   -2.15 KCAL/MOL
REMARK 923 INTER-LIGAND FREE ENERGY PREDICTED BY IDOCK:   -2.12 KCAL/MOL
REMARK 924 INTRA-LIGAND FREE ENERGY PREDICTED BY IDOCK:   -0.04 KCAL/MOL
REMARK 927      BINDING AFFINITY PREDICTED BY RF-SCORE:    0.00 PKD
ROOT
HETATM    1  C   UNL     1      -8.587   9.176  69.352  1.00  0.00    -0.138 C  
HETATM    2  N   UNL     1      -9.971   8.550  69.150  1.00  0.00    -0.187 N  
HETATM    3  C   UNL     1      -9.797   7.241  68.392  1.00  0.00    -0.155 C  
HETATM    4  C   UNL     1     -10.813   9.521  68.328  1.00  0.00    -0.145 C  
ENDROOT
BRANCH   2   5
HETATM    5  C   UNL     1     -10.595   8.324  70.545  1.00  0.00    -0.219 C  
BRANCH   5   6
HETATM    6  C   UNL     1     -11.208   6.931  70.761  1.00  0.00    -0.294 C  
BRANCH   6   7
HETATM    7  O   UNL     1     -11.617   6.763  72.130  1.00  0.00    -0.269 OA 
BRANCH   7   8
HETATM    8  C   UNL     1     -10.706   6.139  72.913  1.00  0.00    -0.247 C  
HETATM    9  N   UNL     1     -11.122   4.895  73.223  1.00  0.00    -0.314 N  
HETATM   10  O   UNL     1      -9.646   6.628  73.271  1.00  0.00    -0.148 OA 
HETATM   11  H1  UNL     1     -10.435   4.426  73.813  1.00  0.00     0.000 HD 
HETATM   12  H2  UNL     1     -12.001   4.482  72.912  1.00  0.00     0.000 HD 
ENDBRANCH   7   8
ENDBRANCH   6   7
ENDBRANCH   5   6
ENDBRANCH   2   5
TORSDOF 4
ENDMDL
MODEL      168
REMARK 921   NORMALIZED FREE ENERGY PREDICTED BY IDOCK:   -1.47 KCAL/MOL
REMARK 922        TOTAL FREE ENERGY PREDICTED BY IDOCK:   -2.14 KCAL/MOL
REMARK 923 INTER-LIGAND FREE ENERGY PREDICTED BY IDOCK:   -2.02 KCAL/MOL
REMARK 924 INTRA-LIGAND FREE ENERGY PREDICTED BY IDOCK:   -0.12 KCAL/MOL
REMARK 927      BINDING AFFINITY PREDICTED BY RF-SCORE:    0.00 PKD
ROOT
HETATM    1  C   UNL     1     -10.458  11.459  69.447  1.00  0.00     0.000 C  
HETATM    2  N   UNL     1      -9.676  10.701  68.369  1.00  0.00    -0.160 N  
HETATM    3  C   UNL     1     -10.593   9.644  67.770  1.00  0.00    -0.264 C  
HETATM    4  C   UNL     1      -8.476  10.035  69.034  1.00  0.00    -0.147 C  
ENDROOT
BRANCH   2   5
HETATM    5  C   UNL     1      -9.219  11.728  67.309  1.00  0.00    -0.173 C  
BRANCH   5   6
HETATM    6  C   UNL     1      -9.954  13.078  67.357  1.00  0.00    -0.228 C  
BRANCH   6   7
HETATM    7  O   UNL     1      -9.017  14.163  67.464  1.00  0.00    -0.180 OA 
BRANCH   7   8
HETATM    8  C   UNL     1      -9.162  15.122  66.519  1.00  0.00    -0.287 C  
HETATM    9  N   UNL     1      -8.223  16.077  66.667  1.00  0.00    -0.267 N  
HETATM   10  O   UNL     1     -10.012  15.112  65.643  1.00  0.00    -0.316 OA 
HETATM   11  H1  UNL     1      -8.332  16.799  65.955  1.00  0.00     0.000 HD 
HETATM   12  H2  UNL     1      -7.503  16.078  67.390  1.00  0.00     0.000 HD 
ENDBRANCH   7   8
ENDBRANCH   6   7
ENDBRANCH   5   6
ENDBRANCH   2   5
TORSDOF 4
ENDMDL
MODEL      169
REMARK 921   NORMALIZED FREE ENERGY PREDICTED BY IDOCK:   -1.44 KCAL/MOL
REMARK 922        TOTAL FREE ENERGY PREDICTED BY IDOCK:   -2.11 KCAL/MOL
REMARK 923 INTER-LIGAND FREE ENERGY PREDICTED BY IDOCK:   -2.01 KCAL/MOL
REMARK 924 INTRA-LIGAND FREE ENERGY PREDICTED BY IDOCK:   -0.10 KCAL/MOL
REMARK 927      BINDING AFFINITY PREDICTED BY RF-SCORE:    0.00 PKD
ROOT
HETATM    1  C   UNL     1     -10.908  11.270  65.136  1.00  0.00    -0.200 C  
HETATM    2  N   UNL     1      -9.787  11.301  66.180  1.00  0.00    -0.217 N  
HETATM    3  C   UNL     1     -10.266  10.556  67.418  1.00  0.00    -0.211 C  
HETATM    4  C   UNL     1      -9.503  12.759  66.526  1.00  0.00    -0.253 C  
ENDROOT
BRANCH   2   5
HETATM    5  C   UNL     1      -8.543  10.630  65.556  1.00  0.00    -0.185 C  
BRANCH   5   6
HETATM    6  C   UNL     1      -8.711  10.190  64.093  1.00  0.00    -0.204 C  
BRANCH   6   7
HETATM    7  O   UNL     1      -7.439   9.851  63.514  1.00  0.00    -0.126 OA 
BRANCH   7   8
HETATM    8  C   UNL     1      -7.445   8.716  62.776  1.00  0.00    -0.103 C  
HETATM    9  N   UNL     1      -8.704   8.393  62.419  1.00  0.00    -0.429 N  
HETATM   10  O   UNL     1      -6.449   8.085  62.462  1.00  0.00    -0.084 OA 
HETATM   11  H1  UNL     1      -8.709   7.538  61.863  1.00  0.00     0.000 HD 
HETATM   12  H2  UNL     1      -9.535   8.928  62.669  1.00  0.00     0.000 HD 
ENDBRANCH   7   8
ENDBRANCH   6   7
ENDBRANCH   5   6
ENDBRANCH   2   5
TORSDOF 4
ENDMDL
MODEL      170
REMARK 921   NORMALIZED FREE ENERGY PREDICTED BY IDOCK:   -1.43 KCAL/MOL
REMARK 922        TOTAL FREE ENERGY PREDICTED BY IDOCK:   -2.10 KCAL/MOL
REMARK 923 INTER-LIGAND FREE ENERGY PREDICTED BY IDOCK:   -2.00 KCAL/MOL
REMARK 924 INTRA-LIGAND FREE ENERGY PREDICTED BY IDOCK:   -0.10 KCAL/MOL
REMARK 927      BINDING AFFINITY PREDICTED BY RF-SCORE:    0.00 PKD
ROOT
HETATM    1  C   UNL     1      -6.831   9.337  67.250  1.00  0.00    -0.080 C  
HETATM    2  N   UNL     1      -7.008   8.927  68.716  1.00  0.00    -0.062 N  
HETATM    3  C   UNL     1      -5.630   8.838  69.357  1.00  0.00    -0.035 C  
HETATM    4  C   UNL     1      -7.686   7.561  68.747  1.00  0.00    -0.119 C  
ENDROOT
BRANCH   2   5
HETATM    5  C   UNL     1      -7.888   9.996  69.402  1.00  0.00    -0.141 C  
BRANCH   5   6
HETATM    6  C   UNL     1      -9.396   9.697  69.389  1.00  0.00    -0.193 C  
BRANCH   6   7
HETATM    7  O   UNL     1     -10.155  10.913  69.277  1.00  0.00    -0.208 OA 
BRANCH   7   8
HETATM    8  C   UNL     1     -11.478  10.771  69.528  1.00  0.00    -0.294 C  
HETATM    9  N   UNL     1     -11.672  10.233  70.748  1.00  0.00    -0.334 N  
HETATM   10  O   UNL     1     -12.370  11.102  68.764  1.00  0.00    -0.539 OA 
HETATM   11  H1  UNL     1     -12.668  10.126  70.937  1.00  0.00     0.000 HD 
HETATM   12  H2  UNL     1     -10.926   9.970  71.392  1.00  0.00     0.000 HD 
ENDBRANCH   7   8
ENDBRANCH   6   7
ENDBRANCH   5   6
ENDBRANCH   2   5
TORSDOF 4
ENDMDL
MODEL      171
REMARK 921   NORMALIZED FREE ENERGY PREDICTED BY IDOCK:   -1.43 KCAL/MOL
REMARK 922        TOTAL FREE ENERGY PREDICTED BY IDOCK:   -2.10 KCAL/MOL
REMARK 923 INTER-LIGAND FREE ENERGY PREDICTED BY IDOCK:   -1.98 KCAL/MOL
REMARK 924 INTRA-LIGAND FREE ENERGY PREDICTED BY IDOCK:   -0.12 KCAL/MOL
REMARK 927      BINDING AFFINITY PREDICTED BY RF-SCORE:    0.00 PKD
ROOT
HETATM    1  C   UNL     1      -8.942  11.607  67.791  1.00  0.00    -0.170 C  
HETATM    2  N   UNL     1     -10.280  11.185  67.174  1.00  0.00    -0.194 N  
HETATM    3  C   UNL     1     -11.393  11.948  67.879  1.00  0.00    -0.291 C  
HETATM    4  C   UNL     1     -10.453   9.686  67.397  1.00  0.00    -0.257 C  
ENDROOT
BRANCH   2   5
HETATM    5  C   UNL     1     -10.228  11.516  65.665  1.00  0.00    -0.248 C  
BRANCH   5   6
HETATM    6  C   UNL     1      -9.693  10.384  64.773  1.00  0.00    -0.320 C  
BRANCH   6   7
HETATM    7  O   UNL     1      -8.403  10.726  64.236  1.00  0.00    -0.079 OA 
BRANCH   7   8
HETATM    8  C   UNL     1      -7.697   9.672  63.764  1.00  0.00    -0.130 C  
HETATM    9  N   UNL     1      -6.444  10.049  63.441  1.00  0.00    -0.131 N  
HETATM   10  O   UNL     1      -8.128   8.534  63.665  1.00  0.00    -0.156 OA 
HETATM   11  H1  UNL     1      -5.913   9.255  63.085  1.00  0.00     0.000 HD 
HETATM   12  H2  UNL     1      -6.080  10.997  63.537  1.00  0.00     0.000 HD 
ENDBRANCH   7   8
ENDBRANCH   6   7
ENDBRANCH   5   6
ENDBRANCH   2   5
TORSDOF 4
ENDMDL
MODEL      172
REMARK 921   NORMALIZED FREE ENERGY PREDICTED BY IDOCK:   -1.40 KCAL/MOL
REMARK 922        TOTAL FREE ENERGY PREDICTED BY IDOCK:   -2.06 KCAL/MOL
REMARK 923 INTER-LIGAND FREE ENERGY PREDICTED BY IDOCK:   -2.50 KCAL/MOL
REMARK 924 INTRA-LIGAND FREE ENERGY PREDICTED BY IDOCK:    0.44 KCAL/MOL
REMARK 927      BINDING AFFINITY PREDICTED BY RF-SCORE:    0.00 PKD
ROOT
HETATM    1  C   UNL     1      -8.192  16.145  68.759  1.00  0.00    -0.216 C  
HETATM    2  N   UNL     1      -9.650  16.573  68.564  1.00  0.00    -0.225 N  
HETATM    3  C   UNL     1      -9.694  18.093  68.484  1.00  0.00    -0.362 C  
HETATM    4  C   UNL     1     -10.451  16.090  69.769  1.00  0.00    -0.300 C  
ENDROOT
BRANCH   2   5
HETATM    5  C   UNL     1     -10.164  15.918  67.261  1.00  0.00    -0.278 C  
BRANCH   5   6
HETATM    6  C   UNL     1     -10.957  14.617  67.462  1.00  0.00    -0.298 C  
BRANCH   6   7
HETATM    7  O   UNL     1     -10.218  13.692  68.278  1.00  0.00    -0.231 OA 
BRANCH   7   8
HETATM    8  C   UNL     1      -9.942  12.511  67.674  1.00  0.00    -0.201 C  
HETATM    9  N   UNL     1      -8.621  12.402  67.432  1.00  0.00    -0.172 N  
HETATM   10  O   UNL     1     -10.772  11.657  67.406  1.00  0.00    -0.214 OA 
HETATM   11  H1  UNL     1      -8.414  11.513  66.978  1.00  0.00     0.000 HD 
HETATM   12  H2  UNL     1      -7.926  13.110  67.670  1.00  0.00     0.000 HD 
ENDBRANCH   7   8
ENDBRANCH   6   7
ENDBRANCH   5   6
ENDBRANCH   2   5
TORSDOF 4
ENDMDL
MODEL      173
REMARK 921   NORMALIZED FREE ENERGY PREDICTED BY IDOCK:   -1.40 KCAL/MOL
REMARK 922        TOTAL FREE ENERGY PREDICTED BY IDOCK:   -2.06 KCAL/MOL
REMARK 923 INTER-LIGAND FREE ENERGY PREDICTED BY IDOCK:   -1.94 KCAL/MOL
REMARK 924 INTRA-LIGAND FREE ENERGY PREDICTED BY IDOCK:   -0.11 KCAL/MOL
REMARK 927      BINDING AFFINITY PREDICTED BY RF-SCORE:    0.00 PKD
ROOT
HETATM    1  C   UNL     1      -7.478  10.113  70.008  1.00  0.00    -0.162 C  
HETATM    2  N   UNL     1      -7.429  10.800  68.639  1.00  0.00    -0.094 N  
HETATM    3  C   UNL     1      -6.925   9.791  67.616  1.00  0.00    -0.086 C  
HETATM    4  C   UNL     1      -6.460  11.974  68.734  1.00  0.00    -0.077 C  
ENDROOT
BRANCH   2   5
HETATM    5  C   UNL     1      -8.856  11.288  68.305  1.00  0.00    -0.158 C  
BRANCH   5   6
HETATM    6  C   UNL     1      -8.985  12.046  66.974  1.00  0.00    -0.198 C  
BRANCH   6   7
HETATM    7  O   UNL     1     -10.175  11.645  66.273  1.00  0.00    -0.215 OA 
BRANCH   7   8
HETATM    8  C   UNL     1     -10.900  12.672  65.769  1.00  0.00    -0.274 C  
HETATM    9  N   UNL     1     -11.704  13.192  66.718  1.00  0.00    -0.365 N  
HETATM   10  O   UNL     1     -10.820  13.082  64.623  1.00  0.00    -0.315 OA 
HETATM   11  H1  UNL     1     -12.249  13.965  66.338  1.00  0.00     0.000 HD 
HETATM   12  H2  UNL     1     -11.759  12.858  67.680  1.00  0.00     0.000 HD 
ENDBRANCH   7   8
ENDBRANCH   6   7
ENDBRANCH   5   6
ENDBRANCH   2   5
TORSDOF 4
ENDMDL
MODEL      174
REMARK 921   NORMALIZED FREE ENERGY PREDICTED BY IDOCK:   -1.37 KCAL/MOL
REMARK 922        TOTAL FREE ENERGY PREDICTED BY IDOCK:   -2.02 KCAL/MOL
REMARK 923 INTER-LIGAND FREE ENERGY PREDICTED BY IDOCK:   -1.84 KCAL/MOL
REMARK 924 INTRA-LIGAND FREE ENERGY PREDICTED BY IDOCK:   -0.18 KCAL/MOL
REMARK 927      BINDING AFFINITY PREDICTED BY RF-SCORE:    0.00 PKD
ROOT
HETATM    1  C   UNL     1      -7.333   9.281  70.635  1.00  0.00    -0.123 C  
HETATM    2  N   UNL     1      -7.327   8.406  69.377  1.00  0.00    -0.069 N  
HETATM    3  C   UNL     1      -6.086   8.746  68.564  1.00  0.00    -0.046 C  
HETATM    4  C   UNL     1      -8.582   8.725  68.572  1.00  0.00    -0.134 C  
ENDROOT
BRANCH   2   5
HETATM    5  C   UNL     1      -7.324   6.929  69.832  1.00  0.00    -0.088 C  
BRANCH   5   6
HETATM    6  C   UNL     1      -8.372   6.579  70.900  1.00  0.00    -0.126 C  
BRANCH   6   7
HETATM    7  O   UNL     1      -9.496   5.903  70.309  1.00  0.00    -0.157 OA 
BRANCH   7   8
HETATM    8  C   UNL     1     -10.701   6.410  70.660  1.00  0.00    -0.257 C  
HETATM    9  N   UNL     1     -11.458   6.627  69.566  1.00  0.00    -0.603 N  
HETATM   10  O   UNL     1     -11.059   6.622  71.807  1.00  0.00    -0.233 OA 
HETATM   11  H1  UNL     1     -12.365   7.009  69.830  1.00  0.00     0.000 HD 
HETATM   12  H2  UNL     1     -11.163   6.436  68.608  1.00  0.00     0.000 HD 
ENDBRANCH   7   8
ENDBRANCH   6   7
ENDBRANCH   5   6
ENDBRANCH   2   5
TORSDOF 4
ENDMDL
MODEL      175
REMARK 921   NORMALIZED FREE ENERGY PREDICTED BY IDOCK:   -1.35 KCAL/MOL
REMARK 922        TOTAL FREE ENERGY PREDICTED BY IDOCK:   -2.00 KCAL/MOL
REMARK 923 INTER-LIGAND FREE ENERGY PREDICTED BY IDOCK:   -2.08 KCAL/MOL
REMARK 924 INTRA-LIGAND FREE ENERGY PREDICTED BY IDOCK:    0.08 KCAL/MOL
REMARK 927      BINDING AFFINITY PREDICTED BY RF-SCORE:    0.00 PKD
ROOT
HETATM    1  C   UNL     1     -10.338   5.491  69.295  1.00  0.00    -0.265 C  
HETATM    2  N   UNL     1     -10.396   6.909  69.872  1.00  0.00    -0.199 N  
HETATM    3  C   UNL     1      -9.065   7.203  70.550  1.00  0.00    -0.155 C  
HETATM    4  C   UNL     1     -11.525   6.957  70.898  1.00  0.00    -0.323 C  
ENDROOT
BRANCH   2   5
HETATM    5  C   UNL     1     -10.671   7.883  68.704  1.00  0.00    -0.035 C  
BRANCH   5   6
HETATM    6  C   UNL     1     -10.727   7.226  67.315  1.00  0.00    -0.321 C  
BRANCH   6   7
HETATM    7  O   UNL     1      -9.559   7.561  66.546  1.00  0.00    -0.192 OA 
BRANCH   7   8
HETATM    8  C   UNL     1      -9.210   8.868  66.601  1.00  0.00    -0.170 C  
HETATM    9  N   UNL     1      -9.991   9.600  65.782  1.00  0.00    -0.296 N  
HETATM   10  O   UNL     1      -8.326   9.323  67.309  1.00  0.00    -0.123 OA 
HETATM   11  H1  UNL     1      -9.729  10.584  65.824  1.00  0.00     0.000 HD 
HETATM   12  H2  UNL     1     -10.740   9.222  65.202  1.00  0.00     0.000 HD 
ENDBRANCH   7   8
ENDBRANCH   6   7
ENDBRANCH   5   6
ENDBRANCH   2   5
TORSDOF 4
ENDMDL
MODEL      176
REMARK 921   NORMALIZED FREE ENERGY PREDICTED BY IDOCK:   -1.35 KCAL/MOL
REMARK 922        TOTAL FREE ENERGY PREDICTED BY IDOCK:   -2.00 KCAL/MOL
REMARK 923 INTER-LIGAND FREE ENERGY PREDICTED BY IDOCK:   -1.89 KCAL/MOL
REMARK 924 INTRA-LIGAND FREE ENERGY PREDICTED BY IDOCK:   -0.10 KCAL/MOL
REMARK 927      BINDING AFFINITY PREDICTED BY RF-SCORE:    0.00 PKD
ROOT
HETATM    1  C   UNL     1      -7.946   5.856  71.848  1.00  0.00    -0.107 C  
HETATM    2  N   UNL     1      -9.303   5.658  71.166  1.00  0.00    -0.152 N  
HETATM    3  C   UNL     1     -10.302   6.614  71.802  1.00  0.00    -0.196 C  
HETATM    4  C   UNL     1      -9.743   4.216  71.396  1.00  0.00    -0.181 C  
ENDROOT
BRANCH   2   5
HETATM    5  C   UNL     1      -9.119   5.944  69.658  1.00  0.00    -0.137 C  
BRANCH   5   6
HETATM    6  C   UNL     1      -9.803   4.937  68.721  1.00  0.00    -0.161 C  
BRANCH   6   7
HETATM    7  O   UNL     1      -9.245   5.013  67.397  1.00  0.00    -0.114 OA 
BRANCH   7   8
HETATM    8  C   UNL     1     -10.105   5.462  66.453  1.00  0.00    -0.204 C  
HETATM    9  N   UNL     1      -9.763   4.988  65.239  1.00  0.00    -0.358 N  
HETATM   10  O   UNL     1     -11.069   6.178  66.674  1.00  0.00    -0.284 OA 
HETATM   11  H1  UNL     1     -10.411   5.326  64.528  1.00  0.00     0.000 HD 
HETATM   12  H2  UNL     1      -8.967   4.377  65.057  1.00  0.00     0.000 HD 
ENDBRANCH   7   8
ENDBRANCH   6   7
ENDBRANCH   5   6
ENDBRANCH   2   5
TORSDOF 4
ENDMDL
MODEL      177
REMARK 921   NORMALIZED FREE ENERGY PREDICTED BY IDOCK:   -1.32 KCAL/MOL
REMARK 922        TOTAL FREE ENERGY PREDICTED BY IDOCK:   -1.96 KCAL/MOL
REMARK 923 INTER-LIGAND FREE ENERGY PREDICTED BY IDOCK:   -1.83 KCAL/MOL
REMARK 924 INTRA-LIGAND FREE ENERGY PREDICTED BY IDOCK:   -0.12 KCAL/MOL
REMARK 927      BINDING AFFINITY PREDICTED BY RF-SCORE:    0.00 PKD
ROOT
HETATM    1  C   UNL     1      -7.871  15.788  69.290  1.00  0.00    -0.233 C  
HETATM    2  N   UNL     1      -9.111  16.315  68.561  1.00  0.00    -0.207 N  
HETATM    3  C   UNL     1      -9.842  17.272  69.492  1.00  0.00     0.149 C  
HETATM    4  C   UNL     1     -10.006  15.126  68.227  1.00  0.00    -0.223 C  
ENDROOT
BRANCH   2   5
HETATM    5  C   UNL     1      -8.634  17.024  67.273  1.00  0.00    -0.195 C  
BRANCH   5   6
HETATM    6  C   UNL     1      -9.417  18.296  66.907  1.00  0.00    -0.290 C  
BRANCH   6   7
HETATM    7  O   UNL     1      -8.524  19.333  66.464  1.00  0.00    -0.298 OA 
BRANCH   7   8
HETATM    8  C   UNL     1      -8.371  20.352  67.343  1.00  0.00    -0.318 C  
HETATM    9  N   UNL     1      -7.332  20.112  68.167  1.00  0.00    -0.274 N  
HETATM   10  O   UNL     1      -9.065  21.355  67.371  1.00  0.00     0.057 OA 
HETATM   11  H1  UNL     1      -7.217  20.880  68.828  1.00  0.00     0.000 HD 
HETATM   12  H2  UNL     1      -6.743  19.280  68.133  1.00  0.00     0.000 HD 
ENDBRANCH   7   8
ENDBRANCH   6   7
ENDBRANCH   5   6
ENDBRANCH   2   5
TORSDOF 4
ENDMDL
MODEL      178
REMARK 921   NORMALIZED FREE ENERGY PREDICTED BY IDOCK:   -1.31 KCAL/MOL
REMARK 922        TOTAL FREE ENERGY PREDICTED BY IDOCK:   -1.95 KCAL/MOL
REMARK 923 INTER-LIGAND FREE ENERGY PREDICTED BY IDOCK:   -1.83 KCAL/MOL
REMARK 924 INTRA-LIGAND FREE ENERGY PREDICTED BY IDOCK:   -0.12 KCAL/MOL
REMARK 927      BINDING AFFINITY PREDICTED BY RF-SCORE:    0.00 PKD
ROOT
HETATM    1  C   UNL     1     -11.021  11.775  65.155  1.00  0.00    -0.294 C  
HETATM    2  N   UNL     1     -10.317  11.605  66.505  1.00  0.00    -0.218 N  
HETATM    3  C   UNL     1     -11.282  10.922  67.465  1.00  0.00    -0.293 C  
HETATM    4  C   UNL     1      -9.957  12.992  67.029  1.00  0.00    -0.242 C  
ENDROOT
BRANCH   2   5
HETATM    5  C   UNL     1      -9.047  10.757  66.271  1.00  0.00    -0.175 C  
BRANCH   5   6
HETATM    6  C   UNL     1      -9.184   9.672  65.191  1.00  0.00    -0.246 C  
BRANCH   6   7
HETATM    7  O   UNL     1      -7.889   9.228  64.749  1.00  0.00    -0.110 OA 
BRANCH   7   8
HETATM    8  C   UNL     1      -7.513   8.024  65.242  1.00  0.00    -0.080 C  
HETATM    9  N   UNL     1      -6.181   7.993  65.445  1.00  0.00    -0.045 N  
HETATM   10  O   UNL     1      -8.276   7.104  65.487  1.00  0.00    -0.129 OA 
HETATM   11  H1  UNL     1      -5.898   7.087  65.817  1.00  0.00     0.000 HD 
HETATM   12  H2  UNL     1      -5.546   8.767  65.255  1.00  0.00     0.000 HD 
ENDBRANCH   7   8
ENDBRANCH   6   7
ENDBRANCH   5   6
ENDBRANCH   2   5
TORSDOF 4
ENDMDL
MODEL      179
REMARK 921   NORMALIZED FREE ENERGY PREDICTED BY IDOCK:   -1.30 KCAL/MOL
REMARK 922        TOTAL FREE ENERGY PREDICTED BY IDOCK:   -1.94 KCAL/MOL
REMARK 923 INTER-LIGAND FREE ENERGY PREDICTED BY IDOCK:   -1.74 KCAL/MOL
REMARK 924 INTRA-LIGAND FREE ENERGY PREDICTED BY IDOCK:   -0.20 KCAL/MOL
REMARK 927      BINDING AFFINITY PREDICTED BY RF-SCORE:    0.00 PKD
ROOT
HETATM    1  C   UNL     1      -9.208  10.798  68.426  1.00  0.00    -0.164 C  
HETATM    2  N   UNL     1      -9.159  10.213  67.011  1.00  0.00    -0.138 N  
HETATM    3  C   UNL     1     -10.404   9.362  66.802  1.00  0.00    -0.233 C  
HETATM    4  C   UNL     1      -7.910   9.346  66.900  1.00  0.00    -0.105 C  
ENDROOT
BRANCH   2   5
HETATM    5  C   UNL     1      -9.102  11.394  66.015  1.00  0.00    -0.208 C  
BRANCH   5   6
HETATM    6  C   UNL     1     -10.469  11.967  65.612  1.00  0.00    -0.256 C  
BRANCH   6   7
HETATM    7  O   UNL     1     -10.465  12.369  64.231  1.00  0.00    -0.317 OA 
BRANCH   7   8
HETATM    8  C   UNL     1     -10.621  11.350  63.352  1.00  0.00    -0.368 C  
HETATM    9  N   UNL     1     -11.867  10.843  63.435  1.00  0.00     0.278 N  
HETATM   10  O   UNL     1      -9.761  10.960  62.580  1.00  0.00    -0.230 OA 
HETATM   11  H1  UNL     1     -11.985  10.076  62.774  1.00  0.00     0.000 HD 
HETATM   12  H2  UNL     1     -12.591  11.179  64.071  1.00  0.00     0.000 HD 
ENDBRANCH   7   8
ENDBRANCH   6   7
ENDBRANCH   5   6
ENDBRANCH   2   5
TORSDOF 4
ENDMDL
MODEL      180
REMARK 921   NORMALIZED FREE ENERGY PREDICTED BY IDOCK:   -1.29 KCAL/MOL
REMARK 922        TOTAL FREE ENERGY PREDICTED BY IDOCK:   -1.92 KCAL/MOL
REMARK 923 INTER-LIGAND FREE ENERGY PREDICTED BY IDOCK:   -1.81 KCAL/MOL
REMARK 924 INTRA-LIGAND FREE ENERGY PREDICTED BY IDOCK:   -0.12 KCAL/MOL
REMARK 927      BINDING AFFINITY PREDICTED BY RF-SCORE:    0.00 PKD
ROOT
HETATM    1  C   UNL     1      -9.577  13.941  67.738  1.00  0.00    -0.222 C  
HETATM    2  N   UNL     1     -10.753  12.989  67.497  1.00  0.00    -0.236 N  
HETATM    3  C   UNL     1     -10.987  12.889  65.996  1.00  0.00    -0.276 C  
HETATM    4  C   UNL     1     -11.985  13.578  68.178  1.00  0.00    -0.341 C  
ENDROOT
BRANCH   2   5
HETATM    5  C   UNL     1     -10.385  11.619  68.111  1.00  0.00    -0.194 C  
BRANCH   5   6
HETATM    6  C   UNL     1      -9.172  10.928  67.468  1.00  0.00    -0.147 C  
BRANCH   6   7
HETATM    7  O   UNL     1      -8.036  10.971  68.350  1.00  0.00    -0.119 OA 
BRANCH   7   8
HETATM    8  C   UNL     1      -6.839  10.982  67.717  1.00  0.00    -0.069 C  
HETATM    9  N   UNL     1      -6.488  12.243  67.396  1.00  0.00    -0.144 N  
HETATM   10  O   UNL     1      -6.164   9.992  67.489  1.00  0.00    -0.057 OA 
HETATM   11  H1  UNL     1      -5.586  12.252  66.920  1.00  0.00     0.000 HD 
HETATM   12  H2  UNL     1      -7.045  13.072  67.600  1.00  0.00     0.000 HD 
ENDBRANCH   7   8
ENDBRANCH   6   7
ENDBRANCH   5   6
ENDBRANCH   2   5
TORSDOF 4
ENDMDL
MODEL      181
REMARK 921   NORMALIZED FREE ENERGY PREDICTED BY IDOCK:   -1.29 KCAL/MOL
REMARK 922        TOTAL FREE ENERGY PREDICTED BY IDOCK:   -1.92 KCAL/MOL
REMARK 923 INTER-LIGAND FREE ENERGY PREDICTED BY IDOCK:   -1.82 KCAL/MOL
REMARK 924 INTRA-LIGAND FREE ENERGY PREDICTED BY IDOCK:   -0.10 KCAL/MOL
REMARK 927      BINDING AFFINITY PREDICTED BY RF-SCORE:    0.00 PKD
ROOT
HETATM    1  C   UNL     1      -5.921   7.879  68.515  1.00  0.00    -0.039 C  
HETATM    2  N   UNL     1      -7.043   8.114  67.498  1.00  0.00    -0.081 N  
HETATM    3  C   UNL     1      -6.409   8.488  66.166  1.00  0.00    -0.053 C  
HETATM    4  C   UNL     1      -7.908   9.264  68.005  1.00  0.00    -0.092 C  
ENDROOT
BRANCH   2   5
HETATM    5  C   UNL     1      -7.865   6.810  67.393  1.00  0.00    -0.110 C  
BRANCH   5   6
HETATM    6  C   UNL     1      -8.959   6.648  68.460  1.00  0.00    -0.120 C  
BRANCH   6   7
HETATM    7  O   UNL     1      -9.872   5.597  68.097  1.00  0.00    -0.124 OA 
BRANCH   7   8
HETATM    8  C   UNL     1     -10.661   5.886  67.035  1.00  0.00    -0.318 C  
HETATM    9  N   UNL     1     -10.793   4.807  66.238  1.00  0.00    -0.528 N  
HETATM   10  O   UNL     1     -11.195   6.965  66.837  1.00  0.00    -0.353 OA 
HETATM   11  H1  UNL     1     -11.387   5.024  65.438  1.00  0.00     0.000 HD 
HETATM   12  H2  UNL     1     -10.359   3.900  66.411  1.00  0.00     0.000 HD 
ENDBRANCH   7   8
ENDBRANCH   6   7
ENDBRANCH   5   6
ENDBRANCH   2   5
TORSDOF 4
ENDMDL
MODEL      182
REMARK 921   NORMALIZED FREE ENERGY PREDICTED BY IDOCK:   -1.28 KCAL/MOL
REMARK 922        TOTAL FREE ENERGY PREDICTED BY IDOCK:   -1.91 KCAL/MOL
REMARK 923 INTER-LIGAND FREE ENERGY PREDICTED BY IDOCK:   -1.61 KCAL/MOL
REMARK 924 INTRA-LIGAND FREE ENERGY PREDICTED BY IDOCK:   -0.30 KCAL/MOL
REMARK 927      BINDING AFFINITY PREDICTED BY RF-SCORE:    0.00 PKD
ROOT
HETATM    1  C   UNL     1     -11.628  11.103  68.355  1.00  0.00    -0.306 C  
HETATM    2  N   UNL     1     -10.201  10.607  68.100  1.00  0.00    -0.162 N  
HETATM    3  C   UNL     1     -10.218   9.717  66.865  1.00  0.00    -0.245 C  
HETATM    4  C   UNL     1      -9.754   9.803  69.316  1.00  0.00    -0.196 C  
ENDROOT
BRANCH   2   5
HETATM    5  C   UNL     1      -9.301  11.847  67.898  1.00  0.00    -0.187 C  
BRANCH   5   6
HETATM    6  C   UNL     1      -8.488  11.850  66.593  1.00  0.00    -0.143 C  
BRANCH   6   7
HETATM    7  O   UNL     1      -7.084  11.704  66.868  1.00  0.00    -0.142 OA 
BRANCH   7   8
HETATM    8  C   UNL     1      -6.628  10.431  66.784  1.00  0.00    -0.078 C  
HETATM    9  N   UNL     1      -6.378  10.104  65.501  1.00  0.00    -0.094 N  
HETATM   10  O   UNL     1      -6.450   9.692  67.738  1.00  0.00    -0.057 OA 
HETATM   11  H1  UNL     1      -6.034   9.146  65.438  1.00  0.00     0.000 HD 
HETATM   12  H2  UNL     1      -6.513  10.727  64.705  1.00  0.00     0.000 HD 
ENDBRANCH   7   8
ENDBRANCH   6   7
ENDBRANCH   5   6
ENDBRANCH   2   5
TORSDOF 4
ENDMDL
MODEL      183
REMARK 921   NORMALIZED FREE ENERGY PREDICTED BY IDOCK:   -1.25 KCAL/MOL
REMARK 922        TOTAL FREE ENERGY PREDICTED BY IDOCK:   -1.88 KCAL/MOL
REMARK 923 INTER-LIGAND FREE ENERGY PREDICTED BY IDOCK:   -1.73 KCAL/MOL
REMARK 924 INTRA-LIGAND FREE ENERGY PREDICTED BY IDOCK:   -0.15 KCAL/MOL
REMARK 927      BINDING AFFINITY PREDICTED BY RF-SCORE:    0.00 PKD
ROOT
HETATM    1  C   UNL     1      -8.053   9.785  70.219  1.00  0.00    -0.154 C  
HETATM    2  N   UNL     1      -9.201   8.973  69.612  1.00  0.00    -0.153 N  
HETATM    3  C   UNL     1     -10.281   9.942  69.152  1.00  0.00    -0.205 C  
HETATM    4  C   UNL     1      -9.754   8.052  70.694  1.00  0.00    -0.173 C  
ENDROOT
BRANCH   2   5
HETATM    5  C   UNL     1      -8.628   8.155  68.432  1.00  0.00    -0.130 C  
BRANCH   5   6
HETATM    6  C   UNL     1      -9.462   8.209  67.142  1.00  0.00    -0.161 C  
BRANCH   6   7
HETATM    7  O   UNL     1      -8.614   8.117  65.984  1.00  0.00    -0.131 OA 
BRANCH   7   8
HETATM    8  C   UNL     1      -8.837   9.073  65.051  1.00  0.00    -0.170 C  
HETATM    9  N   UNL     1      -9.791   9.928  65.470  1.00  0.00    -0.302 N  
HETATM   10  O   UNL     1      -8.243   9.160  63.989  1.00  0.00    -0.149 OA 
HETATM   11  H1  UNL     1      -9.959  10.648  64.768  1.00  0.00     0.000 HD 
HETATM   12  H2  UNL     1     -10.277   9.864  66.365  1.00  0.00     0.000 HD 
ENDBRANCH   7   8
ENDBRANCH   6   7
ENDBRANCH   5   6
ENDBRANCH   2   5
TORSDOF 4
ENDMDL
MODEL      184
REMARK 921   NORMALIZED FREE ENERGY PREDICTED BY IDOCK:   -1.25 KCAL/MOL
REMARK 922        TOTAL FREE ENERGY PREDICTED BY IDOCK:   -1.87 KCAL/MOL
REMARK 923 INTER-LIGAND FREE ENERGY PREDICTED BY IDOCK:   -1.55 KCAL/MOL
REMARK 924 INTRA-LIGAND FREE ENERGY PREDICTED BY IDOCK:   -0.32 KCAL/MOL
REMARK 927      BINDING AFFINITY PREDICTED BY RF-SCORE:    0.00 PKD
ROOT
HETATM    1  C   UNL     1      -9.367   7.029  68.917  1.00  0.00    -0.139 C  
HETATM    2  N   UNL     1      -9.377   6.696  67.422  1.00  0.00    -0.127 N  
HETATM    3  C   UNL     1      -7.939   6.487  66.969  1.00  0.00    -0.112 C  
HETATM    4  C   UNL     1      -9.991   7.877  66.678  1.00  0.00    -0.246 C  
ENDROOT
BRANCH   2   5
HETATM    5  C   UNL     1     -10.228   5.420  67.229  1.00  0.00    -0.214 C  
BRANCH   5   6
HETATM    6  C   UNL     1      -9.420   4.137  66.973  1.00  0.00    -0.192 C  
BRANCH   6   7
HETATM    7  O   UNL     1      -9.695   3.153  67.986  1.00  0.00    -0.138 OA 
BRANCH   7   8
HETATM    8  C   UNL     1      -9.132   3.418  69.189  1.00  0.00    -0.142 C  
HETATM    9  N   UNL     1      -7.788   3.390  69.098  1.00  0.00    -0.051 N  
HETATM   10  O   UNL     1      -9.755   3.669  70.208  1.00  0.00    -0.189 OA 
HETATM   11  H1  UNL     1      -7.365   3.590  70.004  1.00  0.00     0.000 HD 
HETATM   12  H2  UNL     1      -7.267   3.195  68.243  1.00  0.00     0.000 HD 
ENDBRANCH   7   8
ENDBRANCH   6   7
ENDBRANCH   5   6
ENDBRANCH   2   5
TORSDOF 4
ENDMDL
MODEL      185
REMARK 921   NORMALIZED FREE ENERGY PREDICTED BY IDOCK:   -1.24 KCAL/MOL
REMARK 922        TOTAL FREE ENERGY PREDICTED BY IDOCK:   -1.86 KCAL/MOL
REMARK 923 INTER-LIGAND FREE ENERGY PREDICTED BY IDOCK:   -1.76 KCAL/MOL
REMARK 924 INTRA-LIGAND FREE ENERGY PREDICTED BY IDOCK:   -0.10 KCAL/MOL
REMARK 927      BINDING AFFINITY PREDICTED BY RF-SCORE:    0.00 PKD
ROOT
HETATM    1  C   UNL     1      -8.896   9.986  69.348  1.00  0.00    -0.190 C  
HETATM    2  N   UNL     1     -10.093  10.519  68.554  1.00  0.00    -0.166 N  
HETATM    3  C   UNL     1     -11.277  10.644  69.502  1.00  0.00    -0.272 C  
HETATM    4  C   UNL     1     -10.413   9.517  67.450  1.00  0.00    -0.272 C  
ENDROOT
BRANCH   2   5
HETATM    5  C   UNL     1      -9.691  11.888  67.958  1.00  0.00    -0.191 C  
BRANCH   5   6
HETATM    6  C   UNL     1      -8.214  12.267  68.146  1.00  0.00    -0.168 C  
BRANCH   6   7
HETATM    7  O   UNL     1      -8.094  13.597  68.681  1.00  0.00    -0.139 OA 
BRANCH   7   8
HETATM    8  C   UNL     1      -6.911  14.200  68.416  1.00  0.00    -0.098 C  
HETATM    9  N   UNL     1      -7.089  15.240  67.578  1.00  0.00    -0.183 N  
HETATM   10  O   UNL     1      -5.837  13.862  68.887  1.00  0.00    -0.079 OA 
HETATM   11  H1  UNL     1      -6.198  15.695  67.379  1.00  0.00     0.000 HD 
HETATM   12  H2  UNL     1      -7.989  15.531  67.196  1.00  0.00     0.000 HD 
ENDBRANCH   7   8
ENDBRANCH   6   7
ENDBRANCH   5   6
ENDBRANCH   2   5
TORSDOF 4
ENDMDL
MODEL      186
REMARK 921   NORMALIZED FREE ENERGY PREDICTED BY IDOCK:   -1.23 KCAL/MOL
REMARK 922        TOTAL FREE ENERGY PREDICTED BY IDOCK:   -1.85 KCAL/MOL
REMARK 923 INTER-LIGAND FREE ENERGY PREDICTED BY IDOCK:   -1.74 KCAL/MOL
REMARK 924 INTRA-LIGAND FREE ENERGY PREDICTED BY IDOCK:   -0.11 KCAL/MOL
REMARK 927      BINDING AFFINITY PREDICTED BY RF-SCORE:    0.00 PKD
ROOT
HETATM    1  C   UNL     1      -6.012   7.659  68.869  1.00  0.00    -0.031 C  
HETATM    2  N   UNL     1      -7.377   8.296  69.151  1.00  0.00    -0.079 N  
HETATM    3  C   UNL     1      -8.371   7.765  68.128  1.00  0.00    -0.124 C  
HETATM    4  C   UNL     1      -7.234   9.807  69.004  1.00  0.00    -0.076 C  
ENDROOT
BRANCH   2   5
HETATM    5  C   UNL     1      -7.784   7.918  70.593  1.00  0.00    -0.090 C  
BRANCH   5   6
HETATM    6  C   UNL     1      -9.258   7.519  70.765  1.00  0.00    -0.158 C  
BRANCH   6   7
HETATM    7  O   UNL     1      -9.434   6.716  71.945  1.00  0.00    -0.152 OA 
BRANCH   7   8
HETATM    8  C   UNL     1     -10.040   7.358  72.972  1.00  0.00    -0.273 C  
HETATM    9  N   UNL     1      -9.177   7.536  73.992  1.00  0.00    -0.353 N  
HETATM   10  O   UNL     1     -11.199   7.740  72.966  1.00  0.00    -0.405 OA 
HETATM   11  H1  UNL     1      -9.634   8.019  74.765  1.00  0.00     0.000 HD 
HETATM   12  H2  UNL     1      -8.205   7.230  73.991  1.00  0.00     0.000 HD 
ENDBRANCH   7   8
ENDBRANCH   6   7
ENDBRANCH   5   6
ENDBRANCH   2   5
TORSDOF 4
ENDMDL
MODEL      187
REMARK 921   NORMALIZED FREE ENERGY PREDICTED BY IDOCK:   -1.23 KCAL/MOL
REMARK 922        TOTAL FREE ENERGY PREDICTED BY IDOCK:   -1.85 KCAL/MOL
REMARK 923 INTER-LIGAND FREE ENERGY PREDICTED BY IDOCK:   -1.69 KCAL/MOL
REMARK 924 INTRA-LIGAND FREE ENERGY PREDICTED BY IDOCK:   -0.15 KCAL/MOL
REMARK 927      BINDING AFFINITY PREDICTED BY RF-SCORE:    0.00 PKD
ROOT
HETATM    1  C   UNL     1      -9.352   9.052  71.053  1.00  0.00    -0.271 C  
HETATM    2  N   UNL     1      -9.913   7.960  71.969  1.00  0.00    -0.182 N  
HETATM    3  C   UNL     1     -11.341   8.336  72.340  1.00  0.00    -0.388 C  
HETATM    4  C   UNL     1      -9.047   7.901  73.223  1.00  0.00    -0.278 C  
ENDROOT
BRANCH   2   5
HETATM    5  C   UNL     1      -9.857   6.622  71.197  1.00  0.00    -0.181 C  
BRANCH   5   6
HETATM    6  C   UNL     1      -8.888   6.604  70.004  1.00  0.00    -0.141 C  
BRANCH   6   7
HETATM    7  O   UNL     1      -7.674   5.914  70.345  1.00  0.00    -0.091 OA 
BRANCH   7   8
HETATM    8  C   UNL     1      -7.110   5.235  69.318  1.00  0.00    -0.057 C  
HETATM    9  N   UNL     1      -8.053   4.843  68.438  1.00  0.00    -0.085 N  
HETATM   10  O   UNL     1      -5.914   5.025  69.196  1.00  0.00    -0.019 OA 
HETATM   11  H1  UNL     1      -7.628   4.332  67.665  1.00  0.00     0.000 HD 
HETATM   12  H2  UNL     1      -9.051   5.031  68.533  1.00  0.00     0.000 HD 
ENDBRANCH   7   8
ENDBRANCH   6   7
ENDBRANCH   5   6
ENDBRANCH   2   5
TORSDOF 4
ENDMDL
MODEL      188
REMARK 921   NORMALIZED FREE ENERGY PREDICTED BY IDOCK:   -1.23 KCAL/MOL
REMARK 922        TOTAL FREE ENERGY PREDICTED BY IDOCK:   -1.85 KCAL/MOL
REMARK 923 INTER-LIGAND FREE ENERGY PREDICTED BY IDOCK:   -1.68 KCAL/MOL
REMARK 924 INTRA-LIGAND FREE ENERGY PREDICTED BY IDOCK:   -0.17 KCAL/MOL
REMARK 927      BINDING AFFINITY PREDICTED BY RF-SCORE:    0.00 PKD
ROOT
HETATM    1  C   UNL     1      -9.973  10.725  68.942  1.00  0.00    -0.202 C  
HETATM    2  N   UNL     1      -9.301  10.480  67.587  1.00  0.00    -0.148 N  
HETATM    3  C   UNL     1      -7.818  10.792  67.726  1.00  0.00    -0.109 C  
HETATM    4  C   UNL     1      -9.938  11.418  66.566  1.00  0.00    -0.211 C  
ENDROOT
BRANCH   2   5
HETATM    5  C   UNL     1      -9.541   9.002  67.203  1.00  0.00    -0.167 C  
BRANCH   5   6
HETATM    6  C   UNL     1      -8.445   8.377  66.325  1.00  0.00    -0.127 C  
BRANCH   6   7
HETATM    7  O   UNL     1      -8.901   8.229  64.969  1.00  0.00    -0.080 OA 
BRANCH   7   8
HETATM    8  C   UNL     1      -7.989   8.579  64.032  1.00  0.00    -0.159 C  
HETATM    9  N   UNL     1      -8.555   8.600  62.808  1.00  0.00    -0.395 N  
HETATM   10  O   UNL     1      -6.824   8.856  64.264  1.00  0.00    -0.081 OA 
HETATM   11  H1  UNL     1      -7.868   8.864  62.102  1.00  0.00     0.000 HD 
HETATM   12  H2  UNL     1      -9.532   8.382  62.616  1.00  0.00     0.000 HD 
ENDBRANCH   7   8
ENDBRANCH   6   7
ENDBRANCH   5   6
ENDBRANCH   2   5
TORSDOF 4
ENDMDL
MODEL      189
REMARK 921   NORMALIZED FREE ENERGY PREDICTED BY IDOCK:   -1.23 KCAL/MOL
REMARK 922        TOTAL FREE ENERGY PREDICTED BY IDOCK:   -1.84 KCAL/MOL
REMARK 923 INTER-LIGAND FREE ENERGY PREDICTED BY IDOCK:   -1.74 KCAL/MOL
REMARK 924 INTRA-LIGAND FREE ENERGY PREDICTED BY IDOCK:   -0.10 KCAL/MOL
REMARK 927      BINDING AFFINITY PREDICTED BY RF-SCORE:    0.00 PKD
ROOT
HETATM    1  C   UNL     1      -8.707   4.775  67.913  1.00  0.00    -0.103 C  
HETATM    2  N   UNL     1      -9.216   5.441  66.631  1.00  0.00    -0.128 N  
HETATM    3  C   UNL     1      -9.826   4.365  65.744  1.00  0.00    -0.225 C  
HETATM    4  C   UNL     1      -8.027   6.085  65.927  1.00  0.00    -0.111 C  
ENDROOT
BRANCH   2   5
HETATM    5  C   UNL     1     -10.260   6.506  67.036  1.00  0.00    -0.215 C  
BRANCH   5   6
HETATM    6  C   UNL     1      -9.669   7.832  67.540  1.00  0.00    -0.158 C  
BRANCH   6   7
HETATM    7  O   UNL     1     -10.431   8.948  67.049  1.00  0.00    -0.274 OA 
BRANCH   7   8
HETATM    8  C   UNL     1      -9.763  10.126  67.054  1.00  0.00    -0.180 C  
HETATM    9  N   UNL     1     -10.612  11.149  67.278  1.00  0.00    -0.225 N  
HETATM   10  O   UNL     1      -8.558  10.243  66.899  1.00  0.00    -0.126 OA 
HETATM   11  H1  UNL     1     -10.109  12.036  67.283  1.00  0.00     0.000 HD 
HETATM   12  H2  UNL     1     -11.616  11.049  67.423  1.00  0.00     0.000 HD 
ENDBRANCH   7   8
ENDBRANCH   6   7
ENDBRANCH   5   6
ENDBRANCH   2   5
TORSDOF 4
ENDMDL
MODEL      190
REMARK 921   NORMALIZED FREE ENERGY PREDICTED BY IDOCK:   -1.22 KCAL/MOL
REMARK 922        TOTAL FREE ENERGY PREDICTED BY IDOCK:   -1.84 KCAL/MOL
REMARK 923 INTER-LIGAND FREE ENERGY PREDICTED BY IDOCK:   -1.71 KCAL/MOL
REMARK 924 INTRA-LIGAND FREE ENERGY PREDICTED BY IDOCK:   -0.13 KCAL/MOL
REMARK 927      BINDING AFFINITY PREDICTED BY RF-SCORE:    0.00 PKD
ROOT
HETATM    1  C   UNL     1      -8.617   8.358  68.530  1.00  0.00    -0.136 C  
HETATM    2  N   UNL     1      -8.051   9.753  68.816  1.00  0.00    -0.099 N  
HETATM    3  C   UNL     1      -6.636   9.818  68.259  1.00  0.00    -0.056 C  
HETATM    4  C   UNL     1      -8.025   9.952  70.328  1.00  0.00    -0.109 C  
ENDROOT
BRANCH   2   5
HETATM    5  C   UNL     1      -8.979  10.787  68.139  1.00  0.00    -0.140 C  
BRANCH   5   6
HETATM    6  C   UNL     1      -8.620  11.122  66.683  1.00  0.00    -0.165 C  
BRANCH   6   7
HETATM    7  O   UNL     1      -9.536  10.488  65.774  1.00  0.00    -0.187 OA 
BRANCH   7   8
HETATM    8  C   UNL     1      -9.112  10.452  64.489  1.00  0.00    -0.229 C  
HETATM    9  N   UNL     1     -10.163  10.369  63.648  1.00  0.00    -0.470 N  
HETATM   10  O   UNL     1      -7.945  10.508  64.139  1.00  0.00    -0.114 OA 
HETATM   11  H1  UNL     1      -9.844  10.343  62.680  1.00  0.00     0.000 HD 
HETATM   12  H2  UNL     1     -11.139  10.337  63.939  1.00  0.00     0.000 HD 
ENDBRANCH   7   8
ENDBRANCH   6   7
ENDBRANCH   5   6
ENDBRANCH   2   5
TORSDOF 4
ENDMDL
MODEL      191
REMARK 921   NORMALIZED FREE ENERGY PREDICTED BY IDOCK:   -1.21 KCAL/MOL
REMARK 922        TOTAL FREE ENERGY PREDICTED BY IDOCK:   -1.82 KCAL/MOL
REMARK 923 INTER-LIGAND FREE ENERGY PREDICTED BY IDOCK:   -1.65 KCAL/MOL
REMARK 924 INTRA-LIGAND FREE ENERGY PREDICTED BY IDOCK:   -0.17 KCAL/MOL
REMARK 927      BINDING AFFINITY PREDICTED BY RF-SCORE:    0.00 PKD
ROOT
HETATM    1  C   UNL     1      -6.212  10.312  70.576  1.00  0.00    -0.116 C  
HETATM    2  N   UNL     1      -7.127  10.266  69.348  1.00  0.00    -0.080 N  
HETATM    3  C   UNL     1      -7.066  11.622  68.657  1.00  0.00    -0.099 C  
HETATM    4  C   UNL     1      -8.548   9.988  69.826  1.00  0.00    -0.173 C  
ENDROOT
BRANCH   2   5
HETATM    5  C   UNL     1      -6.623   9.133  68.426  1.00  0.00    -0.059 C  
BRANCH   5   6
HETATM    6  C   UNL     1      -7.711   8.163  67.940  1.00  0.00    -0.114 C  
BRANCH   6   7
HETATM    7  O   UNL     1      -8.209   8.562  66.650  1.00  0.00    -0.105 OA 
BRANCH   7   8
HETATM    8  C   UNL     1      -9.542   8.389  66.489  1.00  0.00    -0.236 C  
HETATM    9  N   UNL     1     -10.030   9.283  65.606  1.00  0.00    -0.427 N  
HETATM   10  O   UNL     1     -10.205   7.531  67.048  1.00  0.00    -0.240 OA 
HETATM   11  H1  UNL     1     -11.034   9.153  65.484  1.00  0.00     0.000 HD 
HETATM   12  H2  UNL     1      -9.473   9.990  65.127  1.00  0.00     0.000 HD 
ENDBRANCH   7   8
ENDBRANCH   6   7
ENDBRANCH   5   6
ENDBRANCH   2   5
TORSDOF 4
ENDMDL
MODEL      192
REMARK 921   NORMALIZED FREE ENERGY PREDICTED BY IDOCK:   -1.21 KCAL/MOL
REMARK 922        TOTAL FREE ENERGY PREDICTED BY IDOCK:   -1.82 KCAL/MOL
REMARK 923 INTER-LIGAND FREE ENERGY PREDICTED BY IDOCK:   -1.48 KCAL/MOL
REMARK 924 INTRA-LIGAND FREE ENERGY PREDICTED BY IDOCK:   -0.34 KCAL/MOL
REMARK 927      BINDING AFFINITY PREDICTED BY RF-SCORE:    0.00 PKD
ROOT
HETATM    1  C   UNL     1      -9.674   3.559  72.325  1.00  0.00    -0.155 C  
HETATM    2  N   UNL     1     -10.061   5.039  72.237  1.00  0.00    -0.185 N  
HETATM    3  C   UNL     1      -8.909   5.867  72.790  1.00  0.00    -0.124 C  
HETATM    4  C   UNL     1     -11.311   5.253  73.084  1.00  0.00    -0.291 C  
ENDROOT
BRANCH   2   5
HETATM    5  C   UNL     1     -10.338   5.366  70.752  1.00  0.00    -0.251 C  
BRANCH   5   6
HETATM    6  C   UNL     1      -9.733   4.372  69.747  1.00  0.00    -0.221 C  
BRANCH   6   7
HETATM    7  O   UNL     1      -8.770   5.025  68.902  1.00  0.00    -0.089 OA 
BRANCH   7   8
HETATM    8  C   UNL     1      -7.538   5.147  69.450  1.00  0.00    -0.061 C  
HETATM    9  N   UNL     1      -7.076   3.944  69.844  1.00  0.00    -0.041 N  
HETATM   10  O   UNL     1      -6.924   6.196  69.553  1.00  0.00    -0.062 OA 
HETATM   11  H1  UNL     1      -6.147   4.036  70.256  1.00  0.00     0.000 HD 
HETATM   12  H2  UNL     1      -7.583   3.065  69.743  1.00  0.00     0.000 HD 
ENDBRANCH   7   8
ENDBRANCH   6   7
ENDBRANCH   5   6
ENDBRANCH   2   5
TORSDOF 4
ENDMDL
MODEL      193
REMARK 921   NORMALIZED FREE ENERGY PREDICTED BY IDOCK:   -1.20 KCAL/MOL
REMARK 922        TOTAL FREE ENERGY PREDICTED BY IDOCK:   -1.81 KCAL/MOL
REMARK 923 INTER-LIGAND FREE ENERGY PREDICTED BY IDOCK:   -1.66 KCAL/MOL
REMARK 924 INTRA-LIGAND FREE ENERGY PREDICTED BY IDOCK:   -0.15 KCAL/MOL
REMARK 927      BINDING AFFINITY PREDICTED BY RF-SCORE:    0.00 PKD
ROOT
HETATM    1  C   UNL     1      -8.983   8.993  71.017  1.00  0.00    -0.241 C  
HETATM    2  N   UNL     1      -9.165   7.701  71.819  1.00  0.00    -0.136 N  
HETATM    3  C   UNL     1     -10.592   7.664  72.347  1.00  0.00    -0.260 C  
HETATM    4  C   UNL     1      -8.179   7.723  72.983  1.00  0.00    -0.133 C  
ENDROOT
BRANCH   2   5
HETATM    5  C   UNL     1      -8.875   6.514  70.873  1.00  0.00    -0.147 C  
BRANCH   5   6
HETATM    6  C   UNL     1      -8.679   6.896  69.398  1.00  0.00    -0.133 C  
BRANCH   6   7
HETATM    7  O   UNL     1      -9.532   6.105  68.550  1.00  0.00    -0.120 OA 
BRANCH   7   8
HETATM    8  C   UNL     1     -10.092   6.791  67.526  1.00  0.00    -0.170 C  
HETATM    9  N   UNL     1     -10.271   8.083  67.866  1.00  0.00    -0.201 N  
HETATM   10  O   UNL     1     -10.377   6.312  66.441  1.00  0.00    -0.120 OA 
HETATM   11  H1  UNL     1     -10.693   8.600  67.095  1.00  0.00     0.000 HD 
HETATM   12  H2  UNL     1     -10.019   8.487  68.768  1.00  0.00     0.000 HD 
ENDBRANCH   7   8
ENDBRANCH   6   7
ENDBRANCH   5   6
ENDBRANCH   2   5
TORSDOF 4
ENDMDL
MODEL      194
REMARK 921   NORMALIZED FREE ENERGY PREDICTED BY IDOCK:   -1.18 KCAL/MOL
REMARK 922        TOTAL FREE ENERGY PREDICTED BY IDOCK:   -1.79 KCAL/MOL
REMARK 923 INTER-LIGAND FREE ENERGY PREDICTED BY IDOCK:   -1.67 KCAL/MOL
REMARK 924 INTRA-LIGAND FREE ENERGY PREDICTED BY IDOCK:   -0.12 KCAL/MOL
REMARK 927      BINDING AFFINITY PREDICTED BY RF-SCORE:    0.00 PKD
ROOT
HETATM    1  C   UNL     1      -8.104   3.452  70.225  1.00  0.00    -0.045 C  
HETATM    2  N   UNL     1      -8.750   3.085  71.565  1.00  0.00    -0.072 N  
HETATM    3  C   UNL     1      -7.648   2.678  72.532  1.00  0.00    -0.052 C  
HETATM    4  C   UNL     1      -9.696   1.911  71.328  1.00  0.00    -0.130 C  
ENDROOT
BRANCH   2   5
HETATM    5  C   UNL     1      -9.524   4.323  72.070  1.00  0.00    -0.135 C  
BRANCH   5   6
HETATM    6  C   UNL     1      -9.016   4.906  73.398  1.00  0.00    -0.112 C  
BRANCH   6   7
HETATM    7  O   UNL     1      -8.579   6.265  73.223  1.00  0.00    -0.123 OA 
BRANCH   7   8
HETATM    8  C   UNL     1      -9.373   7.188  73.815  1.00  0.00    -0.232 C  
HETATM    9  N   UNL     1      -8.629   8.102  74.469  1.00  0.00    -0.392 N  
HETATM   10  O   UNL     1     -10.592   7.202  73.749  1.00  0.00    -0.377 OA 
HETATM   11  H1  UNL     1      -9.227   8.797  74.915  1.00  0.00     0.000 HD 
HETATM   12  H2  UNL     1      -7.610   8.098  74.512  1.00  0.00     0.000 HD 
ENDBRANCH   7   8
ENDBRANCH   6   7
ENDBRANCH   5   6
ENDBRANCH   2   5
TORSDOF 4
ENDMDL
MODEL      195
REMARK 921   NORMALIZED FREE ENERGY PREDICTED BY IDOCK:   -1.18 KCAL/MOL
REMARK 922        TOTAL FREE ENERGY PREDICTED BY IDOCK:   -1.79 KCAL/MOL
REMARK 923 INTER-LIGAND FREE ENERGY PREDICTED BY IDOCK:   -1.69 KCAL/MOL
REMARK 924 INTRA-LIGAND FREE ENERGY PREDICTED BY IDOCK:   -0.10 KCAL/MOL
REMARK 927      BINDING AFFINITY PREDICTED BY RF-SCORE:    0.00 PKD
ROOT
HETATM    1  C   UNL     1      -7.977   4.330  70.299  1.00  0.00    -0.055 C  
HETATM    2  N   UNL     1      -8.740   4.527  71.613  1.00  0.00    -0.114 N  
HETATM    3  C   UNL     1      -7.740   4.463  72.759  1.00  0.00    -0.086 C  
HETATM    4  C   UNL     1      -9.757   3.399  71.744  1.00  0.00    -0.166 C  
ENDROOT
BRANCH   2   5
HETATM    5  C   UNL     1      -9.445   5.901  71.547  1.00  0.00    -0.152 C  
BRANCH   5   6
HETATM    6  C   UNL     1      -8.897   6.859  70.477  1.00  0.00    -0.155 C  
BRANCH   6   7
HETATM    7  O   UNL     1      -8.910   8.216  70.954  1.00  0.00    -0.133 OA 
BRANCH   7   8
HETATM    8  C   UNL     1      -9.822   9.012  70.347  1.00  0.00    -0.202 C  
HETATM    9  N   UNL     1      -9.247  10.161  69.939  1.00  0.00    -0.390 N  
HETATM   10  O   UNL     1     -10.994   8.721  70.175  1.00  0.00    -0.239 OA 
HETATM   11  H1  UNL     1      -9.934  10.760  69.482  1.00  0.00     0.000 HD 
HETATM   12  H2  UNL     1      -8.264  10.397  70.069  1.00  0.00     0.000 HD 
ENDBRANCH   7   8
ENDBRANCH   6   7
ENDBRANCH   5   6
ENDBRANCH   2   5
TORSDOF 4
ENDMDL
MODEL      196
REMARK 921   NORMALIZED FREE ENERGY PREDICTED BY IDOCK:   -1.18 KCAL/MOL
REMARK 922        TOTAL FREE ENERGY PREDICTED BY IDOCK:   -1.79 KCAL/MOL
REMARK 923 INTER-LIGAND FREE ENERGY PREDICTED BY IDOCK:   -1.81 KCAL/MOL
REMARK 924 INTRA-LIGAND FREE ENERGY PREDICTED BY IDOCK:    0.02 KCAL/MOL
REMARK 927      BINDING AFFINITY PREDICTED BY RF-SCORE:    0.00 PKD
ROOT
HETATM    1  C   UNL     1      -8.243  16.116  66.885  1.00  0.00    -0.238 C  
HETATM    2  N   UNL     1      -8.377  16.056  68.410  1.00  0.00    -0.171 N  
HETATM    3  C   UNL     1      -9.603  16.862  68.813  1.00  0.00    -0.268 C  
HETATM    4  C   UNL     1      -7.123  16.673  69.020  1.00  0.00    -0.216 C  
ENDROOT
BRANCH   2   5
HETATM    5  C   UNL     1      -8.513  14.570  68.813  1.00  0.00    -0.145 C  
BRANCH   5   6
HETATM    6  C   UNL     1      -8.573  13.584  67.635  1.00  0.00    -0.185 C  
BRANCH   6   7
HETATM    7  O   UNL     1      -9.325  12.411  67.992  1.00  0.00    -0.191 OA 
BRANCH   7   8
HETATM    8  C   UNL     1      -8.578  11.402  68.501  1.00  0.00    -0.150 C  
HETATM    9  N   UNL     1      -9.252  10.237  68.434  1.00  0.00    -0.132 N  
HETATM   10  O   UNL     1      -7.446  11.527  68.938  1.00  0.00    -0.115 OA 
HETATM   11  H1  UNL     1      -8.689   9.477  68.817  1.00  0.00     0.000 HD 
HETATM   12  H2  UNL     1     -10.193  10.130  68.055  1.00  0.00     0.000 HD 
ENDBRANCH   7   8
ENDBRANCH   6   7
ENDBRANCH   5   6
ENDBRANCH   2   5
TORSDOF 4
ENDMDL
MODEL      197
REMARK 921   NORMALIZED FREE ENERGY PREDICTED BY IDOCK:   -1.15 KCAL/MOL
REMARK 922        TOTAL FREE ENERGY PREDICTED BY IDOCK:   -1.75 KCAL/MOL
REMARK 923 INTER-LIGAND FREE ENERGY PREDICTED BY IDOCK:   -1.58 KCAL/MOL
REMARK 924 INTRA-LIGAND FREE ENERGY PREDICTED BY IDOCK:   -0.16 KCAL/MOL
REMARK 927      BINDING AFFINITY PREDICTED BY RF-SCORE:    0.00 PKD
ROOT
HETATM    1  C   UNL     1      -7.464  11.756  67.874  1.00  0.00    -0.108 C  
HETATM    2  N   UNL     1      -7.090  10.296  68.147  1.00  0.00    -0.081 N  
HETATM    3  C   UNL     1      -5.580  10.213  68.318  1.00  0.00    -0.041 C  
HETATM    4  C   UNL     1      -7.525   9.464  66.945  1.00  0.00    -0.091 C  
ENDROOT
BRANCH   2   5
HETATM    5  C   UNL     1      -7.835   9.849  69.425  1.00  0.00    -0.127 C  
BRANCH   5   6
HETATM    6  C   UNL     1      -9.313  10.266  69.491  1.00  0.00    -0.178 C  
BRANCH   6   7
HETATM    7  O   UNL     1     -10.169   9.110  69.479  1.00  0.00    -0.190 OA 
BRANCH   7   8
HETATM    8  C   UNL     1     -10.410   8.581  70.702  1.00  0.00    -0.199 C  
HETATM    9  N   UNL     1     -11.093   9.454  71.468  1.00  0.00    -0.376 N  
HETATM   10  O   UNL     1     -10.073   7.462  71.054  1.00  0.00    -0.191 OA 
HETATM   11  H1  UNL     1     -11.274   9.056  72.389  1.00  0.00     0.000 HD 
HETATM   12  H2  UNL     1     -11.387  10.384  71.169  1.00  0.00     0.000 HD 
ENDBRANCH   7   8
ENDBRANCH   6   7
ENDBRANCH   5   6
ENDBRANCH   2   5
TORSDOF 4
ENDMDL
MODEL      198
REMARK 921   NORMALIZED FREE ENERGY PREDICTED BY IDOCK:   -1.15 KCAL/MOL
REMARK 922        TOTAL FREE ENERGY PREDICTED BY IDOCK:   -1.75 KCAL/MOL
REMARK 923 INTER-LIGAND FREE ENERGY PREDICTED BY IDOCK:   -2.21 KCAL/MOL
REMARK 924 INTRA-LIGAND FREE ENERGY PREDICTED BY IDOCK:    0.47 KCAL/MOL
REMARK 927      BINDING AFFINITY PREDICTED BY RF-SCORE:    0.00 PKD
ROOT
HETATM    1  C   UNL     1     -11.230  13.286  66.519  1.00  0.00    -0.304 C  
HETATM    2  N   UNL     1     -10.303  14.474  66.794  1.00  0.00    -0.266 N  
HETATM    3  C   UNL     1     -11.048  15.467  67.675  1.00  0.00    -0.311 C  
HETATM    4  C   UNL     1      -9.953  15.121  65.458  1.00  0.00    -0.349 C  
ENDROOT
BRANCH   2   5
HETATM    5  C   UNL     1      -9.036  13.930  67.492  1.00  0.00    -0.197 C  
BRANCH   5   6
HETATM    6  C   UNL     1      -7.749  14.719  67.201  1.00  0.00    -0.116 C  
BRANCH   6   7
HETATM    7  O   UNL     1      -6.638  14.166  67.928  1.00  0.00    -0.134 OA 
BRANCH   7   8
HETATM    8  C   UNL     1      -6.808  12.880  68.315  1.00  0.00    -0.093 C  
HETATM    9  N   UNL     1      -6.848  12.793  69.660  1.00  0.00    -0.342 N  
HETATM   10  O   UNL     1      -6.929  11.935  67.553  1.00  0.00    -0.101 OA 
HETATM   11  H1  UNL     1      -6.977  11.825  69.951  1.00  0.00     0.000 HD 
HETATM   12  H2  UNL     1      -6.761  13.585  70.296  1.00  0.00     0.000 HD 
ENDBRANCH   7   8
ENDBRANCH   6   7
ENDBRANCH   5   6
ENDBRANCH   2   5
TORSDOF 4
ENDMDL
MODEL      199
REMARK 921   NORMALIZED FREE ENERGY PREDICTED BY IDOCK:   -1.13 KCAL/MOL
REMARK 922        TOTAL FREE ENERGY PREDICTED BY IDOCK:   -1.72 KCAL/MOL
REMARK 923 INTER-LIGAND FREE ENERGY PREDICTED BY IDOCK:   -1.73 KCAL/MOL
REMARK 924 INTRA-LIGAND FREE ENERGY PREDICTED BY IDOCK:    0.01 KCAL/MOL
REMARK 927      BINDING AFFINITY PREDICTED BY RF-SCORE:    0.00 PKD
ROOT
HETATM    1  C   UNL     1      -9.610   3.765  71.610  1.00  0.00    -0.157 C  
HETATM    2  N   UNL     1      -9.797   5.264  71.352  1.00  0.00    -0.167 N  
HETATM    3  C   UNL     1      -8.421   5.898  71.204  1.00  0.00    -0.124 C  
HETATM    4  C   UNL     1     -10.521   5.865  72.553  1.00  0.00    -0.204 C  
ENDROOT
BRANCH   2   5
HETATM    5  C   UNL     1     -10.639   5.420  70.066  1.00  0.00    -0.284 C  
BRANCH   5   6
HETATM    6  C   UNL     1      -9.889   6.033  68.872  1.00  0.00    -0.140 C  
BRANCH   6   7
HETATM    7  O   UNL     1     -10.004   7.467  68.882  1.00  0.00    -0.161 OA 
BRANCH   7   8
HETATM    8  C   UNL     1      -9.537   8.071  67.764  1.00  0.00    -0.151 C  
HETATM    9  N   UNL     1     -10.178   9.239  67.557  1.00  0.00    -0.225 N  
HETATM   10  O   UNL     1      -8.647   7.631  67.055  1.00  0.00    -0.118 OA 
HETATM   11  H1  UNL     1      -9.826   9.695  66.715  1.00  0.00     0.000 HD 
HETATM   12  H2  UNL     1     -10.912   9.614  68.157  1.00  0.00     0.000 HD 
ENDBRANCH   7   8
ENDBRANCH   6   7
ENDBRANCH   5   6
ENDBRANCH   2   5
TORSDOF 4
ENDMDL
MODEL      200
REMARK 921   NORMALIZED FREE ENERGY PREDICTED BY IDOCK:   -1.11 KCAL/MOL
REMARK 922        TOTAL FREE ENERGY PREDICTED BY IDOCK:   -1.70 KCAL/MOL
REMARK 923 INTER-LIGAND FREE ENERGY PREDICTED BY IDOCK:   -1.57 KCAL/MOL
REMARK 924 INTRA-LIGAND FREE ENERGY PREDICTED BY IDOCK:   -0.12 KCAL/MOL
REMARK 927      BINDING AFFINITY PREDICTED BY RF-SCORE:    0.00 PKD
ROOT
HETATM    1  C   UNL     1      -6.563   9.461  66.946  1.00  0.00    -0.068 C  
HETATM    2  N   UNL     1      -7.044  10.534  67.927  1.00  0.00    -0.082 N  
HETATM    3  C   UNL     1      -6.125  10.518  69.141  1.00  0.00    -0.041 C  
HETATM    4  C   UNL     1      -8.469  10.187  68.348  1.00  0.00    -0.118 C  
ENDROOT
BRANCH   2   5
HETATM    5  C   UNL     1      -7.001  11.895  67.196  1.00  0.00    -0.142 C  
BRANCH   5   6
HETATM    6  C   UNL     1      -8.365  12.584  67.032  1.00  0.00    -0.144 C  
BRANCH   6   7
HETATM    7  O   UNL     1      -8.221  14.015  67.080  1.00  0.00    -0.182 OA 
BRANCH   7   8
HETATM    8  C   UNL     1      -9.237  14.658  67.701  1.00  0.00    -0.193 C  
HETATM    9  N   UNL     1      -9.422  14.161  68.941  1.00  0.00    -0.384 N  
HETATM   10  O   UNL     1      -9.883  15.572  67.215  1.00  0.00    -0.222 OA 
HETATM   11  H1  UNL     1     -10.188  14.646  69.409  1.00  0.00     0.000 HD 
HETATM   12  H2  UNL     1      -8.873  13.407  69.353  1.00  0.00     0.000 HD 
ENDBRANCH   7   8
ENDBRANCH   6   7
ENDBRANCH   5   6
ENDBRANCH   2   5
TORSDOF 4
ENDMDL
MODEL      201
REMARK 921   NORMALIZED FREE ENERGY PREDICTED BY IDOCK:   -1.10 KCAL/MOL
REMARK 922        TOTAL FREE ENERGY PREDICTED BY IDOCK:   -1.69 KCAL/MOL
REMARK 923 INTER-LIGAND FREE ENERGY PREDICTED BY IDOCK:   -1.39 KCAL/MOL
REMARK 924 INTRA-LIGAND FREE ENERGY PREDICTED BY IDOCK:   -0.30 KCAL/MOL
REMARK 927      BINDING AFFINITY PREDICTED BY RF-SCORE:    0.00 PKD
ROOT
HETATM    1  C   UNL     1     -10.716   5.558  70.255  1.00  0.00    -0.263 C  
HETATM    2  N   UNL     1     -10.232   5.567  71.709  1.00  0.00    -0.196 N  
HETATM    3  C   UNL     1      -9.443   4.288  71.957  1.00  0.00    -0.135 C  
HETATM    4  C   UNL     1     -11.458   5.607  72.616  1.00  0.00    -0.285 C  
ENDROOT
BRANCH   2   5
HETATM    5  C   UNL     1      -9.357   6.825  71.908  1.00  0.00    -0.145 C  
BRANCH   5   6
HETATM    6  C   UNL     1      -7.849   6.601  71.713  1.00  0.00    -0.102 C  
BRANCH   6   7
HETATM    7  O   UNL     1      -7.421   7.107  70.436  1.00  0.00    -0.081 OA 
BRANCH   7   8
HETATM    8  C   UNL     1      -7.129   6.149  69.525  1.00  0.00    -0.069 C  
HETATM    9  N   UNL     1      -6.517   5.105  70.118  1.00  0.00    -0.030 N  
HETATM   10  O   UNL     1      -7.401   6.212  68.337  1.00  0.00    -0.082 OA 
HETATM   11  H1  UNL     1      -6.297   4.383  69.432  1.00  0.00     0.000 HD 
HETATM   12  H2  UNL     1      -6.303   5.045  71.114  1.00  0.00     0.000 HD 
ENDBRANCH   7   8
ENDBRANCH   6   7
ENDBRANCH   5   6
ENDBRANCH   2   5
TORSDOF 4
ENDMDL
MODEL      202
REMARK 921   NORMALIZED FREE ENERGY PREDICTED BY IDOCK:   -0.99 KCAL/MOL
REMARK 922        TOTAL FREE ENERGY PREDICTED BY IDOCK:   -1.56 KCAL/MOL
REMARK 923 INTER-LIGAND FREE ENERGY PREDICTED BY IDOCK:   -1.42 KCAL/MOL
REMARK 924 INTRA-LIGAND FREE ENERGY PREDICTED BY IDOCK:   -0.14 KCAL/MOL
REMARK 927      BINDING AFFINITY PREDICTED BY RF-SCORE:    0.00 PKD
ROOT
HETATM    1  C   UNL     1      -8.005  15.983  68.919  1.00  0.00    -0.212 C  
HETATM    2  N   UNL     1      -9.498  16.003  69.262  1.00  0.00    -0.247 N  
HETATM    3  C   UNL     1      -9.968  17.451  69.264  1.00  0.00    -0.116 C  
HETATM    4  C   UNL     1      -9.674  15.396  70.650  1.00  0.00     0.886 C  
ENDROOT
BRANCH   2   5
HETATM    5  C   UNL     1     -10.238  15.164  68.195  1.00  0.00    -0.227 C  
BRANCH   5   6
HETATM    6  C   UNL     1     -10.666  13.763  68.658  1.00  0.00    -0.256 C  
BRANCH   6   7
HETATM    7  O   UNL     1     -12.097  13.683  68.780  1.00  0.00    -0.355 OA 
BRANCH   7   8
HETATM    8  C   UNL     1     -12.537  13.434  70.036  1.00  0.00    -0.028 C  
HETATM    9  N   UNL     1     -13.175  14.512  70.534  1.00  0.00    -0.512 N  
HETATM   10  O   UNL     1     -12.394  12.376  70.627  1.00  0.00    -0.351 OA 
HETATM   11  H1  UNL     1     -13.507  14.325  71.480  1.00  0.00     0.000 HD 
HETATM   12  H2  UNL     1     -13.308  15.391  70.035  1.00  0.00     0.000 HD 
ENDBRANCH   7   8
ENDBRANCH   6   7
ENDBRANCH   5   6
ENDBRANCH   2   5
TORSDOF 4
ENDMDL
MODEL      203
REMARK 921   NORMALIZED FREE ENERGY PREDICTED BY IDOCK:   -0.98 KCAL/MOL
REMARK 922        TOTAL FREE ENERGY PREDICTED BY IDOCK:   -1.55 KCAL/MOL
REMARK 923 INTER-LIGAND FREE ENERGY PREDICTED BY IDOCK:   -1.44 KCAL/MOL
REMARK 924 INTRA-LIGAND FREE ENERGY PREDICTED BY IDOCK:   -0.11 KCAL/MOL
REMARK 927      BINDING AFFINITY PREDICTED BY RF-SCORE:    0.00 PKD
ROOT
HETATM    1  C   UNL     1     -10.351   5.547  69.116  1.00  0.00    -0.248 C  
HETATM    2  N   UNL     1      -9.622   6.815  69.573  1.00  0.00    -0.148 N  
HETATM    3  C   UNL     1     -10.368   8.021  69.018  1.00  0.00    -0.218 C  
HETATM    4  C   UNL     1      -8.205   6.775  69.011  1.00  0.00    -0.117 C  
ENDROOT
BRANCH   2   5
HETATM    5  C   UNL     1      -9.603   6.817  71.118  1.00  0.00    -0.173 C  
BRANCH   5   6
HETATM    6  C   UNL     1     -10.828   6.168  71.781  1.00  0.00    -0.255 C  
BRANCH   6   7
HETATM    7  O   UNL     1     -10.521   5.756  73.124  1.00  0.00    -0.199 OA 
BRANCH   7   8
HETATM    8  C   UNL     1     -10.928   4.501  73.430  1.00  0.00    -0.301 C  
HETATM    9  N   UNL     1     -12.114   4.235  72.849  1.00  0.00     0.375 N  
HETATM   10  O   UNL     1     -10.298   3.714  74.119  1.00  0.00    -0.155 OA 
HETATM   11  H1  UNL     1     -12.420   3.289  73.079  1.00  0.00     0.000 HD 
HETATM   12  H2  UNL     1     -12.633   4.887  72.261  1.00  0.00     0.000 HD 
ENDBRANCH   7   8
ENDBRANCH   6   7
ENDBRANCH   5   6
ENDBRANCH   2   5
TORSDOF 4
ENDMDL
MODEL      204
REMARK 921   NORMALIZED FREE ENERGY PREDICTED BY IDOCK:   -0.91 KCAL/MOL
REMARK 922        TOTAL FREE ENERGY PREDICTED BY IDOCK:   -1.46 KCAL/MOL
REMARK 923 INTER-LIGAND FREE ENERGY PREDICTED BY IDOCK:   -1.33 KCAL/MOL
REMARK 924 INTRA-LIGAND FREE ENERGY PREDICTED BY IDOCK:   -0.13 KCAL/MOL
REMARK 927      BINDING AFFINITY PREDICTED BY RF-SCORE:    0.00 PKD
ROOT
HETATM    1  C   UNL     1     -10.442   5.494  70.441  1.00  0.00    -0.286 C  
HETATM    2  N   UNL     1     -10.137   5.377  71.937  1.00  0.00    -0.187 N  
HETATM    3  C   UNL     1      -9.461   4.036  72.184  1.00  0.00    -0.134 C  
HETATM    4  C   UNL     1     -11.458   5.444  72.697  1.00  0.00    -0.241 C  
ENDROOT
BRANCH   2   5
HETATM    5  C   UNL     1      -9.218   6.559  72.324  1.00  0.00    -0.138 C  
BRANCH   5   6
HETATM    6  C   UNL     1      -7.742   6.384  71.934  1.00  0.00    -0.096 C  
BRANCH   6   7
HETATM    7  O   UNL     1      -6.914   6.291  73.107  1.00  0.00    -0.074 OA 
BRANCH   7   8
HETATM    8  C   UNL     1      -6.065   7.331  73.275  1.00  0.00    -0.056 C  
HETATM    9  N   UNL     1      -5.476   7.653  72.107  1.00  0.00    -0.036 N  
HETATM   10  O   UNL     1      -5.875   7.910  74.333  1.00  0.00    -0.081 OA 
HETATM   11  H1  UNL     1      -4.836   8.437  72.233  1.00  0.00     0.000 HD 
HETATM   12  H2  UNL     1      -5.646   7.179  71.220  1.00  0.00     0.000 HD 
ENDBRANCH   7   8
ENDBRANCH   6   7
ENDBRANCH   5   6
ENDBRANCH   2   5
TORSDOF 4
ENDMDL
MODEL      205
REMARK 921   NORMALIZED FREE ENERGY PREDICTED BY IDOCK:   -0.84 KCAL/MOL
REMARK 922        TOTAL FREE ENERGY PREDICTED BY IDOCK:   -1.37 KCAL/MOL
REMARK 923 INTER-LIGAND FREE ENERGY PREDICTED BY IDOCK:   -1.26 KCAL/MOL
REMARK 924 INTRA-LIGAND FREE ENERGY PREDICTED BY IDOCK:   -0.10 KCAL/MOL
REMARK 927      BINDING AFFINITY PREDICTED BY RF-SCORE:    0.00 PKD
ROOT
HETATM    1  C   UNL     1      -9.231   7.400  71.563  1.00  0.00    -0.140 C  
HETATM    2  N   UNL     1      -8.906   7.137  73.038  1.00  0.00    -0.124 N  
HETATM    3  C   UNL     1     -10.211   7.141  73.822  1.00  0.00    -0.352 C  
HETATM    4  C   UNL     1      -7.999   8.260  73.530  1.00  0.00    -0.162 C  
ENDROOT
BRANCH   2   5
HETATM    5  C   UNL     1      -8.190   5.771  73.127  1.00  0.00    -0.117 C  
BRANCH   5   6
HETATM    6  C   UNL     1      -8.513   4.796  71.984  1.00  0.00    -0.119 C  
BRANCH   6   7
HETATM    7  O   UNL     1      -8.444   3.434  72.442  1.00  0.00    -0.081 OA 
BRANCH   7   8
HETATM    8  C   UNL     1      -9.540   2.692  72.155  1.00  0.00    -0.125 C  
HETATM    9  N   UNL     1     -10.656   3.443  72.250  1.00  0.00     0.037 N  
HETATM   10  O   UNL     1      -9.519   1.515  71.836  1.00  0.00    -0.081 OA 
HETATM   11  H1  UNL     1     -11.481   2.884  72.033  1.00  0.00     0.000 HD 
HETATM   12  H2  UNL     1     -10.672   4.431  72.502  1.00  0.00     0.000 HD 
ENDBRANCH   7   8
ENDBRANCH   6   7
ENDBRANCH   5   6
ENDBRANCH   2   5
TORSDOF 4
ENDMDL
MODEL      206
REMARK 921   NORMALIZED FREE ENERGY PREDICTED BY IDOCK:   -0.81 KCAL/MOL
REMARK 922        TOTAL FREE ENERGY PREDICTED BY IDOCK:   -1.33 KCAL/MOL
REMARK 923 INTER-LIGAND FREE ENERGY PREDICTED BY IDOCK:   -1.24 KCAL/MOL
REMARK 924 INTRA-LIGAND FREE ENERGY PREDICTED BY IDOCK:   -0.09 KCAL/MOL
REMARK 927      BINDING AFFINITY PREDICTED BY RF-SCORE:    0.00 PKD
ROOT
HETATM    1  C   UNL     1     -10.042   4.695  69.642  1.00  0.00    -0.162 C  
HETATM    2  N   UNL     1      -9.563   6.144  69.783  1.00  0.00    -0.149 N  
HETATM    3  C   UNL     1     -10.585   7.051  69.112  1.00  0.00    -0.219 C  
HETATM    4  C   UNL     1      -8.215   6.267  69.080  1.00  0.00    -0.114 C  
ENDROOT
BRANCH   2   5
HETATM    5  C   UNL     1      -9.429   6.452  71.291  1.00  0.00    -0.166 C  
BRANCH   5   6
HETATM    6  C   UNL     1      -8.233   5.780  71.984  1.00  0.00    -0.112 C  
BRANCH   6   7
HETATM    7  O   UNL     1      -7.869   6.496  73.178  1.00  0.00    -0.100 OA 
BRANCH   7   8
HETATM    8  C   UNL     1      -6.984   5.847  73.970  1.00  0.00    -0.081 C  
HETATM    9  N   UNL     1      -7.252   4.526  73.994  1.00  0.00    -0.071 N  
HETATM   10  O   UNL     1      -6.060   6.380  74.564  1.00  0.00    -0.064 OA 
HETATM   11  H1  UNL     1      -6.586   4.037  74.591  1.00  0.00     0.000 HD 
HETATM   12  H2  UNL     1      -8.015   4.079  73.486  1.00  0.00     0.000 HD 
ENDBRANCH   7   8
ENDBRANCH   6   7
ENDBRANCH   5   6
ENDBRANCH   2   5
TORSDOF 4
ENDMDL
MODEL      207
REMARK 921   NORMALIZED FREE ENERGY PREDICTED BY IDOCK:   -0.78 KCAL/MOL
REMARK 922        TOTAL FREE ENERGY PREDICTED BY IDOCK:   -1.29 KCAL/MOL
REMARK 923 INTER-LIGAND FREE ENERGY PREDICTED BY IDOCK:   -1.23 KCAL/MOL
REMARK 924 INTRA-LIGAND FREE ENERGY PREDICTED BY IDOCK:   -0.06 KCAL/MOL
REMARK 927      BINDING AFFINITY PREDICTED BY RF-SCORE:    0.00 PKD
ROOT
HETATM    1  C   UNL     1      -6.833   8.714  68.112  1.00  0.00    -0.069 C  
HETATM    2  N   UNL     1      -7.304   7.760  69.214  1.00  0.00    -0.085 N  
HETATM    3  C   UNL     1      -7.809   8.593  70.384  1.00  0.00    -0.091 C  
HETATM    4  C   UNL     1      -6.111   6.916  69.652  1.00  0.00    -0.033 C  
ENDROOT
BRANCH   2   5
HETATM    5  C   UNL     1      -8.421   6.871  68.622  1.00  0.00    -0.121 C  
BRANCH   5   6
HETATM    6  C   UNL     1      -8.373   6.703  67.095  1.00  0.00    -0.113 C  
BRANCH   6   7
HETATM    7  O   UNL     1      -9.669   6.349  66.581  1.00  0.00    -0.156 OA 
BRANCH   7   8
HETATM    8  C   UNL     1      -9.741   5.100  66.063  1.00  0.00    -0.165 C  
HETATM    9  N   UNL     1      -8.524   4.521  66.056  1.00  0.00    -0.113 N  
HETATM   10  O   UNL     1     -10.768   4.566  65.676  1.00  0.00    -0.285 OA 
HETATM   11  H1  UNL     1      -8.579   3.580  65.666  1.00  0.00     0.000 HD 
HETATM   12  H2  UNL     1      -7.669   4.961  66.393  1.00  0.00     0.000 HD 
ENDBRANCH   7   8
ENDBRANCH   6   7
ENDBRANCH   5   6
ENDBRANCH   2   5
TORSDOF 4
ENDMDL
MODEL      208
REMARK 921   NORMALIZED FREE ENERGY PREDICTED BY IDOCK:   -0.76 KCAL/MOL
REMARK 922        TOTAL FREE ENERGY PREDICTED BY IDOCK:   -1.27 KCAL/MOL
REMARK 923 INTER-LIGAND FREE ENERGY PREDICTED BY IDOCK:   -1.21 KCAL/MOL
REMARK 924 INTRA-LIGAND FREE ENERGY PREDICTED BY IDOCK:   -0.06 KCAL/MOL
REMARK 927      BINDING AFFINITY PREDICTED BY RF-SCORE:    0.00 PKD
ROOT
HETATM    1  C   UNL     1     -10.288  10.217  67.240  1.00  0.00    -0.237 C  
HETATM    2  N   UNL     1      -8.798  10.374  67.561  1.00  0.00    -0.134 N  
HETATM    3  C   UNL     1      -8.644  10.486  69.072  1.00  0.00    -0.157 C  
HETATM    4  C   UNL     1      -8.301  11.650  66.890  1.00  0.00    -0.169 C  
ENDROOT
BRANCH   2   5
HETATM    5  C   UNL     1      -8.062   9.135  67.003  1.00  0.00    -0.109 C  
BRANCH   5   6
HETATM    6  C   UNL     1      -7.244   8.348  68.039  1.00  0.00    -0.091 C  
BRANCH   6   7
HETATM    7  O   UNL     1      -6.646   7.185  67.439  1.00  0.00    -0.054 OA 
BRANCH   7   8
HETATM    8  C   UNL     1      -7.534   6.243  67.042  1.00  0.00    -0.084 C  
HETATM    9  N   UNL     1      -7.161   5.711  65.862  1.00  0.00    -0.066 N  
HETATM   10  O   UNL     1      -8.522   5.908  67.675  1.00  0.00    -0.105 OA 
HETATM   11  H1  UNL     1      -7.829   5.001  65.563  1.00  0.00     0.000 HD 
HETATM   12  H2  UNL     1      -6.327   5.980  65.340  1.00  0.00     0.000 HD 
ENDBRANCH   7   8
ENDBRANCH   6   7
ENDBRANCH   5   6
ENDBRANCH   2   5
TORSDOF 4
ENDMDL
MODEL      209
REMARK 921   NORMALIZED FREE ENERGY PREDICTED BY IDOCK:   -0.70 KCAL/MOL
REMARK 922        TOTAL FREE ENERGY PREDICTED BY IDOCK:   -1.19 KCAL/MOL
REMARK 923 INTER-LIGAND FREE ENERGY PREDICTED BY IDOCK:   -1.05 KCAL/MOL
REMARK 924 INTRA-LIGAND FREE ENERGY PREDICTED BY IDOCK:   -0.14 KCAL/MOL
REMARK 927      BINDING AFFINITY PREDICTED BY RF-SCORE:    0.00 PKD
ROOT
HETATM    1  C   UNL     1      -5.293   8.816  69.031  1.00  0.00    -0.036 C  
HETATM    2  N   UNL     1      -6.656   8.804  68.331  1.00  0.00    -0.059 N  
HETATM    3  C   UNL     1      -6.420   8.763  66.827  1.00  0.00    -0.060 C  
HETATM    4  C   UNL     1      -7.394  10.085  68.708  1.00  0.00    -0.078 C  
ENDROOT
BRANCH   2   5
HETATM    5  C   UNL     1      -7.427   7.558  68.822  1.00  0.00    -0.097 C  
BRANCH   5   6
HETATM    6  C   UNL     1      -8.457   7.831  69.930  1.00  0.00    -0.132 C  
BRANCH   6   7
HETATM    7  O   UNL     1      -8.458   6.766  70.897  1.00  0.00    -0.133 OA 
BRANCH   7   8
HETATM    8  C   UNL     1      -9.232   5.707  70.561  1.00  0.00    -0.150 C  
HETATM    9  N   UNL     1      -8.586   4.552  70.816  1.00  0.00    -0.090 N  
HETATM   10  O   UNL     1     -10.363   5.787  70.111  1.00  0.00    -0.213 OA 
HETATM   11  H1  UNL     1      -9.169   3.754  70.563  1.00  0.00     0.000 HD 
HETATM   12  H2  UNL     1      -7.646   4.485  71.206  1.00  0.00     0.000 HD 
ENDBRANCH   7   8
ENDBRANCH   6   7
ENDBRANCH   5   6
ENDBRANCH   2   5
TORSDOF 4
ENDMDL
MODEL      210
REMARK 921   NORMALIZED FREE ENERGY PREDICTED BY IDOCK:   -0.69 KCAL/MOL
REMARK 922        TOTAL FREE ENERGY PREDICTED BY IDOCK:   -1.18 KCAL/MOL
REMARK 923 INTER-LIGAND FREE ENERGY PREDICTED BY IDOCK:   -1.03 KCAL/MOL
REMARK 924 INTRA-LIGAND FREE ENERGY PREDICTED BY IDOCK:   -0.15 KCAL/MOL
REMARK 927      BINDING AFFINITY PREDICTED BY RF-SCORE:    0.00 PKD
ROOT
HETATM    1  C   UNL     1      -8.362   7.828  71.619  1.00  0.00    -0.110 C  
HETATM    2  N   UNL     1      -7.334   6.914  72.294  1.00  0.00    -0.085 N  
HETATM    3  C   UNL     1      -7.607   5.482  71.856  1.00  0.00    -0.099 C  
HETATM    4  C   UNL     1      -7.508   7.040  73.804  1.00  0.00    -0.090 C  
ENDROOT
BRANCH   2   5
HETATM    5  C   UNL     1      -5.928   7.386  71.859  1.00  0.00    -0.036 C  
BRANCH   5   6
HETATM    6  C   UNL     1      -5.718   8.908  71.890  1.00  0.00    -0.062 C  
BRANCH   6   7
HETATM    7  O   UNL     1      -5.395   9.404  70.579  1.00  0.00    -0.029 OA 
BRANCH   7   8
HETATM    8  C   UNL     1      -6.020  10.559  70.249  1.00  0.00    -0.104 C  
HETATM    9  N   UNL     1      -6.614  10.446  69.045  1.00  0.00    -0.055 N  
HETATM   10  O   UNL     1      -6.057  11.555  70.952  1.00  0.00    -0.360 OA 
HETATM   11  H1  UNL     1      -7.085  11.315  68.796  1.00  0.00     0.000 HD 
HETATM   12  H2  UNL     1      -6.596   9.608  68.464  1.00  0.00     0.000 HD 
ENDBRANCH   7   8
ENDBRANCH   6   7
ENDBRANCH   5   6
ENDBRANCH   2   5
TORSDOF 4
ENDMDL
MODEL      211
REMARK 921   NORMALIZED FREE ENERGY PREDICTED BY IDOCK:   -0.64 KCAL/MOL
REMARK 922        TOTAL FREE ENERGY PREDICTED BY IDOCK:   -1.12 KCAL/MOL
REMARK 923 INTER-LIGAND FREE ENERGY PREDICTED BY IDOCK:   -1.03 KCAL/MOL
REMARK 924 INTRA-LIGAND FREE ENERGY PREDICTED BY IDOCK:   -0.09 KCAL/MOL
REMARK 927      BINDING AFFINITY PREDICTED BY RF-SCORE:    0.00 PKD
ROOT
HETATM    1  C   UNL     1      -6.820  10.090  66.344  1.00  0.00    -0.093 C  
HETATM    2  N   UNL     1      -6.367   9.987  67.804  1.00  0.00    -0.058 N  
HETATM    3  C   UNL     1      -5.375   8.838  67.917  1.00  0.00    -0.035 C  
HETATM    4  C   UNL     1      -7.595   9.703  68.663  1.00  0.00    -0.080 C  
ENDROOT
BRANCH   2   5
HETATM    5  C   UNL     1      -5.722  11.337  68.193  1.00  0.00    -0.045 C  
BRANCH   5   6
HETATM    6  C   UNL     1      -6.671  12.333  68.880  1.00  0.00    -0.094 C  
BRANCH   6   7
HETATM    7  O   UNL     1      -5.935  13.440  69.430  1.00  0.00    -0.087 OA 
BRANCH   7   8
HETATM    8  C   UNL     1      -6.390  14.657  69.048  1.00  0.00    -0.094 C  
HETATM    9  N   UNL     1      -7.592  14.907  69.603  1.00  0.00    -0.346 N  
HETATM   10  O   UNL     1      -5.786  15.428  68.320  1.00  0.00    -0.102 OA 
HETATM   11  H1  UNL     1      -7.934  15.823  69.315  1.00  0.00     0.000 HD 
HETATM   12  H2  UNL     1      -8.090  14.268  70.223  1.00  0.00     0.000 HD 
ENDBRANCH   7   8
ENDBRANCH   6   7
ENDBRANCH   5   6
ENDBRANCH   2   5
TORSDOF 4
ENDMDL
MODEL      212
REMARK 921   NORMALIZED FREE ENERGY PREDICTED BY IDOCK:    1.04 KCAL/MOL
REMARK 922        TOTAL FREE ENERGY PREDICTED BY IDOCK:    0.96 KCAL/MOL
REMARK 923 INTER-LIGAND FREE ENERGY PREDICTED BY IDOCK:   -0.57 KCAL/MOL
REMARK 924 INTRA-LIGAND FREE ENERGY PREDICTED BY IDOCK:    1.53 KCAL/MOL
REMARK 927      BINDING AFFINITY PREDICTED BY RF-SCORE:    0.00 PKD
ROOT
HETATM    1  C   UNL     1     -11.232  15.697  70.927  1.00  0.00    -0.369 C  
HETATM    2  N   UNL     1     -10.451  16.122  69.680  1.00  0.00    -0.282 N  
HETATM    3  C   UNL     1      -9.043  16.511  70.108  1.00  0.00     1.527 C  
HETATM    4  C   UNL     1     -11.160  17.324  69.064  1.00  0.00     0.259 C  
ENDROOT
BRANCH   2   5
HETATM    5  C   UNL     1     -10.440  14.927  68.700  1.00  0.00    -0.242 C  
BRANCH   5   6
HETATM    6  C   UNL     1      -9.686  15.176  67.384  1.00  0.00    -0.209 C  
BRANCH   6   7
HETATM    7  O   UNL     1      -8.840  16.334  67.495  1.00  0.00    -0.184 OA 
BRANCH   7   8
HETATM    8  C   UNL     1      -8.910  17.180  66.440  1.00  0.00    -0.255 C  
HETATM    9  N   UNL     1     -10.124  17.763  66.382  1.00  0.00    -0.344 N  
HETATM   10  O   UNL     1      -7.996  17.399  65.662  1.00  0.00    -0.477 OA 
HETATM   11  H1  UNL     1     -10.177  18.400  65.588  1.00  0.00     0.000 HD 
HETATM   12  H2  UNL     1     -10.883  17.590  67.041  1.00  0.00     0.000 HD 
ENDBRANCH   7   8
ENDBRANCH   6   7
ENDBRANCH   5   6
ENDBRANCH   2   5
TORSDOF 4
ENDMDL
