MODEL        1
REMARK 921   NORMALIZED FREE ENERGY PREDICTED BY IDOCK:   -7.98 KCAL/MOL
REMARK 922        TOTAL FREE ENERGY PREDICTED BY IDOCK:  -14.10 KCAL/MOL
REMARK 923 INTER-LIGAND FREE ENERGY PREDICTED BY IDOCK:  -12.18 KCAL/MOL
REMARK 924 INTRA-LIGAND FREE ENERGY PREDICTED BY IDOCK:   -1.93 KCAL/MOL
REMARK 927      BINDING AFFINITY PREDICTED BY RF-SCORE:    0.00 PKD
ROOT
HETATM    1  O   UNL     1      -7.894  19.791  66.341  1.00  0.00    -0.282 OA 
HETATM    2  C   UNL     1      -8.324  18.781  67.248  1.00  0.00    -0.268 C  
HETATM    3  H   UNL     1      -6.947  19.813  66.262  1.00  0.00     0.000 HD 
HETATM    4  C   UNL     2     -11.494  11.694  63.535  1.00  0.00    -0.427 C  
HETATM    5  C   UNL     1      -9.875  18.745  67.377  1.00  0.00    -0.318 C  
HETATM    6  C   UNL     2     -12.307  12.961  63.751  1.00  0.00    -0.500 C  
HETATM    7  C   UNL     1     -10.498  18.555  65.966  1.00  0.00    -0.400 C  
HETATM    8  N   UNL     1     -10.195  17.557  68.230  1.00  0.00    -0.343 NA 
HETATM    9  C   UNL     1     -10.482  19.917  68.131  1.00  0.00    -0.332 C  
HETATM   10  H   UNL     1     -10.540  20.503  69.997  1.00  0.00     0.000 HD 
HETATM   11  H   UNL     1     -10.380  17.249  64.487  1.00  0.00     0.000 HD 
HETATM   12  H2  UNL     1      -9.713  17.561  69.129  1.00  0.00     0.000 HD 
HETATM   13  O   UNL     1      -9.999  17.365  65.348  1.00  0.00    -0.479 OA 
HETATM   14  O   UNL     1     -10.161  19.770  69.525  1.00  0.00    -0.338 OA 
HETATM   15  H1  UNL     1     -11.211  17.533  68.315  1.00  0.00     0.000 HD 
ENDROOT
BRANCH   6  16
HETATM   16  C   UNL     2     -12.135  13.573  65.142  1.00  0.00    -0.432 C  
BRANCH  16  17
HETATM   17  C   UNL     2     -11.666  12.599  66.226  1.00  0.00    -0.460 C  
BRANCH  17  18
HETATM   18  C   UNL     2     -10.420  13.059  67.019  1.00  0.00    -0.249 C  
HETATM   19  C   UNL     2      -9.242  12.071  67.177  1.00  0.00    -0.190 C  
HETATM   20  C   UNL     2      -7.983  12.676  67.814  1.00  0.00    -0.158 C  
HETATM   21  O   UNL     2      -8.870  11.644  65.862  1.00  0.00    -0.340 OA 
HETATM   22  C   UNL     2      -9.677  10.866  67.963  1.00  0.00    -0.176 C  
HETATM   23  H   UNL     2      -8.146  11.037  65.959  1.00  0.00     0.000 HD 
HETATM   24  C   UNL     2      -9.919  10.794  69.283  1.00  0.00    -0.182 C  
BRANCH  24  25
HETATM   25  C   UNL     2     -10.386   9.559  70.020  1.00  0.00    -0.284 C  
HETATM   26  C   UNL     2      -9.283   8.558  70.436  1.00  0.00    -0.160 C  
HETATM   27  C   UNL     2     -10.026   7.637  71.373  1.00  0.00    -0.203 C  
HETATM   28  O   UNL     2      -8.222   9.113  71.208  1.00  0.00    -0.290 OA 
HETATM   29  H   UNL     2      -7.544   8.499  71.464  1.00  0.00     0.000 HD 
HETATM   30  C   UNL     2     -10.867   8.591  72.220  1.00  0.00    -0.348 C  
HETATM   31  C   UNL     2     -11.184   9.824  71.333  1.00  0.00    -0.368 C  
HETATM   32  O   UNL     2     -12.001   7.873  72.680  1.00  0.00    -0.528 OA 
HETATM   33  H   UNL     2     -12.524   8.466  73.207  1.00  0.00     0.000 HD 
BRANCH  31  34
HETATM   34  C   UNL     2     -12.686  10.092  71.089  1.00  0.00    -0.494 C  
BRANCH  34  35
HETATM   35  C   UNL     2     -13.258  11.201  71.943  1.00  0.00    -0.488 C  
HETATM   36  C   UNL     2     -13.096  12.527  71.812  1.00  0.00    -0.450 C  
BRANCH  36  37
HETATM   37  C   UNL     2     -12.296  13.255  70.769  1.00  0.00    -0.425 C  
BRANCH  37  38
HETATM   38  C   UNL     2     -12.951  14.557  70.303  1.00  0.00    -0.148 C  
BRANCH  38  39
HETATM   39  C   UNL     2     -13.729  15.297  71.381  1.00  0.00    -0.602 C  
HETATM   40  C   UNL     2     -12.938  16.019  72.473  1.00  0.00    -0.387 C  
HETATM   41  O   UNL     2     -13.566  16.169  73.558  1.00  0.00    -0.623 OA 
HETATM   42  O   UNL     2     -11.771  16.463  72.219  1.00  0.00    -0.508 OA 
ENDBRANCH  38  39
ENDBRANCH  37  38
ENDBRANCH  36  37
ENDBRANCH  34  35
ENDBRANCH  31  34
ENDBRANCH  24  25
ENDBRANCH  17  18
ENDBRANCH  16  17
ENDBRANCH   6  16
TORSDOF 9
ENDMDL
MODEL        2
REMARK 921   NORMALIZED FREE ENERGY PREDICTED BY IDOCK:   -7.79 KCAL/MOL
REMARK 922        TOTAL FREE ENERGY PREDICTED BY IDOCK:  -13.81 KCAL/MOL
REMARK 923 INTER-LIGAND FREE ENERGY PREDICTED BY IDOCK:  -11.30 KCAL/MOL
REMARK 924 INTRA-LIGAND FREE ENERGY PREDICTED BY IDOCK:   -2.51 KCAL/MOL
REMARK 927      BINDING AFFINITY PREDICTED BY RF-SCORE:    0.00 PKD
ROOT
HETATM    1  O   UNL     1      -7.956  21.197  67.001  1.00  0.00    -0.625 OA 
HETATM    2  C   UNL     1      -8.463  20.078  66.283  1.00  0.00    -0.288 C  
HETATM    3  H   UNL     1      -8.433  21.993  66.796  1.00  0.00     0.000 HD 
HETATM    4  C   UNL     2     -13.371  14.728  70.903  1.00  0.00    -0.372 C  
HETATM    5  C   UNL     1      -7.682  18.774  66.619  1.00  0.00    -0.248 C  
HETATM    6  C   UNL     2     -11.851  14.689  70.914  1.00  0.00    -0.372 C  
HETATM    7  C   UNL     1      -7.723  18.539  68.154  1.00  0.00    -0.284 C  
HETATM    8  N   UNL     1      -8.404  17.663  65.922  1.00  0.00    -0.546 NA 
HETATM    9  C   UNL     1      -6.270  18.710  66.056  1.00  0.00    -0.201 C  
HETATM   10  H   UNL     1      -5.480  18.488  64.281  1.00  0.00     0.000 HD 
HETATM   11  H   UNL     1      -9.100  18.327  69.558  1.00  0.00     0.000 HD 
HETATM   12  H2  UNL     1      -8.520  17.819  64.921  1.00  0.00     0.000 HD 
HETATM   13  O   UNL     1      -9.074  18.471  68.620  1.00  0.00    -0.318 OA 
HETATM   14  O   UNL     1      -6.362  18.528  64.633  1.00  0.00    -0.396 OA 
HETATM   15  H1  UNL     1      -7.892  16.809  66.143  1.00  0.00     0.000 HD 
ENDROOT
BRANCH   6  16
HETATM   16  C   UNL     2     -11.223  14.789  69.522  1.00  0.00    -0.305 C  
BRANCH  16  17
HETATM   17  C   UNL     2     -12.153  14.423  68.363  1.00  0.00    -0.278 C  
BRANCH  17  18
HETATM   18  C   UNL     2     -11.606  14.766  66.958  1.00  0.00    -0.352 C  
HETATM   19  C   UNL     2     -12.149  13.977  65.744  1.00  0.00    -0.427 C  
HETATM   20  C   UNL     2     -11.688  14.509  64.379  1.00  0.00    -0.381 C  
HETATM   21  O   UNL     2     -13.576  14.096  65.768  1.00  0.00    -0.587 OA 
HETATM   22  C   UNL     2     -11.790  12.523  65.867  1.00  0.00    -0.489 C  
HETATM   23  H   UNL     2     -13.909  13.611  65.022  1.00  0.00     0.000 HD 
HETATM   24  C   UNL     2     -10.581  11.962  65.695  1.00  0.00    -0.311 C  
BRANCH  24  25
HETATM   25  C   UNL     2     -10.269  10.491  65.861  1.00  0.00    -0.311 C  
HETATM   26  C   UNL     2      -9.291   9.883  64.829  1.00  0.00    -0.278 C  
HETATM   27  C   UNL     2      -8.977   8.540  65.441  1.00  0.00    -0.150 C  
HETATM   28  O   UNL     2      -8.039  10.553  64.713  1.00  0.00    -0.249 OA 
HETATM   29  H   UNL     2      -7.438  10.179  64.079  1.00  0.00     0.000 HD 
HETATM   30  C   UNL     2      -8.778   8.860  66.922  1.00  0.00    -0.119 C  
HETATM   31  C   UNL     2      -9.673  10.086  67.244  1.00  0.00    -0.206 C  
HETATM   32  O   UNL     2      -9.078   7.686  67.661  1.00  0.00    -0.129 OA 
HETATM   33  H   UNL     2      -8.954   7.885  68.582  1.00  0.00     0.000 HD 
BRANCH  31  34
HETATM   34  C   UNL     2     -10.751   9.850  68.326  1.00  0.00    -0.276 C  
BRANCH  34  35
HETATM   35  C   UNL     2     -10.947  11.020  69.263  1.00  0.00    -0.305 C  
HETATM   36  C   UNL     2     -11.763  11.115  70.324  1.00  0.00    -0.431 C  
BRANCH  36  37
HETATM   37  C   UNL     2     -12.699  10.069  70.859  1.00  0.00    -0.414 C  
BRANCH  37  38
HETATM   38  C   UNL     2     -12.011   9.045  71.764  1.00  0.00    -0.438 C  
BRANCH  38  39
HETATM   39  C   UNL     2     -12.199   7.597  71.340  1.00  0.00    -0.351 C  
HETATM   40  C   UNL     2     -11.121   6.957  70.463  1.00  0.00    -0.288 C  
HETATM   41  O   UNL     2     -11.529   5.997  69.752  1.00  0.00    -0.395 OA 
HETATM   42  O   UNL     2      -9.917   7.365  70.543  1.00  0.00    -0.184 OA 
ENDBRANCH  38  39
ENDBRANCH  37  38
ENDBRANCH  36  37
ENDBRANCH  34  35
ENDBRANCH  31  34
ENDBRANCH  24  25
ENDBRANCH  17  18
ENDBRANCH  16  17
ENDBRANCH   6  16
TORSDOF 9
ENDMDL
MODEL        3
REMARK 921   NORMALIZED FREE ENERGY PREDICTED BY IDOCK:   -7.72 KCAL/MOL
REMARK 922        TOTAL FREE ENERGY PREDICTED BY IDOCK:  -13.71 KCAL/MOL
REMARK 923 INTER-LIGAND FREE ENERGY PREDICTED BY IDOCK:  -11.86 KCAL/MOL
REMARK 924 INTRA-LIGAND FREE ENERGY PREDICTED BY IDOCK:   -1.85 KCAL/MOL
REMARK 927      BINDING AFFINITY PREDICTED BY RF-SCORE:    0.00 PKD
ROOT
HETATM    1  O   UNL     1     -13.829   6.659  72.152  1.00  0.00    -0.515 OA 
HETATM    2  C   UNL     1     -12.769   7.602  72.275  1.00  0.00    -0.074 C  
HETATM    3  H   UNL     1     -14.677   7.061  72.302  1.00  0.00     0.000 HD 
HETATM    4  C   UNL     2      -9.436  10.305  64.817  1.00  0.00    -0.341 C  
HETATM    5  C   UNL     1     -11.380   6.943  72.029  1.00  0.00    -0.265 C  
HETATM    6  C   UNL     2      -9.042   8.995  65.483  1.00  0.00    -0.271 C  
HETATM    7  C   UNL     1     -11.383   6.260  70.633  1.00  0.00    -0.343 C  
HETATM    8  N   UNL     1     -10.382   8.059  72.039  1.00  0.00    -0.218 NA 
HETATM    9  C   UNL     1     -10.907   6.012  73.134  1.00  0.00    -0.259 C  
HETATM   10  H   UNL     1     -10.255   6.231  74.965  1.00  0.00     0.000 HD 
HETATM   11  H   UNL     1     -11.702   6.789  68.755  1.00  0.00     0.000 HD 
HETATM   12  H2  UNL     1     -10.417   8.627  72.885  1.00  0.00     0.000 HD 
HETATM   13  O   UNL     1     -11.701   7.206  69.607  1.00  0.00    -0.010 OA 
HETATM   14  O   UNL     1     -10.550   6.813  74.274  1.00  0.00    -0.257 OA 
HETATM   15  H1  UNL     1      -9.472   7.628  71.877  1.00  0.00     0.000 HD 
ENDROOT
BRANCH   6  16
HETATM   16  C   UNL     2      -8.793   9.121  66.988  1.00  0.00    -0.135 C  
BRANCH  16  17
HETATM   17  C   UNL     2     -10.051   9.071  67.860  1.00  0.00    -0.246 C  
BRANCH  17  18
HETATM   18  C   UNL     2     -10.165  10.207  68.903  1.00  0.00    -0.213 C  
HETATM   19  C   UNL     2     -11.428  11.097  68.887  1.00  0.00    -0.295 C  
HETATM   20  C   UNL     2     -11.538  12.072  70.068  1.00  0.00    -0.275 C  
HETATM   21  O   UNL     2     -12.560  10.225  68.971  1.00  0.00    -0.427 OA 
HETATM   22  C   UNL     2     -11.510  11.859  67.594  1.00  0.00    -0.387 C  
HETATM   23  H   UNL     2     -13.337  10.772  68.961  1.00  0.00     0.000 HD 
HETATM   24  C   UNL     2     -10.762  12.908  67.214  1.00  0.00    -0.260 C  
BRANCH  24  25
HETATM   25  C   UNL     2     -10.866  13.620  65.883  1.00  0.00    -0.276 C  
HETATM   26  C   UNL     2     -11.805  12.974  64.838  1.00  0.00    -0.361 C  
HETATM   27  C   UNL     2     -11.905  14.054  63.789  1.00  0.00    -0.160 C  
HETATM   28  O   UNL     2     -13.139  12.747  65.282  1.00  0.00    -0.658 OA 
HETATM   29  H   UNL     2     -13.716  12.350  64.640  1.00  0.00     0.000 HD 
HETATM   30  C   UNL     2     -12.069  15.334  64.608  1.00  0.00    -0.187 C  
HETATM   31  C   UNL     2     -11.330  15.107  65.954  1.00  0.00    -0.225 C  
HETATM   32  O   UNL     2     -11.577  16.412  63.827  1.00  0.00    -1.605 OA 
HETATM   33  H   UNL     2     -11.679  17.207  64.336  1.00  0.00     0.000 HD 
BRANCH  31  34
HETATM   34  C   UNL     2     -10.177  16.092  66.248  1.00  0.00    -0.333 C  
BRANCH  34  35
HETATM   35  C   UNL     2     -10.535  17.179  67.236  1.00  0.00    -0.313 C  
HETATM   36  C   UNL     2     -10.675  17.088  68.567  1.00  0.00    -0.352 C  
BRANCH  36  37
HETATM   37  C   UNL     2     -10.507  15.867  69.426  1.00  0.00    -0.265 C  
BRANCH  37  38
HETATM   38  C   UNL     2     -11.762  15.510  70.224  1.00  0.00    -0.367 C  
BRANCH  38  39
HETATM   39  C   UNL     2     -11.804  16.087  71.631  1.00  0.00    -0.582 C  
HETATM   40  C   UNL     2     -12.729  15.426  72.654  1.00  0.00    -0.392 C  
HETATM   41  O   UNL     2     -13.105  16.188  73.588  1.00  0.00    -0.594 OA 
HETATM   42  O   UNL     2     -13.003  14.186  72.549  1.00  0.00    -0.401 OA 
ENDBRANCH  38  39
ENDBRANCH  37  38
ENDBRANCH  36  37
ENDBRANCH  34  35
ENDBRANCH  31  34
ENDBRANCH  24  25
ENDBRANCH  17  18
ENDBRANCH  16  17
ENDBRANCH   6  16
TORSDOF 9
ENDMDL
MODEL        4
REMARK 921   NORMALIZED FREE ENERGY PREDICTED BY IDOCK:   -7.63 KCAL/MOL
REMARK 922        TOTAL FREE ENERGY PREDICTED BY IDOCK:  -13.57 KCAL/MOL
REMARK 923 INTER-LIGAND FREE ENERGY PREDICTED BY IDOCK:  -11.86 KCAL/MOL
REMARK 924 INTRA-LIGAND FREE ENERGY PREDICTED BY IDOCK:   -1.70 KCAL/MOL
REMARK 927      BINDING AFFINITY PREDICTED BY RF-SCORE:    0.00 PKD
ROOT
HETATM    1  O   UNL     1     -13.684   8.895  73.392  1.00  0.00    -1.094 OA 
HETATM    2  C   UNL     1     -14.005   9.302  72.066  1.00  0.00    -0.327 C  
HETATM    3  H   UNL     1     -14.405   8.433  73.803  1.00  0.00     0.000 HD 
HETATM    4  C   UNL     2     -10.496   4.495  65.851  1.00  0.00    -0.262 C  
HETATM    5  C   UNL     1     -12.823  10.059  71.393  1.00  0.00    -0.417 C  
HETATM    6  C   UNL     2      -9.750   5.611  66.568  1.00  0.00    -0.181 C  
HETATM    7  C   UNL     1     -11.557   9.159  71.428  1.00  0.00    -0.341 C  
HETATM    8  N   UNL     1     -13.232  10.294  69.972  1.00  0.00    -0.454 NA 
HETATM    9  C   UNL     1     -12.562  11.455  71.939  1.00  0.00    -0.015 C  
HETATM   10  H   UNL     1     -13.464  13.187  71.841  1.00  0.00     0.000 HD 
HETATM   11  H   UNL     1     -11.036   7.357  70.804  1.00  0.00     0.000 HD 
HETATM   12  H2  UNL     1     -14.126  10.776  69.881  1.00  0.00     0.000 HD 
HETATM   13  O   UNL     1     -11.809   7.907  70.782  1.00  0.00    -0.269 OA 
HETATM   14  O   UNL     1     -13.627  12.315  71.500  1.00  0.00    -0.021 OA 
HETATM   15  H1  UNL     1     -12.457  10.789  69.531  1.00  0.00     0.000 HD 
ENDROOT
BRANCH   6  16
HETATM   16  C   UNL     2     -10.570   6.892  66.730  1.00  0.00    -0.304 C  
BRANCH  16  17
HETATM   17  C   UNL     2      -9.975   7.925  67.692  1.00  0.00    -0.234 C  
BRANCH  17  18
HETATM   18  C   UNL     2      -8.596   8.485  67.271  1.00  0.00    -0.123 C  
HETATM   19  C   UNL     2      -8.202   9.902  67.745  1.00  0.00    -0.114 C  
HETATM   20  C   UNL     2      -6.750  10.298  67.438  1.00  0.00    -0.072 C  
HETATM   21  O   UNL     2      -8.337   9.923  69.171  1.00  0.00    -0.123 OA 
HETATM   22  C   UNL     2      -9.138  10.923  67.163  1.00  0.00    -0.152 C  
HETATM   23  H   UNL     2      -8.096  10.794  69.462  1.00  0.00     0.000 HD 
HETATM   24  C   UNL     2      -9.186  11.359  65.893  1.00  0.00    -0.231 C  
BRANCH  24  25
HETATM   25  C   UNL     2     -10.173  12.369  65.352  1.00  0.00    -0.302 C  
HETATM   26  C   UNL     2     -10.529  12.237  63.853  1.00  0.00    -0.429 C  
HETATM   27  C   UNL     2     -11.712  13.165  63.724  1.00  0.00    -0.519 C  
HETATM   28  O   UNL     2     -11.004  10.954  63.454  1.00  0.00    -0.601 OA 
HETATM   29  H   UNL     2     -11.223  10.872  62.534  1.00  0.00     0.000 HD 
HETATM   30  C   UNL     2     -12.544  12.859  64.968  1.00  0.00    -0.472 C  
HETATM   31  C   UNL     2     -11.553  12.411  66.075  1.00  0.00    -0.455 C  
HETATM   32  O   UNL     2     -13.304  14.018  65.274  1.00  0.00    -0.741 OA 
HETATM   33  H   UNL     2     -13.821  13.828  66.048  1.00  0.00     0.000 HD 
BRANCH  31  34
HETATM   34  C   UNL     2     -11.548  13.287  67.349  1.00  0.00    -0.396 C  
BRANCH  34  35
HETATM   35  C   UNL     2     -10.429  14.303  67.390  1.00  0.00    -0.264 C  
HETATM   36  C   UNL     2     -10.407  15.500  67.997  1.00  0.00    -0.247 C  
BRANCH  36  37
HETATM   37  C   UNL     2     -11.501  16.141  68.802  1.00  0.00    -0.340 C  
BRANCH  37  38
HETATM   38  C   UNL     2     -11.364  15.905  70.307  1.00  0.00    -0.381 C  
BRANCH  38  39
HETATM   39  C   UNL     2     -12.658  15.524  71.011  1.00  0.00    -0.513 C  
HETATM   40  C   UNL     2     -12.716  15.653  72.533  1.00  0.00    -0.433 C  
HETATM   41  O   UNL     2     -13.557  14.893  73.090  1.00  0.00    -0.520 OA 
HETATM   42  O   UNL     2     -11.993  16.522  73.122  1.00  0.00    -0.516 OA 
ENDBRANCH  38  39
ENDBRANCH  37  38
ENDBRANCH  36  37
ENDBRANCH  34  35
ENDBRANCH  31  34
ENDBRANCH  24  25
ENDBRANCH  17  18
ENDBRANCH  16  17
ENDBRANCH   6  16
TORSDOF 9
ENDMDL
MODEL        5
REMARK 921   NORMALIZED FREE ENERGY PREDICTED BY IDOCK:   -7.45 KCAL/MOL
REMARK 922        TOTAL FREE ENERGY PREDICTED BY IDOCK:  -13.30 KCAL/MOL
REMARK 923 INTER-LIGAND FREE ENERGY PREDICTED BY IDOCK:  -11.47 KCAL/MOL
REMARK 924 INTRA-LIGAND FREE ENERGY PREDICTED BY IDOCK:   -1.82 KCAL/MOL
REMARK 927      BINDING AFFINITY PREDICTED BY RF-SCORE:    0.00 PKD
ROOT
HETATM    1  O   UNL     1     -11.385   6.050  73.528  1.00  0.00    -0.430 OA 
HETATM    2  C   UNL     1     -11.728   5.877  72.157  1.00  0.00    -0.227 C  
HETATM    3  H   UNL     1     -11.318   5.218  73.982  1.00  0.00     0.000 HD 
HETATM    4  C   UNL     2      -5.195   6.826  66.637  1.00  0.00    -0.017 C  
HETATM    5  C   UNL     1     -11.837   7.239  71.413  1.00  0.00    -0.305 C  
HETATM    6  C   UNL     2      -5.974   7.995  67.220  1.00  0.00    -0.050 C  
HETATM    7  C   UNL     1     -10.501   8.016  71.577  1.00  0.00    -0.217 C  
HETATM    8  N   UNL     1     -12.050   6.910  69.968  1.00  0.00    -0.637 NA 
HETATM    9  C   UNL     1     -13.050   8.078  71.785  1.00  0.00    -0.336 C  
HETATM   10  H   UNL     1     -14.976   7.975  71.460  1.00  0.00     0.000 HD 
HETATM   11  H   UNL     1      -8.586   7.716  71.189  1.00  0.00     0.000 HD 
HETATM   12  H2  UNL     1     -12.847   6.294  69.805  1.00  0.00     0.000 HD 
HETATM   13  O   UNL     1      -9.402   7.242  71.088  1.00  0.00    -0.156 OA 
HETATM   14  O   UNL     1     -14.218   7.451  71.228  1.00  0.00    -0.407 OA 
HETATM   15  H1  UNL     1     -12.121   7.803  69.480  1.00  0.00     0.000 HD 
ENDROOT
BRANCH   6  16
HETATM   16  C   UNL     2      -7.490   7.789  67.211  1.00  0.00    -0.093 C  
BRANCH  16  17
HETATM   17  C   UNL     2      -8.309   9.017  66.804  1.00  0.00    -0.115 C  
BRANCH  17  18
HETATM   18  C   UNL     2      -9.017   9.742  67.972  1.00  0.00    -0.118 C  
HETATM   19  C   UNL     2     -10.526  10.051  67.841  1.00  0.00    -0.231 C  
HETATM   20  C   UNL     2     -11.179  10.602  69.117  1.00  0.00    -0.324 C  
HETATM   21  O   UNL     2     -11.185   8.814  67.546  1.00  0.00    -0.380 OA 
HETATM   22  C   UNL     2     -10.764  11.001  66.701  1.00  0.00    -0.305 C  
HETATM   23  H   UNL     2     -12.112   9.004  67.465  1.00  0.00     0.000 HD 
HETATM   24  C   UNL     2     -10.489  12.315  66.660  1.00  0.00    -0.247 C  
BRANCH  24  25
HETATM   25  C   UNL     2     -10.722  13.221  65.472  1.00  0.00    -0.299 C  
HETATM   26  C   UNL     2     -11.791  12.751  64.458  1.00  0.00    -0.379 C  
HETATM   27  C   UNL     2     -11.977  13.978  63.600  1.00  0.00    -0.109 C  
HETATM   28  O   UNL     2     -13.073  12.474  65.014  1.00  0.00    -0.765 OA 
HETATM   29  H   UNL     2     -13.730  12.185  64.392  1.00  0.00     0.000 HD 
HETATM   30  C   UNL     2     -12.011  15.121  64.613  1.00  0.00    -0.298 C  
HETATM   31  C   UNL     2     -11.132  14.685  65.816  1.00  0.00    -0.331 C  
HETATM   32  O   UNL     2     -11.580  16.299  63.949  1.00  0.00    -1.489 OA 
HETATM   33  H   UNL     2     -11.601  17.009  64.580  1.00  0.00     0.000 HD 
BRANCH  31  34
HETATM   34  C   UNL     2      -9.925  15.602  66.117  1.00  0.00    -0.335 C  
BRANCH  34  35
HETATM   35  C   UNL     2     -10.233  16.726  67.080  1.00  0.00    -0.295 C  
HETATM   36  C   UNL     2     -10.531  16.651  68.387  1.00  0.00    -0.323 C  
BRANCH  36  37
HETATM   37  C   UNL     2     -10.633  15.416  69.236  1.00  0.00    -0.252 C  
BRANCH  37  38
HETATM   38  C   UNL     2     -12.073  15.045  69.596  1.00  0.00    -0.337 C  
BRANCH  38  39
HETATM   39  C   UNL     2     -12.524  15.514  70.971  1.00  0.00    -0.492 C  
HETATM   40  C   UNL     2     -13.453  14.602  71.774  1.00  0.00    -0.373 C  
HETATM   41  O   UNL     2     -14.171  15.205  72.620  1.00  0.00    -0.430 OA 
HETATM   42  O   UNL     2     -13.406  13.341  71.599  1.00  0.00    -0.371 OA 
ENDBRANCH  38  39
ENDBRANCH  37  38
ENDBRANCH  36  37
ENDBRANCH  34  35
ENDBRANCH  31  34
ENDBRANCH  24  25
ENDBRANCH  17  18
ENDBRANCH  16  17
ENDBRANCH   6  16
TORSDOF 9
ENDMDL
MODEL        6
REMARK 921   NORMALIZED FREE ENERGY PREDICTED BY IDOCK:   -7.45 KCAL/MOL
REMARK 922        TOTAL FREE ENERGY PREDICTED BY IDOCK:  -13.29 KCAL/MOL
REMARK 923 INTER-LIGAND FREE ENERGY PREDICTED BY IDOCK:  -11.15 KCAL/MOL
REMARK 924 INTRA-LIGAND FREE ENERGY PREDICTED BY IDOCK:   -2.14 KCAL/MOL
REMARK 927      BINDING AFFINITY PREDICTED BY RF-SCORE:    0.00 PKD
ROOT
HETATM    1  O   UNL     1     -13.262  12.124  63.490  1.00  0.00    -0.744 OA 
HETATM    2  C   UNL     1     -11.963  12.707  63.470  1.00  0.00    -0.548 C  
HETATM    3  H   UNL     1     -13.403  11.552  62.745  1.00  0.00     0.000 HD 
HETATM    4  C   UNL     2      -6.329   9.188  68.941  1.00  0.00    -0.044 C  
HETATM    5  C   UNL     1     -11.731  13.643  64.691  1.00  0.00    -0.388 C  
HETATM    6  C   UNL     2      -7.356  10.232  69.353  1.00  0.00    -0.115 C  
HETATM    7  C   UNL     1     -11.983  12.844  65.999  1.00  0.00    -0.446 C  
HETATM    8  N   UNL     1     -10.296  14.064  64.629  1.00  0.00    -0.608 NA 
HETATM    9  C   UNL     1     -12.503  14.953  64.650  1.00  0.00    -0.174 C  
HETATM   10  H   UNL     1     -12.396  16.609  63.614  1.00  0.00     0.000 HD 
HETATM   11  H   UNL     1     -11.290  11.203  66.858  1.00  0.00     0.000 HD 
HETATM   12  H2  UNL     1     -10.035  14.487  63.738  1.00  0.00     0.000 HD 
HETATM   13  O   UNL     1     -11.136  11.692  66.059  1.00  0.00    -0.301 OA 
HETATM   14  O   UNL     1     -11.914  15.790  63.640  1.00  0.00    -0.504 OA 
HETATM   15  H1  UNL     1     -10.144  14.677  65.430  1.00  0.00     0.000 HD 
ENDROOT
BRANCH   6  16
HETATM   16  C   UNL     2      -7.461  11.409  68.382  1.00  0.00    -0.111 C  
BRANCH  16  17
HETATM   17  C   UNL     2      -8.073  11.072  67.019  1.00  0.00    -0.136 C  
BRANCH  17  18
HETATM   18  C   UNL     2      -7.865   9.611  66.556  1.00  0.00    -0.108 C  
HETATM   19  C   UNL     2      -9.100   8.801  66.100  1.00  0.00    -0.202 C  
HETATM   20  C   UNL     2      -8.775   7.432  65.487  1.00  0.00    -0.051 C  
HETATM   21  O   UNL     2      -9.750   9.563  65.076  1.00  0.00    -0.434 OA 
HETATM   22  C   UNL     2     -10.059   8.627  67.245  1.00  0.00    -0.310 C  
HETATM   23  H   UNL     2     -10.509   9.066  64.796  1.00  0.00     0.000 HD 
HETATM   24  C   UNL     2      -9.921   7.822  68.312  1.00  0.00    -0.201 C  
BRANCH  24  25
HETATM   25  C   UNL     2     -10.906   7.709  69.454  1.00  0.00    -0.136 C  
HETATM   26  C   UNL     2     -11.521   6.308  69.684  1.00  0.00    -0.355 C  
HETATM   27  C   UNL     2     -12.193   6.473  71.025  1.00  0.00    -0.239 C  
HETATM   28  O   UNL     2     -10.578   5.254  69.856  1.00  0.00    -0.306 OA 
HETATM   29  H   UNL     2     -10.955   4.394  69.997  1.00  0.00     0.000 HD 
HETATM   30  C   UNL     2     -11.165   7.249  71.848  1.00  0.00    -0.248 C  
HETATM   31  C   UNL     2     -10.360   8.127  70.853  1.00  0.00    -0.218 C  
HETATM   32  O   UNL     2     -11.868   7.966  72.850  1.00  0.00    -0.600 OA 
HETATM   33  H   UNL     2     -11.229   8.449  73.361  1.00  0.00     0.000 HD 
BRANCH  31  34
HETATM   34  C   UNL     2     -10.436   9.649  71.106  1.00  0.00    -0.281 C  
BRANCH  34  35
HETATM   35  C   UNL     2     -11.376  10.381  70.176  1.00  0.00    -0.397 C  
HETATM   36  C   UNL     2     -12.457  11.113  70.484  1.00  0.00    -0.414 C  
BRANCH  36  37
HETATM   37  C   UNL     2     -13.015  11.397  71.849  1.00  0.00    -0.466 C  
BRANCH  37  38
HETATM   38  C   UNL     2     -13.416  12.860  72.047  1.00  0.00    -0.568 C  
BRANCH  38  39
HETATM   39  C   UNL     2     -12.772  13.833  71.071  1.00  0.00    -0.416 C  
HETATM   40  C   UNL     2     -12.094  15.081  71.638  1.00  0.00    -0.347 C  
HETATM   41  O   UNL     2     -12.033  16.052  70.834  1.00  0.00    -0.398 OA 
HETATM   42  O   UNL     2     -11.596  15.052  72.810  1.00  0.00    -0.337 OA 
ENDBRANCH  38  39
ENDBRANCH  37  38
ENDBRANCH  36  37
ENDBRANCH  34  35
ENDBRANCH  31  34
ENDBRANCH  24  25
ENDBRANCH  17  18
ENDBRANCH  16  17
ENDBRANCH   6  16
TORSDOF 9
ENDMDL
MODEL        7
REMARK 921   NORMALIZED FREE ENERGY PREDICTED BY IDOCK:   -7.37 KCAL/MOL
REMARK 922        TOTAL FREE ENERGY PREDICTED BY IDOCK:  -13.17 KCAL/MOL
REMARK 923 INTER-LIGAND FREE ENERGY PREDICTED BY IDOCK:  -11.36 KCAL/MOL
REMARK 924 INTRA-LIGAND FREE ENERGY PREDICTED BY IDOCK:   -1.81 KCAL/MOL
REMARK 927      BINDING AFFINITY PREDICTED BY RF-SCORE:    0.00 PKD
ROOT
HETATM    1  O   UNL     1     -10.144   3.598  65.869  1.00  0.00    -0.414 OA 
HETATM    2  C   UNL     1      -9.456   3.925  67.072  1.00  0.00    -0.200 C  
HETATM    3  H   UNL     1     -10.502   2.718  65.897  1.00  0.00     0.000 HD 
HETATM    4  C   UNL     2     -13.770   9.109  72.417  1.00  0.00    -0.543 C  
HETATM    5  C   UNL     1      -8.868   5.366  67.027  1.00  0.00    -0.110 C  
HETATM    6  C   UNL     2     -12.981   9.613  71.218  1.00  0.00    -0.446 C  
HETATM    7  C   UNL     1     -10.014   6.372  66.726  1.00  0.00    -0.171 C  
HETATM    8  N   UNL     1      -8.311   5.633  68.390  1.00  0.00    -0.106 NA 
HETATM    9  C   UNL     1      -7.677   5.543  66.098  1.00  0.00    -0.095 C  
HETATM   10  H   UNL     1      -5.800   4.994  66.108  1.00  0.00     0.000 HD 
HETATM   11  H   UNL     1     -11.751   6.878  67.522  1.00  0.00     0.000 HD 
HETATM   12  H2  UNL     1      -7.638   4.931  68.699  1.00  0.00     0.000 HD 
HETATM   13  O   UNL     1     -11.052   6.264  67.705  1.00  0.00    -0.334 OA 
HETATM   14  O   UNL     1      -6.544   4.883  66.689  1.00  0.00    -0.044 OA 
HETATM   15  H1  UNL     1      -7.926   6.577  68.360  1.00  0.00     0.000 HD 
ENDROOT
BRANCH   6  16
HETATM   16  C   UNL     2     -11.600   8.970  71.076  1.00  0.00    -0.360 C  
BRANCH  16  17
HETATM   17  C   UNL     2     -10.491   9.913  70.602  1.00  0.00    -0.301 C  
BRANCH  17  18
HETATM   18  C   UNL     2      -9.434   9.262  69.680  1.00  0.00    -0.188 C  
HETATM   19  C   UNL     2      -8.346  10.164  69.055  1.00  0.00    -0.138 C  
HETATM   20  C   UNL     2      -7.238   9.407  68.310  1.00  0.00    -0.077 C  
HETATM   21  O   UNL     2      -7.710  10.864  70.130  1.00  0.00    -0.373 OA 
HETATM   22  C   UNL     2      -8.974  11.174  68.136  1.00  0.00    -0.159 C  
HETATM   23  H   UNL     2      -7.042  11.419  69.747  1.00  0.00     0.000 HD 
HETATM   24  C   UNL     2      -9.498  10.957  66.918  1.00  0.00    -0.198 C  
BRANCH  24  25
HETATM   25  C   UNL     2     -10.147  12.008  66.045  1.00  0.00    -0.257 C  
HETATM   26  C   UNL     2     -10.099  11.750  64.521  1.00  0.00    -0.274 C  
HETATM   27  C   UNL     2     -11.059  12.788  63.993  1.00  0.00    -0.458 C  
HETATM   28  O   UNL     2     -10.625  10.495  64.102  1.00  0.00    -0.393 OA 
HETATM   29  H   UNL     2     -10.596  10.336  63.166  1.00  0.00     0.000 HD 
HETATM   30  C   UNL     2     -12.232  12.721  64.970  1.00  0.00    -0.473 C  
HETATM   31  C   UNL     2     -11.652  12.289  66.343  1.00  0.00    -0.445 C  
HETATM   32  O   UNL     2     -12.874  13.987  64.960  1.00  0.00    -0.695 OA 
HETATM   33  H   UNL     2     -13.603  13.945  65.568  1.00  0.00     0.000 HD 
BRANCH  31  34
HETATM   34  C   UNL     2     -11.867  13.295  67.496  1.00  0.00    -0.403 C  
BRANCH  34  35
HETATM   35  C   UNL     2     -11.952  12.653  68.863  1.00  0.00    -0.284 C  
HETATM   36  C   UNL     2     -12.022  13.248  70.064  1.00  0.00    -0.399 C  
BRANCH  36  37
HETATM   37  C   UNL     2     -12.038  14.720  70.359  1.00  0.00    -0.381 C  
BRANCH  37  38
HETATM   38  C   UNL     2     -13.360  15.204  70.958  1.00  0.00    -0.504 C  
BRANCH  38  39
HETATM   39  C   UNL     2     -13.465  15.057  72.468  1.00  0.00    -0.547 C  
HETATM   40  C   UNL     2     -12.390  15.718  73.332  1.00  0.00    -0.528 C  
HETATM   41  O   UNL     2     -12.225  15.179  74.463  1.00  0.00    -0.603 OA 
HETATM   42  O   UNL     2     -11.794  16.762  72.911  1.00  0.00    -0.460 OA 
ENDBRANCH  38  39
ENDBRANCH  37  38
ENDBRANCH  36  37
ENDBRANCH  34  35
ENDBRANCH  31  34
ENDBRANCH  24  25
ENDBRANCH  17  18
ENDBRANCH  16  17
ENDBRANCH   6  16
TORSDOF 9
ENDMDL
MODEL        8
REMARK 921   NORMALIZED FREE ENERGY PREDICTED BY IDOCK:   -7.32 KCAL/MOL
REMARK 922        TOTAL FREE ENERGY PREDICTED BY IDOCK:  -13.10 KCAL/MOL
REMARK 923 INTER-LIGAND FREE ENERGY PREDICTED BY IDOCK:  -10.53 KCAL/MOL
REMARK 924 INTRA-LIGAND FREE ENERGY PREDICTED BY IDOCK:   -2.57 KCAL/MOL
REMARK 927      BINDING AFFINITY PREDICTED BY RF-SCORE:    0.00 PKD
ROOT
HETATM    1  O   UNL     1     -11.394   6.819  73.106  1.00  0.00    -0.483 OA 
HETATM    2  C   UNL     1     -10.465   7.862  72.828  1.00  0.00    -0.346 C  
HETATM    3  H   UNL     1     -11.316   6.506  74.000  1.00  0.00     0.000 HD 
HETATM    4  C   UNL     2     -13.837  15.778  72.692  1.00  0.00    -0.597 C  
HETATM    5  C   UNL     1     -10.594   8.374  71.364  1.00  0.00    -0.234 C  
HETATM    6  C   UNL     2     -13.905  14.819  71.513  1.00  0.00    -0.529 C  
HETATM    7  C   UNL     1     -12.059   8.826  71.111  1.00  0.00    -0.267 C  
HETATM    8  N   UNL     1      -9.679   9.554  71.252  1.00  0.00    -0.276 NA 
HETATM    9  C   UNL     1     -10.089   7.411  70.301  1.00  0.00    -0.197 C  
HETATM   10  H   UNL     1      -8.337   6.771  69.711  1.00  0.00     0.000 HD 
HETATM   11  H   UNL     1     -13.342  10.109  71.897  1.00  0.00     0.000 HD 
HETATM   12  H2  UNL     1      -8.718   9.350  71.527  1.00  0.00     0.000 HD 
HETATM   13  O   UNL     1     -12.447   9.833  72.051  1.00  0.00    -0.367 OA 
HETATM   14  O   UNL     1      -8.653   7.373  70.375  1.00  0.00    -0.140 OA 
HETATM   15  H1  UNL     1      -9.764   9.890  70.293  1.00  0.00     0.000 HD 
ENDROOT
BRANCH   6  16
HETATM   16  C   UNL     2     -12.582  14.108  71.222  1.00  0.00    -0.438 C  
BRANCH  16  17
HETATM   17  C   UNL     2     -11.799  14.658  70.025  1.00  0.00    -0.363 C  
BRANCH  17  18
HETATM   18  C   UNL     2     -10.307  14.953  70.305  1.00  0.00     0.108 C  
HETATM   19  C   UNL     2      -9.369  15.206  69.103  1.00  0.00    -0.215 C  
HETATM   20  C   UNL     2      -7.955  15.671  69.483  1.00  0.00    -0.174 C  
HETATM   21  O   UNL     2      -9.951  16.260  68.329  1.00  0.00    -0.227 OA 
HETATM   22  C   UNL     2      -9.283  13.976  68.244  1.00  0.00    -0.200 C  
HETATM   23  H   UNL     2      -9.375  16.415  67.590  1.00  0.00     0.000 HD 
HETATM   24  C   UNL     2      -8.631  12.832  68.516  1.00  0.00    -0.048 C  
BRANCH  24  25
HETATM   25  C   UNL     2      -8.602  11.610  67.626  1.00  0.00    -0.142 C  
HETATM   26  C   UNL     2      -7.605  10.499  68.029  1.00  0.00    -0.091 C  
HETATM   27  C   UNL     2      -8.034   9.351  67.148  1.00  0.00    -0.102 C  
HETATM   28  O   UNL     2      -7.736  10.024  69.366  1.00  0.00    -0.101 OA 
HETATM   29  H   UNL     2      -7.124   9.341  69.614  1.00  0.00     0.000 HD 
HETATM   30  C   UNL     2      -9.559   9.388  67.229  1.00  0.00    -0.151 C  
HETATM   31  C   UNL     2      -9.964  10.868  67.463  1.00  0.00    -0.201 C  
HETATM   32  O   UNL     2     -10.069   8.806  66.040  1.00  0.00    -0.444 OA 
HETATM   33  H   UNL     2     -11.017   8.829  66.091  1.00  0.00     0.000 HD 
BRANCH  31  34
HETATM   34  C   UNL     2     -10.868  11.485  66.373  1.00  0.00    -0.334 C  
BRANCH  34  35
HETATM   35  C   UNL     2     -10.111  12.030  65.183  1.00  0.00    -0.295 C  
HETATM   36  C   UNL     2     -10.587  12.701  64.123  1.00  0.00    -0.434 C  
BRANCH  36  37
HETATM   37  C   UNL     2     -12.012  13.088  63.847  1.00  0.00    -0.551 C  
BRANCH  37  38
HETATM   38  C   UNL     2     -12.451  14.351  64.590  1.00  0.00    -0.364 C  
BRANCH  38  39
HETATM   39  C   UNL     2     -11.394  14.949  65.506  1.00  0.00    -0.339 C  
HETATM   40  C   UNL     2     -10.663  16.207  65.037  1.00  0.00    -0.337 C  
HETATM   41  O   UNL     2      -9.516  16.364  65.544  1.00  0.00    -0.467 OA 
HETATM   42  O   UNL     2     -11.247  17.022  64.250  1.00  0.00    -1.186 OA 
ENDBRANCH  38  39
ENDBRANCH  37  38
ENDBRANCH  36  37
ENDBRANCH  34  35
ENDBRANCH  31  34
ENDBRANCH  24  25
ENDBRANCH  17  18
ENDBRANCH  16  17
ENDBRANCH   6  16
TORSDOF 9
ENDMDL
MODEL        9
REMARK 921   NORMALIZED FREE ENERGY PREDICTED BY IDOCK:   -7.32 KCAL/MOL
REMARK 922        TOTAL FREE ENERGY PREDICTED BY IDOCK:  -13.09 KCAL/MOL
REMARK 923 INTER-LIGAND FREE ENERGY PREDICTED BY IDOCK:  -10.53 KCAL/MOL
REMARK 924 INTRA-LIGAND FREE ENERGY PREDICTED BY IDOCK:   -2.57 KCAL/MOL
REMARK 927      BINDING AFFINITY PREDICTED BY RF-SCORE:    0.00 PKD
ROOT
HETATM    1  O   UNL     1     -12.757   7.046  70.697  1.00  0.00    -0.600 OA 
HETATM    2  C   UNL     1     -11.425   7.100  71.197  1.00  0.00    -0.290 C  
HETATM    3  H   UNL     1     -13.393   7.283  71.362  1.00  0.00     0.000 HD 
HETATM    4  C   UNL     2      -6.913  14.007  68.746  1.00  0.00    -0.106 C  
HETATM    5  C   UNL     1     -10.383   6.712  70.107  1.00  0.00    -0.203 C  
HETATM    6  C   UNL     2      -7.088  12.770  67.878  1.00  0.00    -0.118 C  
HETATM    7  C   UNL     1     -10.572   7.636  68.872  1.00  0.00    -0.159 C  
HETATM    8  N   UNL     1      -9.036   6.955  70.713  1.00  0.00    -0.150 NA 
HETATM    9  C   UNL     1     -10.363   5.238  69.736  1.00  0.00    -0.299 C  
HETATM   10  H   UNL     1      -9.776   3.585  70.601  1.00  0.00     0.000 HD 
HETATM   11  H   UNL     1     -10.563   9.576  68.491  1.00  0.00     0.000 HD 
HETATM   12  H2  UNL     1      -8.895   6.469  71.599  1.00  0.00     0.000 HD 
HETATM   13  O   UNL     1     -10.447   9.012  69.246  1.00  0.00    -0.222 OA 
HETATM   14  O   UNL     1      -9.789   4.506  70.833  1.00  0.00    -0.179 OA 
HETATM   15  H1  UNL     1      -8.353   6.701  69.999  1.00  0.00     0.000 HD 
ENDROOT
BRANCH   6  16
HETATM   16  C   UNL     2      -6.892  11.455  68.634  1.00  0.00    -0.078 C  
BRANCH  16  17
HETATM   17  C   UNL     2      -6.311  10.308  67.801  1.00  0.00    -0.057 C  
BRANCH  17  18
HETATM   18  C   UNL     2      -7.326   9.210  67.411  1.00  0.00    -0.084 C  
HETATM   19  C   UNL     2      -7.789   9.125  65.938  1.00  0.00    -0.105 C  
HETATM   20  C   UNL     2      -8.649   7.896  65.608  1.00  0.00    -0.159 C  
HETATM   21  O   UNL     2      -6.611   9.027  65.131  1.00  0.00    -0.070 OA 
HETATM   22  C   UNL     2      -8.527  10.376  65.553  1.00  0.00    -0.171 C  
HETATM   23  H   UNL     2      -6.895   8.976  64.226  1.00  0.00     0.000 HD 
HETATM   24  C   UNL     2      -9.766  10.742  65.924  1.00  0.00    -0.272 C  
BRANCH  24  25
HETATM   25  C   UNL     2     -10.451  12.031  65.531  1.00  0.00    -0.307 C  
HETATM   26  C   UNL     2     -10.644  12.263  64.014  1.00  0.00    -0.400 C  
HETATM   27  C   UNL     2     -11.587  13.441  63.990  1.00  0.00    -0.429 C  
HETATM   28  O   UNL     2     -11.321  11.218  63.323  1.00  0.00    -0.804 OA 
HETATM   29  H   UNL     2     -11.439  11.360  62.391  1.00  0.00     0.000 HD 
HETATM   30  C   UNL     2     -12.608  13.105  65.076  1.00  0.00    -0.438 C  
HETATM   31  C   UNL     2     -11.871  12.248  66.139  1.00  0.00    -0.398 C  
HETATM   32  O   UNL     2     -13.145  14.328  65.556  1.00  0.00    -0.639 OA 
HETATM   33  H   UNL     2     -13.779  14.118  66.231  1.00  0.00     0.000 HD 
BRANCH  31  34
HETATM   34  C   UNL     2     -11.839  12.847  67.563  1.00  0.00    -0.407 C  
BRANCH  34  35
HETATM   35  C   UNL     2     -10.626  13.707  67.840  1.00  0.00    -0.255 C  
HETATM   36  C   UNL     2     -10.573  14.920  68.412  1.00  0.00    -0.244 C  
BRANCH  36  37
HETATM   37  C   UNL     2     -11.719  15.741  68.930  1.00  0.00    -0.404 C  
BRANCH  37  38
HETATM   38  C   UNL     2     -11.933  15.598  70.438  1.00  0.00    -0.405 C  
BRANCH  38  39
HETATM   39  C   UNL     2     -12.653  14.326  70.859  1.00  0.00    -0.426 C  
HETATM   40  C   UNL     2     -13.594  14.395  72.062  1.00  0.00    -0.424 C  
HETATM   41  O   UNL     2     -13.758  13.294  72.660  1.00  0.00    -0.674 OA 
HETATM   42  O   UNL     2     -14.182  15.490  72.343  1.00  0.00    -0.553 OA 
ENDBRANCH  38  39
ENDBRANCH  37  38
ENDBRANCH  36  37
ENDBRANCH  34  35
ENDBRANCH  31  34
ENDBRANCH  24  25
ENDBRANCH  17  18
ENDBRANCH  16  17
ENDBRANCH   6  16
TORSDOF 9
ENDMDL
MODEL       10
REMARK 921   NORMALIZED FREE ENERGY PREDICTED BY IDOCK:   -7.28 KCAL/MOL
REMARK 922        TOTAL FREE ENERGY PREDICTED BY IDOCK:  -13.03 KCAL/MOL
REMARK 923 INTER-LIGAND FREE ENERGY PREDICTED BY IDOCK:  -10.58 KCAL/MOL
REMARK 924 INTRA-LIGAND FREE ENERGY PREDICTED BY IDOCK:   -2.44 KCAL/MOL
REMARK 927      BINDING AFFINITY PREDICTED BY RF-SCORE:    0.00 PKD
ROOT
HETATM    1  O   UNL     1      -8.410  20.197  65.478  1.00  0.00    -0.467 OA 
HETATM    2  C   UNL     1      -8.162  19.017  66.235  1.00  0.00    -0.282 C  
HETATM    3  H   UNL     1      -7.684  20.404  64.901  1.00  0.00     0.000 HD 
HETATM    4  C   UNL     2     -12.292  11.995  63.461  1.00  0.00    -0.661 C  
HETATM    5  C   UNL     1      -9.352  18.676  67.179  1.00  0.00    -0.290 C  
HETATM    6  C   UNL     2     -12.937  13.051  64.347  1.00  0.00    -0.039 C  
HETATM    7  C   UNL     1     -10.651  18.556  66.334  1.00  0.00    -0.325 C  
HETATM    8  N   UNL     1      -9.030  17.351  67.795  1.00  0.00    -0.233 NA 
HETATM    9  C   UNL     1      -9.514  19.609  68.369  1.00  0.00    -0.370 C  
HETATM   10  H   UNL     1      -8.544  19.931  70.037  1.00  0.00     0.000 HD 
HETATM   11  H   UNL     1     -11.292  17.494  64.795  1.00  0.00     0.000 HD 
HETATM   12  H2  UNL     1      -8.123  17.329  68.262  1.00  0.00     0.000 HD 
HETATM   13  O   UNL     1     -10.499  17.568  65.310  1.00  0.00    -0.643 OA 
HETATM   14  O   UNL     1      -8.444  19.348  69.293  1.00  0.00    -0.233 OA 
HETATM   15  H1  UNL     1      -9.810  17.127  68.413  1.00  0.00     0.000 HD 
ENDROOT
BRANCH   6  16
HETATM   16  C   UNL     2     -12.053  13.502  65.510  1.00  0.00    -0.454 C  
BRANCH  16  17
HETATM   17  C   UNL     2     -11.708  12.408  66.525  1.00  0.00    -0.443 C  
BRANCH  17  18
HETATM   18  C   UNL     2     -10.195  12.148  66.711  1.00  0.00    -0.224 C  
HETATM   19  C   UNL     2      -9.631  10.764  66.313  1.00  0.00    -0.195 C  
HETATM   20  C   UNL     2      -8.100  10.662  66.357  1.00  0.00    -0.148 C  
HETATM   21  O   UNL     2     -10.018  10.526  64.955  1.00  0.00    -0.289 OA 
HETATM   22  C   UNL     2     -10.235   9.691  67.175  1.00  0.00    -0.305 C  
HETATM   23  H   UNL     2      -9.672   9.676  64.711  1.00  0.00     0.000 HD 
HETATM   24  C   UNL     2      -9.968   9.432  68.466  1.00  0.00    -0.190 C  
BRANCH  24  25
HETATM   25  C   UNL     2     -10.630   8.355  69.296  1.00  0.00    -0.193 C  
HETATM   26  C   UNL     2     -10.626   6.932  68.691  1.00  0.00    -0.223 C  
HETATM   27  C   UNL     2     -11.073   6.088  69.860  1.00  0.00    -0.469 C  
HETATM   28  O   UNL     2      -9.343   6.432  68.328  1.00  0.00    -0.113 OA 
HETATM   29  H   UNL     2      -9.340   5.558  67.956  1.00  0.00     0.000 HD 
HETATM   30  C   UNL     2     -10.288   6.664  71.038  1.00  0.00    -0.207 C  
HETATM   31  C   UNL     2     -10.052   8.167  70.732  1.00  0.00    -0.211 C  
HETATM   32  O   UNL     2     -11.028   6.399  72.220  1.00  0.00    -0.232 OA 
HETATM   33  H   UNL     2     -10.540   6.757  72.952  1.00  0.00     0.000 HD 
BRANCH  31  34
HETATM   34  C   UNL     2     -10.648   9.151  71.763  1.00  0.00    -0.383 C  
BRANCH  34  35
HETATM   35  C   UNL     2     -12.090   9.522  71.496  1.00  0.00    -0.468 C  
HETATM   36  C   UNL     2     -12.573  10.609  70.875  1.00  0.00    -0.503 C  
BRANCH  36  37
HETATM   37  C   UNL     2     -11.796  11.747  70.278  1.00  0.00    -0.382 C  
BRANCH  37  38
HETATM   38  C   UNL     2     -12.259  13.120  70.769  1.00  0.00    -0.375 C  
BRANCH  38  39
HETATM   39  C   UNL     2     -12.506  14.138  69.666  1.00  0.00    -0.207 C  
HETATM   40  C   UNL     2     -11.355  15.061  69.266  1.00  0.00    -0.296 C  
HETATM   41  O   UNL     2     -11.718  16.158  68.755  1.00  0.00    -0.364 OA 
HETATM   42  O   UNL     2     -10.151  14.667  69.404  1.00  0.00    -0.167 OA 
ENDBRANCH  38  39
ENDBRANCH  37  38
ENDBRANCH  36  37
ENDBRANCH  34  35
ENDBRANCH  31  34
ENDBRANCH  24  25
ENDBRANCH  17  18
ENDBRANCH  16  17
ENDBRANCH   6  16
TORSDOF 9
ENDMDL
MODEL       11
REMARK 921   NORMALIZED FREE ENERGY PREDICTED BY IDOCK:   -7.28 KCAL/MOL
REMARK 922        TOTAL FREE ENERGY PREDICTED BY IDOCK:  -13.03 KCAL/MOL
REMARK 923 INTER-LIGAND FREE ENERGY PREDICTED BY IDOCK:  -10.71 KCAL/MOL
REMARK 924 INTRA-LIGAND FREE ENERGY PREDICTED BY IDOCK:   -2.31 KCAL/MOL
REMARK 927      BINDING AFFINITY PREDICTED BY RF-SCORE:    0.00 PKD
ROOT
HETATM    1  O   UNL     1      -8.299  19.405  68.810  1.00  0.00    -0.363 OA 
HETATM    2  C   UNL     1      -8.898  18.706  67.723  1.00  0.00    -0.275 C  
HETATM    3  H   UNL     1      -8.829  20.143  69.089  1.00  0.00     0.000 HD 
HETATM    4  C   UNL     2     -12.710  11.289  69.848  1.00  0.00    -0.033 C  
HETATM    5  C   UNL     1      -8.031  17.497  67.266  1.00  0.00    -0.205 C  
HETATM    6  C   UNL     2     -11.213  11.423  69.612  1.00  0.00    -0.301 C  
HETATM    7  C   UNL     1      -7.780  16.564  68.483  1.00  0.00    -0.204 C  
HETATM    8  N   UNL     1      -8.837  16.771  66.235  1.00  0.00    -0.356 NA 
HETATM    9  C   UNL     1      -6.747  17.867  66.540  1.00  0.00    -0.217 C  
HETATM   10  H   UNL     1      -6.293  18.600  64.784  1.00  0.00     0.000 HD 
HETATM   11  H   UNL     1      -8.867  15.560  69.795  1.00  0.00     0.000 HD 
HETATM   12  H2  UNL     1      -9.141  17.366  65.464  1.00  0.00     0.000 HD 
HETATM   13  O   UNL     1      -9.020  16.130  69.052  1.00  0.00    -0.227 OA 
HETATM   14  O   UNL     1      -7.095  18.368  65.238  1.00  0.00    -0.530 OA 
HETATM   15  H1  UNL     1      -8.269  15.978  65.936  1.00  0.00     0.000 HD 
ENDROOT
BRANCH   6  16
HETATM   16  C   UNL     2     -10.857  12.239  68.368  1.00  0.00    -0.257 C  
BRANCH  16  17
HETATM   17  C   UNL     2     -11.893  13.291  67.963  1.00  0.00    -0.392 C  
BRANCH  17  18
HETATM   18  C   UNL     2     -11.455  14.225  66.811  1.00  0.00    -0.380 C  
HETATM   19  C   UNL     2     -12.068  14.003  65.409  1.00  0.00    -0.401 C  
HETATM   20  C   UNL     2     -11.717  15.087  64.380  1.00  0.00    -0.320 C  
HETATM   21  O   UNL     2     -13.492  14.031  65.563  1.00  0.00    -0.705 OA 
HETATM   22  C   UNL     2     -11.673  12.654  64.878  1.00  0.00    -0.399 C  
HETATM   23  H   UNL     2     -13.869  13.894  64.702  1.00  0.00     0.000 HD 
HETATM   24  C   UNL     2     -10.470  12.278  64.414  1.00  0.00    -0.355 C  
BRANCH  24  25
HETATM   25  C   UNL     2     -10.118  10.894  63.918  1.00  0.00    -0.422 C  
HETATM   26  C   UNL     2      -9.372  10.826  62.565  1.00  0.00    -0.278 C  
HETATM   27  C   UNL     2      -8.926   9.385  62.519  1.00  0.00    -0.241 C  
HETATM   28  O   UNL     2      -8.177  11.598  62.492  1.00  0.00    -0.638 OA 
HETATM   29  H   UNL     2      -7.719  11.557  61.661  1.00  0.00     0.000 HD 
HETATM   30  C   UNL     2      -8.425   9.120  63.938  1.00  0.00    -0.180 C  
HETATM   31  C   UNL     2      -9.243  10.038  64.884  1.00  0.00    -0.291 C  
HETATM   32  O   UNL     2      -8.555   7.729  64.188  1.00  0.00    -0.372 OA 
HETATM   33  H   UNL     2      -8.243   7.565  65.070  1.00  0.00     0.000 HD 
BRANCH  31  34
HETATM   34  C   UNL     2     -10.070   9.303  65.964  1.00  0.00    -0.262 C  
BRANCH  34  35
HETATM   35  C   UNL     2      -9.336   9.106  67.270  1.00  0.00    -0.166 C  
HETATM   36  C   UNL     2      -9.475   8.118  68.168  1.00  0.00    -0.150 C  
BRANCH  36  37
HETATM   37  C   UNL     2     -10.406   6.941  68.101  1.00  0.00    -0.223 C  
BRANCH  37  38
HETATM   38  C   UNL     2     -11.153   6.684  69.411  1.00  0.00    -0.365 C  
BRANCH  38  39
HETATM   39  C   UNL     2     -11.066   7.816  70.423  1.00  0.00    -0.259 C  
HETATM   40  C   UNL     2     -11.804   7.651  71.753  1.00  0.00    -0.290 C  
HETATM   41  O   UNL     2     -12.120   8.739  72.312  1.00  0.00    -0.366 OA 
HETATM   42  O   UNL     2     -11.993   6.486  72.231  1.00  0.00    -0.292 OA 
ENDBRANCH  38  39
ENDBRANCH  37  38
ENDBRANCH  36  37
ENDBRANCH  34  35
ENDBRANCH  31  34
ENDBRANCH  24  25
ENDBRANCH  17  18
ENDBRANCH  16  17
ENDBRANCH   6  16
TORSDOF 9
ENDMDL
MODEL       12
REMARK 921   NORMALIZED FREE ENERGY PREDICTED BY IDOCK:   -7.27 KCAL/MOL
REMARK 922        TOTAL FREE ENERGY PREDICTED BY IDOCK:  -13.02 KCAL/MOL
REMARK 923 INTER-LIGAND FREE ENERGY PREDICTED BY IDOCK:  -10.21 KCAL/MOL
REMARK 924 INTRA-LIGAND FREE ENERGY PREDICTED BY IDOCK:   -2.81 KCAL/MOL
REMARK 927      BINDING AFFINITY PREDICTED BY RF-SCORE:    0.00 PKD
ROOT
HETATM    1  O   UNL     1      -9.670   9.079  72.246  1.00  0.00    -0.260 OA 
HETATM    2  C   UNL     1      -9.672   8.646  70.889  1.00  0.00    -0.204 C  
HETATM    3  H   UNL     1      -8.788   9.147  72.593  1.00  0.00     0.000 HD 
HETATM    4  C   UNL     2     -11.125  14.851  65.107  1.00  0.00    -0.399 C  
HETATM    5  C   UNL     1     -11.117   8.534  70.321  1.00  0.00    -0.214 C  
HETATM    6  C   UNL     2     -12.233  14.146  65.875  1.00  0.00    -0.458 C  
HETATM    7  C   UNL     1     -11.836   9.901  70.490  1.00  0.00    -0.270 C  
HETATM    8  N   UNL     1     -10.970   8.221  68.865  1.00  0.00    -0.427 NA 
HETATM    9  C   UNL     1     -11.933   7.373  70.869  1.00  0.00    -0.277 C  
HETATM   10  H   UNL     1     -11.916   5.429  70.661  1.00  0.00     0.000 HD 
HETATM   11  H   UNL     1     -11.540  11.778  69.944  1.00  0.00     0.000 HD 
HETATM   12  H2  UNL     1     -10.398   7.396  68.682  1.00  0.00     0.000 HD 
HETATM   13  O   UNL     1     -11.100  10.943  69.841  1.00  0.00    -0.266 OA 
HETATM   14  O   UNL     1     -11.406   6.154  70.319  1.00  0.00    -0.365 OA 
HETATM   15  H1  UNL     1     -11.917   8.148  68.493  1.00  0.00     0.000 HD 
ENDROOT
BRANCH   6  16
HETATM   16  C   UNL     2     -12.066  12.627  65.940  1.00  0.00    -0.459 C  
BRANCH  16  17
HETATM   17  C   UNL     2     -11.074  12.128  66.995  1.00  0.00    -0.347 C  
BRANCH  17  18
HETATM   18  C   UNL     2      -9.614  11.999  66.503  1.00  0.00    -0.234 C  
HETATM   19  C   UNL     2      -8.472  12.179  67.529  1.00  0.00    -0.169 C  
HETATM   20  C   UNL     2      -7.072  11.850  66.992  1.00  0.00    -0.116 C  
HETATM   21  O   UNL     2      -8.722  11.264  68.602  1.00  0.00    -0.154 OA 
HETATM   22  C   UNL     2      -8.487  13.576  68.082  1.00  0.00    -0.172 C  
HETATM   23  H   UNL     2      -8.021  11.375  69.233  1.00  0.00     0.000 HD 
HETATM   24  C   UNL     2      -8.109  14.706  67.460  1.00  0.00    -0.200 C  
BRANCH  24  25
HETATM   25  C   UNL     2      -8.174  16.094  68.055  1.00  0.00    -0.152 C  
HETATM   26  C   UNL     2      -6.847  16.889  68.072  1.00  0.00    -0.148 C  
HETATM   27  C   UNL     2      -7.312  18.278  68.434  1.00  0.00    -0.285 C  
HETATM   28  O   UNL     2      -6.203  17.019  66.808  1.00  0.00    -0.182 OA 
HETATM   29  H   UNL     2      -5.388  17.507  66.817  1.00  0.00     0.000 HD 
HETATM   30  C   UNL     2      -8.568  18.468  67.584  1.00  0.00    -0.264 C  
HETATM   31  C   UNL     2      -9.196  17.063  67.386  1.00  0.00    -0.234 C  
HETATM   32  O   UNL     2      -9.397  19.410  68.245  1.00  0.00    -0.323 OA 
HETATM   33  H   UNL     2     -10.178  19.528  67.716  1.00  0.00     0.000 HD 
BRANCH  31  34
HETATM   34  C   UNL     2     -10.634  16.901  67.929  1.00  0.00    -0.361 C  
BRANCH  34  35
HETATM   35  C   UNL     2     -10.721  16.876  69.438  1.00  0.00    -0.258 C  
HETATM   36  C   UNL     2     -11.173  15.894  70.234  1.00  0.00    -0.388 C  
BRANCH  36  37
HETATM   37  C   UNL     2     -11.710  14.554  69.824  1.00  0.00    -0.356 C  
BRANCH  37  38
HETATM   38  C   UNL     2     -12.951  14.131  70.613  1.00  0.00    -0.290 C  
BRANCH  38  39
HETATM   39  C   UNL     2     -12.700  13.854  72.088  1.00  0.00    -0.324 C  
HETATM   40  C   UNL     2     -12.982  14.975  73.089  1.00  0.00    -0.522 C  
HETATM   41  O   UNL     2     -12.319  14.896  74.161  1.00  0.00    -0.544 OA 
HETATM   42  O   UNL     2     -13.871  15.849  72.826  1.00  0.00    -0.584 OA 
ENDBRANCH  38  39
ENDBRANCH  37  38
ENDBRANCH  36  37
ENDBRANCH  34  35
ENDBRANCH  31  34
ENDBRANCH  24  25
ENDBRANCH  17  18
ENDBRANCH  16  17
ENDBRANCH   6  16
TORSDOF 9
ENDMDL
MODEL       13
REMARK 921   NORMALIZED FREE ENERGY PREDICTED BY IDOCK:   -7.24 KCAL/MOL
REMARK 922        TOTAL FREE ENERGY PREDICTED BY IDOCK:  -12.98 KCAL/MOL
REMARK 923 INTER-LIGAND FREE ENERGY PREDICTED BY IDOCK:  -10.80 KCAL/MOL
REMARK 924 INTRA-LIGAND FREE ENERGY PREDICTED BY IDOCK:   -2.17 KCAL/MOL
REMARK 927      BINDING AFFINITY PREDICTED BY RF-SCORE:    0.00 PKD
ROOT
HETATM    1  O   UNL     1      -9.832  20.715  66.685  1.00  0.00    -0.616 OA 
HETATM    2  C   UNL     1      -8.949  19.844  65.987  1.00  0.00    -0.245 C  
HETATM    3  H   UNL     1     -10.140  21.423  66.132  1.00  0.00     0.000 HD 
HETATM    4  C   UNL     2     -12.427  12.368  63.523  1.00  0.00    -0.605 C  
HETATM    5  C   UNL     1      -8.445  18.683  66.894  1.00  0.00    -0.273 C  
HETATM    6  C   UNL     2     -11.897  12.622  64.927  1.00  0.00    -0.436 C  
HETATM    7  C   UNL     1      -9.671  17.920  67.468  1.00  0.00    -0.278 C  
HETATM    8  N   UNL     1      -7.658  17.771  66.006  1.00  0.00    -0.486 NA 
HETATM    9  C   UNL     1      -7.456  19.096  67.973  1.00  0.00    -0.263 C  
HETATM   10  H   UNL     1      -5.587  19.670  68.012  1.00  0.00     0.000 HD 
HETATM   11  H   UNL     1     -11.252  16.965  66.763  1.00  0.00     0.000 HD 
HETATM   12  H2  UNL     1      -6.909  18.244  65.500  1.00  0.00     0.000 HD 
HETATM   13  O   UNL     1     -10.504  17.431  66.412  1.00  0.00    -0.326 OA 
HETATM   14  O   UNL     1      -6.205  19.412  67.338  1.00  0.00    -0.190 OA 
HETATM   15  H1  UNL     1      -7.328  17.010  66.600  1.00  0.00     0.000 HD 
ENDROOT
BRANCH   6  16
HETATM   16  C   UNL     2     -10.539  13.326  64.953  1.00  0.00    -0.381 C  
BRANCH  16  17
HETATM   17  C   UNL     2     -10.313  14.255  66.150  1.00  0.00    -0.305 C  
BRANCH  17  18
HETATM   18  C   UNL     2     -11.377  14.146  67.267  1.00  0.00    -0.349 C  
HETATM   19  C   UNL     2     -10.937  13.628  68.655  1.00  0.00    -0.267 C  
HETATM   20  C   UNL     2     -12.013  13.729  69.745  1.00  0.00    -0.406 C  
HETATM   21  O   UNL     2      -9.843  14.447  69.083  1.00  0.00    -0.376 OA 
HETATM   22  C   UNL     2     -10.456  12.208  68.550  1.00  0.00    -0.248 C  
HETATM   23  H   UNL     2      -9.572  14.129  69.936  1.00  0.00     0.000 HD 
HETATM   24  C   UNL     2     -11.199  11.103  68.371  1.00  0.00    -0.325 C  
BRANCH  24  25
HETATM   25  C   UNL     2     -10.658   9.697  68.241  1.00  0.00    -0.268 C  
HETATM   26  C   UNL     2     -10.439   9.183  66.800  1.00  0.00    -0.196 C  
HETATM   27  C   UNL     2      -9.643   7.922  67.029  1.00  0.00    -0.247 C  
HETATM   28  O   UNL     2      -9.617  10.010  65.980  1.00  0.00    -0.191 OA 
HETATM   29  H   UNL     2      -9.482   9.695  65.095  1.00  0.00     0.000 HD 
HETATM   30  C   UNL     2      -8.630   8.327  68.099  1.00  0.00    -0.132 C  
HETATM   31  C   UNL     2      -9.298   9.434  68.957  1.00  0.00    -0.153 C  
HETATM   32  O   UNL     2      -8.261   7.156  68.809  1.00  0.00    -0.120 OA 
HETATM   33  H   UNL     2      -7.631   7.408  69.474  1.00  0.00     0.000 HD 
BRANCH  31  34
HETATM   34  C   UNL     2      -9.454   9.100  70.458  1.00  0.00    -0.291 C  
BRANCH  34  35
HETATM   35  C   UNL     2     -10.816   9.434  71.023  1.00  0.00    -0.406 C  
HETATM   36  C   UNL     2     -11.470   8.843  72.035  1.00  0.00    -0.431 C  
BRANCH  36  37
HETATM   37  C   UNL     2     -11.009   7.687  72.875  1.00  0.00    -0.456 C  
BRANCH  37  38
HETATM   38  C   UNL     2     -11.408   6.325  72.304  1.00  0.00    -0.337 C  
BRANCH  38  39
HETATM   39  C   UNL     2     -10.342   5.658  71.448  1.00  0.00    -0.287 C  
HETATM   40  C   UNL     2     -10.607   5.514  69.949  1.00  0.00    -0.317 C  
HETATM   41  O   UNL     2      -9.983   4.564  69.398  1.00  0.00    -0.204 OA 
HETATM   42  O   UNL     2     -11.354   6.358  69.356  1.00  0.00    -0.394 OA 
ENDBRANCH  38  39
ENDBRANCH  37  38
ENDBRANCH  36  37
ENDBRANCH  34  35
ENDBRANCH  31  34
ENDBRANCH  24  25
ENDBRANCH  17  18
ENDBRANCH  16  17
ENDBRANCH   6  16
TORSDOF 9
ENDMDL
MODEL       14
REMARK 921   NORMALIZED FREE ENERGY PREDICTED BY IDOCK:   -7.22 KCAL/MOL
REMARK 922        TOTAL FREE ENERGY PREDICTED BY IDOCK:  -12.95 KCAL/MOL
REMARK 923 INTER-LIGAND FREE ENERGY PREDICTED BY IDOCK:  -10.77 KCAL/MOL
REMARK 924 INTRA-LIGAND FREE ENERGY PREDICTED BY IDOCK:   -2.18 KCAL/MOL
REMARK 927      BINDING AFFINITY PREDICTED BY RF-SCORE:    0.00 PKD
ROOT
HETATM    1  O   UNL     1     -12.115   6.200  71.816  1.00  0.00    -0.277 OA 
HETATM    2  C   UNL     1     -12.853   7.153  71.058  1.00  0.00    -0.212 C  
HETATM    3  H   UNL     1     -12.407   5.312  71.646  1.00  0.00     0.000 HD 
HETATM    4  C   UNL     2      -8.715  10.323  64.211  1.00  0.00    -0.217 C  
HETATM    5  C   UNL     1     -12.374   8.608  71.336  1.00  0.00    -0.304 C  
HETATM    6  C   UNL     2      -8.508  10.840  65.627  1.00  0.00    -0.163 C  
HETATM    7  C   UNL     1     -10.849   8.703  71.052  1.00  0.00    -0.247 C  
HETATM    8  N   UNL     1     -13.118   9.483  70.376  1.00  0.00    -0.308 NA 
HETATM    9  C   UNL     1     -12.749   9.155  72.704  1.00  0.00    -0.184 C  
HETATM   10  H   UNL     1     -14.399   9.747  73.571  1.00  0.00     0.000 HD 
HETATM   11  H   UNL     1      -9.627   8.365  69.535  1.00  0.00     0.000 HD 
HETATM   12  H2  UNL     1     -14.131   9.373  70.428  1.00  0.00     0.000 HD 
HETATM   13  O   UNL     1     -10.559   8.307  69.708  1.00  0.00    -0.226 OA 
HETATM   14  O   UNL     1     -14.165   9.405  72.716  1.00  0.00    -0.428 OA 
HETATM   15  H1  UNL     1     -12.804  10.436  70.558  1.00  0.00     0.000 HD 
ENDROOT
BRANCH   6  16
HETATM   16  C   UNL     2      -9.810  11.045  66.403  1.00  0.00    -0.252 C  
BRANCH  16  17
HETATM   17  C   UNL     2     -10.038  12.468  66.922  1.00  0.00    -0.232 C  
BRANCH  17  18
HETATM   18  C   UNL     2     -11.230  13.212  66.276  1.00  0.00    -0.328 C  
HETATM   19  C   UNL     2     -10.950  14.156  65.084  1.00  0.00    -0.356 C  
HETATM   20  C   UNL     2     -12.207  14.703  64.393  1.00  0.00    -0.473 C  
HETATM   21  O   UNL     2     -10.242  13.395  64.100  1.00  0.00    -0.662 OA 
HETATM   22  C   UNL     2     -10.076  15.298  65.522  1.00  0.00    -0.408 C  
HETATM   23  H   UNL     2     -10.069  13.975  63.368  1.00  0.00     0.000 HD 
HETATM   24  C   UNL     2     -10.426  16.352  66.278  1.00  0.00    -0.298 C  
BRANCH  24  25
HETATM   25  C   UNL     2      -9.495  17.461  66.716  1.00  0.00    -0.282 C  
HETATM   26  C   UNL     2      -9.851  18.882  66.220  1.00  0.00    -0.365 C  
HETATM   27  C   UNL     2      -8.936  19.748  67.051  1.00  0.00    -0.408 C  
HETATM   28  O   UNL     2     -11.172  19.317  66.527  1.00  0.00    -0.081 OA 
HETATM   29  H   UNL     2     -11.392  20.190  66.223  1.00  0.00     0.000 HD 
HETATM   30  C   UNL     2      -9.034  19.134  68.447  1.00  0.00    -0.349 C  
HETATM   31  C   UNL     2      -9.321  17.621  68.257  1.00  0.00    -0.290 C  
HETATM   32  O   UNL     2      -7.831  19.436  69.136  1.00  0.00    -0.336 OA 
HETATM   33  H   UNL     2      -7.892  19.054  70.004  1.00  0.00     0.000 HD 
BRANCH  31  34
HETATM   34  C   UNL     2      -8.261  16.668  68.853  1.00  0.00    -0.231 C  
BRANCH  34  35
HETATM   35  C   UNL     2      -8.763  15.263  69.092  1.00  0.00    -0.238 C  
HETATM   36  C   UNL     2      -9.912  14.870  69.663  1.00  0.00    -0.038 C  
BRANCH  36  37
HETATM   37  C   UNL     2     -11.007  15.738  70.214  1.00  0.00    -0.368 C  
BRANCH  37  38
HETATM   38  C   UNL     2     -12.393  15.097  70.125  1.00  0.00    -0.385 C  
BRANCH  38  39
HETATM   39  C   UNL     2     -13.031  14.775  71.468  1.00  0.00    -0.410 C  
HETATM   40  C   UNL     2     -13.310  13.309  71.801  1.00  0.00    -0.393 C  
HETATM   41  O   UNL     2     -14.244  13.131  72.632  1.00  0.00    -0.677 OA 
HETATM   42  O   UNL     2     -12.578  12.396  71.295  1.00  0.00    -0.343 OA 
ENDBRANCH  38  39
ENDBRANCH  37  38
ENDBRANCH  36  37
ENDBRANCH  34  35
ENDBRANCH  31  34
ENDBRANCH  24  25
ENDBRANCH  17  18
ENDBRANCH  16  17
ENDBRANCH   6  16
TORSDOF 9
ENDMDL
MODEL       15
REMARK 921   NORMALIZED FREE ENERGY PREDICTED BY IDOCK:   -7.21 KCAL/MOL
REMARK 922        TOTAL FREE ENERGY PREDICTED BY IDOCK:  -12.93 KCAL/MOL
REMARK 923 INTER-LIGAND FREE ENERGY PREDICTED BY IDOCK:  -10.86 KCAL/MOL
REMARK 924 INTRA-LIGAND FREE ENERGY PREDICTED BY IDOCK:   -2.07 KCAL/MOL
REMARK 927      BINDING AFFINITY PREDICTED BY RF-SCORE:    0.00 PKD
ROOT
HETATM    1  O   UNL     1     -10.550   5.685  69.705  1.00  0.00    -0.280 OA 
HETATM    2  C   UNL     1     -11.546   6.689  69.872  1.00  0.00    -0.332 C  
HETATM    3  H   UNL     1     -10.930   4.850  69.457  1.00  0.00     0.000 HD 
HETATM    4  C   UNL     2     -12.137  12.313  63.385  1.00  0.00    -0.615 C  
HETATM    5  C   UNL     1     -10.923   8.057  70.278  1.00  0.00    -0.242 C  
HETATM    6  C   UNL     2     -11.103  12.422  64.495  1.00  0.00    -0.360 C  
HETATM    7  C   UNL     1      -9.863   8.466  69.218  1.00  0.00    -0.186 C  
HETATM    8  N   UNL     1     -12.046   9.046  70.271  1.00  0.00    -0.425 NA 
HETATM    9  C   UNL     1     -10.382   8.119  71.698  1.00  0.00    -0.224 C  
HETATM   10  H   UNL     1     -11.162   8.169  73.491  1.00  0.00     0.000 HD 
HETATM   11  H   UNL     1      -9.802   8.778  67.266  1.00  0.00     0.000 HD 
HETATM   12  H2  UNL     1     -12.834   8.769  70.857  1.00  0.00     0.000 HD 
HETATM   13  O   UNL     1     -10.449   8.528  67.914  1.00  0.00    -0.224 OA 
HETATM   14  O   UNL     1     -11.499   8.130  72.603  1.00  0.00    -0.392 OA 
HETATM   15  H1  UNL     1     -11.638   9.942  70.537  1.00  0.00     0.000 HD 
ENDROOT
BRANCH   6  16
HETATM   16  C   UNL     2     -11.676  12.188  65.894  1.00  0.00    -0.393 C  
BRANCH  16  17
HETATM   17  C   UNL     2     -10.694  12.427  67.046  1.00  0.00    -0.268 C  
BRANCH  17  18
HETATM   18  C   UNL     2      -9.209  12.513  66.625  1.00  0.00    -0.223 C  
HETATM   19  C   UNL     2      -8.148  12.769  67.720  1.00  0.00    -0.168 C  
HETATM   20  C   UNL     2      -6.694  12.654  67.240  1.00  0.00    -0.105 C  
HETATM   21  O   UNL     2      -8.327  11.764  68.724  1.00  0.00    -0.297 OA 
HETATM   22  C   UNL     2      -8.367  14.116  68.350  1.00  0.00    -0.161 C  
HETATM   23  H   UNL     2      -7.675  11.921  69.397  1.00  0.00     0.000 HD 
HETATM   24  C   UNL     2      -8.110  15.321  67.815  1.00  0.00    -0.158 C  
BRANCH  24  25
HETATM   25  C   UNL     2      -8.379  16.650  68.484  1.00  0.00    -0.228 C  
HETATM   26  C   UNL     2      -7.454  17.819  68.071  1.00  0.00    -0.226 C  
HETATM   27  C   UNL     2      -8.161  19.010  68.670  1.00  0.00    -0.397 C  
HETATM   28  O   UNL     2      -7.391  18.076  66.672  1.00  0.00    -0.196 OA 
HETATM   29  H   UNL     2      -6.823  18.793  66.418  1.00  0.00     0.000 HD 
HETATM   30  C   UNL     2      -9.632  18.753  68.348  1.00  0.00    -0.365 C  
HETATM   31  C   UNL     2      -9.821  17.214  68.298  1.00  0.00    -0.288 C  
HETATM   32  O   UNL     2     -10.411  19.424  69.327  1.00  0.00    -0.570 OA 
HETATM   33  H   UNL     2     -11.326  19.263  69.126  1.00  0.00     0.000 HD 
BRANCH  31  34
HETATM   34  C   UNL     2     -10.835  16.641  69.313  1.00  0.00    -0.310 C  
BRANCH  34  35
HETATM   35  C   UNL     2     -11.757  15.592  68.735  1.00  0.00    -0.372 C  
HETATM   36  C   UNL     2     -12.157  14.434  69.283  1.00  0.00    -0.336 C  
BRANCH  36  37
HETATM   37  C   UNL     2     -11.786  13.879  70.629  1.00  0.00    -0.292 C  
BRANCH  37  38
HETATM   38  C   UNL     2     -12.996  13.442  71.457  1.00  0.00    -0.429 C  
BRANCH  38  39
HETATM   39  C   UNL     2     -12.891  13.751  72.943  1.00  0.00    -0.159 C  
HETATM   40  C   UNL     2     -12.930  15.216  73.379  1.00  0.00    -0.518 C  
HETATM   41  O   UNL     2     -12.360  15.447  74.482  1.00  0.00    -0.646 OA 
HETATM   42  O   UNL     2     -13.560  16.069  72.673  1.00  0.00    -0.474 OA 
ENDBRANCH  38  39
ENDBRANCH  37  38
ENDBRANCH  36  37
ENDBRANCH  34  35
ENDBRANCH  31  34
ENDBRANCH  24  25
ENDBRANCH  17  18
ENDBRANCH  16  17
ENDBRANCH   6  16
TORSDOF 9
ENDMDL
MODEL       16
REMARK 921   NORMALIZED FREE ENERGY PREDICTED BY IDOCK:   -7.21 KCAL/MOL
REMARK 922        TOTAL FREE ENERGY PREDICTED BY IDOCK:  -12.93 KCAL/MOL
REMARK 923 INTER-LIGAND FREE ENERGY PREDICTED BY IDOCK:  -10.87 KCAL/MOL
REMARK 924 INTRA-LIGAND FREE ENERGY PREDICTED BY IDOCK:   -2.06 KCAL/MOL
REMARK 927      BINDING AFFINITY PREDICTED BY RF-SCORE:    0.00 PKD
ROOT
HETATM    1  O   UNL     1     -12.397   5.168  73.006  1.00  0.00    -0.444 OA 
HETATM    2  C   UNL     1     -11.314   6.070  72.804  1.00  0.00    -0.242 C  
HETATM    3  H   UNL     1     -12.375   4.781  73.874  1.00  0.00     0.000 HD 
HETATM    4  C   UNL     2     -13.404  14.405  73.273  1.00  0.00    -0.113 C  
HETATM    5  C   UNL     1     -11.349   6.704  71.382  1.00  0.00    -0.289 C  
HETATM    6  C   UNL     2     -13.611  13.559  72.025  1.00  0.00    -0.589 C  
HETATM    7  C   UNL     1     -12.723   7.397  71.170  1.00  0.00    -0.277 C  
HETATM    8  N   UNL     1     -10.260   7.731  71.356  1.00  0.00    -0.182 NA 
HETATM    9  C   UNL     1     -10.992   5.755  70.248  1.00  0.00    -0.276 C  
HETATM   10  H   UNL     1      -9.358   4.895  69.606  1.00  0.00     0.000 HD 
HETATM   11  H   UNL     1     -13.796   8.803  72.054  1.00  0.00     0.000 HD 
HETATM   12  H2  UNL     1      -9.345   7.359  71.611  1.00  0.00     0.000 HD 
HETATM   13  O   UNL     1     -12.957   8.380  72.184  1.00  0.00    -0.339 OA 
HETATM   14  O   UNL     1      -9.581   5.488  70.314  1.00  0.00    -0.160 OA 
HETATM   15  H1  UNL     1     -10.283   8.146  70.425  1.00  0.00     0.000 HD 
ENDROOT
BRANCH   6  16
HETATM   16  C   UNL     2     -12.413  12.673  71.677  1.00  0.00    -0.036 C  
BRANCH  16  17
HETATM   17  C   UNL     2     -11.992  12.702  70.205  1.00  0.00    -0.363 C  
BRANCH  17  18
HETATM   18  C   UNL     2     -11.866  11.312  69.538  1.00  0.00    -0.427 C  
HETATM   19  C   UNL     2     -10.629  11.028  68.655  1.00  0.00    -0.196 C  
HETATM   20  C   UNL     2     -10.497   9.571  68.190  1.00  0.00    -0.268 C  
HETATM   21  O   UNL     2      -9.471  11.310  69.449  1.00  0.00    -0.399 OA 
HETATM   22  C   UNL     2     -10.623  11.943  67.463  1.00  0.00    -0.250 C  
HETATM   23  H   UNL     2      -8.711  11.136  68.906  1.00  0.00     0.000 HD 
HETATM   24  C   UNL     2     -11.415  11.879  66.379  1.00  0.00    -0.371 C  
BRANCH  24  25
HETATM   25  C   UNL     2     -11.386  12.847  65.217  1.00  0.00    -0.333 C  
HETATM   26  C   UNL     2     -12.154  12.409  63.948  1.00  0.00    -0.499 C  
HETATM   27  C   UNL     2     -12.174  13.680  63.134  1.00  0.00     0.107 C  
HETATM   28  O   UNL     2     -13.521  12.066  64.156  1.00  0.00    -0.672 OA 
HETATM   29  H   UNL     2     -13.993  11.796  63.377  1.00  0.00     0.000 HD 
HETATM   30  C   UNL     2     -12.502  14.759  64.164  1.00  0.00    -0.111 C  
HETATM   31  C   UNL     2     -11.928  14.277  65.523  1.00  0.00    -0.386 C  
HETATM   32  O   UNL     2     -11.970  15.985  63.688  1.00  0.00    -1.344 OA 
HETATM   33  H   UNL     2     -12.174  16.657  64.329  1.00  0.00     0.000 HD 
BRANCH  31  34
HETATM   34  C   UNL     2     -10.870  15.206  66.159  1.00  0.00    -0.330 C  
BRANCH  34  35
HETATM   35  C   UNL     2     -11.099  15.481  67.628  1.00  0.00    -0.311 C  
HETATM   36  C   UNL     2     -10.205  15.478  68.629  1.00  0.00    -0.216 C  
BRANCH  36  37
HETATM   37  C   UNL     2      -8.732  15.200  68.544  1.00  0.00    -0.172 C  
BRANCH  37  38
HETATM   38  C   UNL     2      -7.865  16.425  68.841  1.00  0.00    -0.234 C  
BRANCH  38  39
HETATM   39  C   UNL     2      -7.763  17.422  67.696  1.00  0.00    -0.203 C  
HETATM   40  C   UNL     2      -8.682  18.645  67.722  1.00  0.00    -0.279 C  
HETATM   41  O   UNL     2      -8.924  19.140  66.585  1.00  0.00    -0.302 OA 
HETATM   42  O   UNL     2      -9.081  19.112  68.838  1.00  0.00    -0.360 OA 
ENDBRANCH  38  39
ENDBRANCH  37  38
ENDBRANCH  36  37
ENDBRANCH  34  35
ENDBRANCH  31  34
ENDBRANCH  24  25
ENDBRANCH  17  18
ENDBRANCH  16  17
ENDBRANCH   6  16
TORSDOF 9
ENDMDL
MODEL       17
REMARK 921   NORMALIZED FREE ENERGY PREDICTED BY IDOCK:   -7.14 KCAL/MOL
REMARK 922        TOTAL FREE ENERGY PREDICTED BY IDOCK:  -12.83 KCAL/MOL
REMARK 923 INTER-LIGAND FREE ENERGY PREDICTED BY IDOCK:  -10.71 KCAL/MOL
REMARK 924 INTRA-LIGAND FREE ENERGY PREDICTED BY IDOCK:   -2.11 KCAL/MOL
REMARK 927      BINDING AFFINITY PREDICTED BY RF-SCORE:    0.00 PKD
ROOT
HETATM    1  O   UNL     1     -10.630  17.948  69.117  1.00  0.00    -0.408 OA 
HETATM    2  C   UNL     1     -10.026  16.706  69.462  1.00  0.00    -0.091 C  
HETATM    3  H   UNL     1      -9.988  18.645  69.047  1.00  0.00     0.000 HD 
HETATM    4  C   UNL     2      -9.173  11.157  62.940  1.00  0.00    -0.359 C  
HETATM    5  C   UNL     1     -11.078  15.564  69.577  1.00  0.00    -0.286 C  
HETATM    6  C   UNL     2     -10.465  11.337  63.723  1.00  0.00    -0.459 C  
HETATM    7  C   UNL     1     -11.870  15.468  68.244  1.00  0.00    -0.173 C  
HETATM    8  N   UNL     1     -10.302  14.302  69.791  1.00  0.00    -0.392 NA 
HETATM    9  C   UNL     1     -11.988  15.651  70.792  1.00  0.00    -0.398 C  
HETATM   10  H   UNL     1     -11.781  15.382  72.718  1.00  0.00     0.000 HD 
HETATM   11  H   UNL     1     -11.466  15.191  66.328  1.00  0.00     0.000 HD 
HETATM   12  H2  UNL     1      -9.665  14.347  70.586  1.00  0.00     0.000 HD 
HETATM   13  O   UNL     1     -10.982  15.250  67.142  1.00  0.00    -0.324 OA 
HETATM   14  O   UNL     1     -11.212  15.327  71.959  1.00  0.00    -0.419 OA 
HETATM   15  H1  UNL     1     -10.991  13.554  69.866  1.00  0.00     0.000 HD 
ENDROOT
BRANCH   6  16
HETATM   16  C   UNL     2     -10.263  11.398  65.238  1.00  0.00    -0.320 C  
BRANCH  16  17
HETATM   17  C   UNL     2     -10.182  10.038  65.937  1.00  0.00    -0.275 C  
BRANCH  17  18
HETATM   18  C   UNL     2      -8.901   9.812  66.773  1.00  0.00    -0.151 C  
HETATM   19  C   UNL     2      -8.893   8.670  67.814  1.00  0.00    -0.136 C  
HETATM   20  C   UNL     2      -7.525   8.404  68.460  1.00  0.00    -0.094 C  
HETATM   21  O   UNL     2      -9.260   7.469  67.126  1.00  0.00    -0.128 OA 
HETATM   22  C   UNL     2      -9.914   8.936  68.884  1.00  0.00    -0.199 C  
HETATM   23  H   UNL     2      -9.255   6.767  67.766  1.00  0.00     0.000 HD 
HETATM   24  C   UNL     2      -9.844   9.843  69.874  1.00  0.00    -0.285 C  
BRANCH  24  25
HETATM   25  C   UNL     2     -10.918  10.091  70.909  1.00  0.00    -0.337 C  
HETATM   26  C   UNL     2     -12.066  11.035  70.485  1.00  0.00    -0.377 C  
HETATM   27  C   UNL     2     -13.072  10.830  71.591  1.00  0.00    -0.551 C  
HETATM   28  O   UNL     2     -12.739  10.669  69.284  1.00  0.00    -0.689 OA 
HETATM   29  H   UNL     2     -13.445  11.249  69.023  1.00  0.00     0.000 HD 
HETATM   30  C   UNL     2     -13.065   9.317  71.805  1.00  0.00    -0.400 C  
HETATM   31  C   UNL     2     -11.642   8.816  71.442  1.00  0.00    -0.366 C  
HETATM   32  O   UNL     2     -13.466   9.069  73.144  1.00  0.00    -0.948 OA 
HETATM   33  H   UNL     2     -13.461   8.128  73.277  1.00  0.00     0.000 HD 
BRANCH  31  34
HETATM   34  C   UNL     2     -10.877   8.115  72.587  1.00  0.00    -0.429 C  
BRANCH  34  35
HETATM   35  C   UNL     2      -9.373   8.179  72.450  1.00  0.00    -0.308 C  
HETATM   36  C   UNL     2      -8.473   7.199  72.626  1.00  0.00    -0.124 C  
BRANCH  36  37
HETATM   37  C   UNL     2      -8.736   5.770  73.007  1.00  0.00    -0.123 C  
BRANCH  37  38
HETATM   38  C   UNL     2      -8.916   4.845  71.801  1.00  0.00    -0.155 C  
BRANCH  38  39
HETATM   39  C   UNL     2     -10.287   4.917  71.146  1.00  0.00    -0.222 C  
HETATM   40  C   UNL     2     -10.380   5.483  69.728  1.00  0.00    -0.296 C  
HETATM   41  O   UNL     2     -11.505   5.976  69.436  1.00  0.00    -0.372 OA 
HETATM   42  O   UNL     2      -9.386   5.373  68.938  1.00  0.00    -0.119 OA 
ENDBRANCH  38  39
ENDBRANCH  37  38
ENDBRANCH  36  37
ENDBRANCH  34  35
ENDBRANCH  31  34
ENDBRANCH  24  25
ENDBRANCH  17  18
ENDBRANCH  16  17
ENDBRANCH   6  16
TORSDOF 9
ENDMDL
MODEL       18
REMARK 921   NORMALIZED FREE ENERGY PREDICTED BY IDOCK:   -7.14 KCAL/MOL
REMARK 922        TOTAL FREE ENERGY PREDICTED BY IDOCK:  -12.82 KCAL/MOL
REMARK 923 INTER-LIGAND FREE ENERGY PREDICTED BY IDOCK:  -11.27 KCAL/MOL
REMARK 924 INTRA-LIGAND FREE ENERGY PREDICTED BY IDOCK:   -1.56 KCAL/MOL
REMARK 927      BINDING AFFINITY PREDICTED BY RF-SCORE:    0.00 PKD
ROOT
HETATM    1  O   UNL     1     -10.844   6.471  73.727  1.00  0.00    -0.459 OA 
HETATM    2  C   UNL     1     -11.805   6.367  72.681  1.00  0.00    -0.042 C  
HETATM    3  H   UNL     1     -10.874   5.720  74.309  1.00  0.00     0.000 HD 
HETATM    4  C   UNL     2      -8.593   4.117  65.021  1.00  0.00    -0.117 C  
HETATM    5  C   UNL     1     -11.756   7.597  71.729  1.00  0.00    -0.283 C  
HETATM    6  C   UNL     2      -8.564   5.541  65.556  1.00  0.00    -0.150 C  
HETATM    7  C   UNL     1     -10.313   7.751  71.172  1.00  0.00    -0.200 C  
HETATM    8  N   UNL     1     -12.697   7.293  70.605  1.00  0.00    -0.600 NA 
HETATM    9  C   UNL     1     -12.293   8.890  72.323  1.00  0.00    -0.360 C  
HETATM   10  H   UNL     1     -14.058   9.584  72.801  1.00  0.00     0.000 HD 
HETATM   11  H   UNL     1      -9.019   6.649  70.161  1.00  0.00     0.000 HD 
HETATM   12  H2  UNL     1     -13.640   7.059  70.917  1.00  0.00     0.000 HD 
HETATM   13  O   UNL     1      -9.900   6.556  70.502  1.00  0.00    -0.178 OA 
HETATM   14  O   UNL     1     -13.722   8.776  72.429  1.00  0.00    -0.421 OA 
HETATM   15  H1  UNL     1     -12.664   8.099  69.981  1.00  0.00     0.000 HD 
ENDROOT
BRANCH   6  16
HETATM   16  C   UNL     2      -9.886   5.991  66.181  1.00  0.00    -0.032 C  
BRANCH  16  17
HETATM   17  C   UNL     2      -9.938   7.464  66.599  1.00  0.00    -0.261 C  
BRANCH  17  18
HETATM   18  C   UNL     2      -8.585   8.208  66.525  1.00  0.00    -0.146 C  
HETATM   19  C   UNL     2      -8.409   9.500  67.355  1.00  0.00    -0.125 C  
HETATM   20  C   UNL     2      -6.981  10.064  67.365  1.00  0.00    -0.083 C  
HETATM   21  O   UNL     2      -8.729   9.176  68.713  1.00  0.00    -0.129 OA 
HETATM   22  C   UNL     2      -9.367  10.556  66.880  1.00  0.00    -0.181 C  
HETATM   23  H   UNL     2      -8.622   9.969  69.223  1.00  0.00     0.000 HD 
HETATM   24  C   UNL     2      -9.298  11.273  65.746  1.00  0.00    -0.245 C  
BRANCH  24  25
HETATM   25  C   UNL     2     -10.309  12.305  65.301  1.00  0.00    -0.311 C  
HETATM   26  C   UNL     2     -10.689  12.283  63.802  1.00  0.00    -0.449 C  
HETATM   27  C   UNL     2     -11.888  13.198  63.764  1.00  0.00    -0.546 C  
HETATM   28  O   UNL     2     -11.150  11.027  63.313  1.00  0.00    -0.734 OA 
HETATM   29  H   UNL     2     -11.383  11.013  62.392  1.00  0.00     0.000 HD 
HETATM   30  C   UNL     2     -12.694  12.783  64.994  1.00  0.00    -0.380 C  
HETATM   31  C   UNL     2     -11.677  12.268  66.047  1.00  0.00    -0.451 C  
HETATM   32  O   UNL     2     -13.467  13.902  65.401  1.00  0.00    -0.672 OA 
HETATM   33  H   UNL     2     -13.967  13.643  66.165  1.00  0.00     0.000 HD 
BRANCH  31  34
HETATM   34  C   UNL     2     -11.664  13.042  67.384  1.00  0.00    -0.427 C  
BRANCH  34  35
HETATM   35  C   UNL     2     -10.610  14.124  67.457  1.00  0.00    -0.257 C  
HETATM   36  C   UNL     2     -10.650  15.289  68.122  1.00  0.00    -0.254 C  
BRANCH  36  37
HETATM   37  C   UNL     2     -11.765  15.820  68.977  1.00  0.00    -0.405 C  
BRANCH  37  38
HETATM   38  C   UNL     2     -11.775  15.236  70.391  1.00  0.00    -0.345 C  
BRANCH  38  39
HETATM   39  C   UNL     2     -13.139  14.765  70.873  1.00  0.00    -0.418 C  
HETATM   40  C   UNL     2     -13.308  14.452  72.361  1.00  0.00    -0.455 C  
HETATM   41  O   UNL     2     -14.230  13.628  72.619  1.00  0.00    -0.735 OA 
HETATM   42  O   UNL     2     -12.590  15.059  73.220  1.00  0.00    -0.416 OA 
ENDBRANCH  38  39
ENDBRANCH  37  38
ENDBRANCH  36  37
ENDBRANCH  34  35
ENDBRANCH  31  34
ENDBRANCH  24  25
ENDBRANCH  17  18
ENDBRANCH  16  17
ENDBRANCH   6  16
TORSDOF 9
ENDMDL
MODEL       19
REMARK 921   NORMALIZED FREE ENERGY PREDICTED BY IDOCK:   -7.12 KCAL/MOL
REMARK 922        TOTAL FREE ENERGY PREDICTED BY IDOCK:  -12.79 KCAL/MOL
REMARK 923 INTER-LIGAND FREE ENERGY PREDICTED BY IDOCK:  -10.76 KCAL/MOL
REMARK 924 INTRA-LIGAND FREE ENERGY PREDICTED BY IDOCK:   -2.04 KCAL/MOL
REMARK 927      BINDING AFFINITY PREDICTED BY RF-SCORE:    0.00 PKD
ROOT
HETATM    1  O   UNL     1     -11.246   6.250  71.704  1.00  0.00    -0.262 OA 
HETATM    2  C   UNL     1     -11.667   7.196  70.727  1.00  0.00    -0.323 C  
HETATM    3  H   UNL     1     -11.269   5.361  71.367  1.00  0.00     0.000 HD 
HETATM    4  C   UNL     2      -5.306  11.659  67.030  1.00  0.00    -0.116 C  
HETATM    5  C   UNL     1     -11.630   8.651  71.279  1.00  0.00    -0.284 C  
HETATM    6  C   UNL     2      -5.902  12.016  68.383  1.00  0.00    -0.049 C  
HETATM    7  C   UNL     1     -10.199   8.959  71.800  1.00  0.00    -0.344 C  
HETATM    8  N   UNL     1     -11.945   9.545  70.121  1.00  0.00    -0.467 NA 
HETATM    9  C   UNL     1     -12.707   8.976  72.302  1.00  0.00    -0.387 C  
HETATM   10  H   UNL     1     -14.642   9.256  72.257  1.00  0.00     0.000 HD 
HETATM   11  H   UNL     1      -8.357   8.960  71.081  1.00  0.00     0.000 HD 
HETATM   12  H2  UNL     1     -12.822   9.311  69.654  1.00  0.00     0.000 HD 
HETATM   13  O   UNL     1      -9.231   8.771  70.763  1.00  0.00    -0.164 OA 
HETATM   14  O   UNL     1     -13.969   9.053  71.618  1.00  0.00    -0.384 OA 
HETATM   15  H1  UNL     1     -11.921  10.498  70.482  1.00  0.00     0.000 HD 
ENDROOT
BRANCH   6  16
HETATM   16  C   UNL     2      -7.431  11.968  68.414  1.00  0.00    -0.110 C  
BRANCH  16  17
HETATM   17  C   UNL     2      -8.127  12.783  67.320  1.00  0.00    -0.172 C  
BRANCH  17  18
HETATM   18  C   UNL     2      -9.421  12.146  66.761  1.00  0.00    -0.213 C  
HETATM   19  C   UNL     2     -10.575  13.080  66.330  1.00  0.00    -0.284 C  
HETATM   20  C   UNL     2     -11.738  12.374  65.619  1.00  0.00    -0.468 C  
HETATM   21  O   UNL     2     -10.032  14.017  65.393  1.00  0.00    -0.449 OA 
HETATM   22  C   UNL     2     -11.095  13.842  67.516  1.00  0.00    -0.302 C  
HETATM   23  H   UNL     2     -10.740  14.591  65.129  1.00  0.00     0.000 HD 
HETATM   24  C   UNL     2     -11.849  13.372  68.524  1.00  0.00    -0.401 C  
BRANCH  24  25
HETATM   25  C   UNL     2     -12.322  14.178  69.713  1.00  0.00    -0.350 C  
HETATM   26  C   UNL     2     -13.036  13.385  70.832  1.00  0.00    -0.123 C  
HETATM   27  C   UNL     2     -13.100  14.397  71.949  1.00  0.00    -0.433 C  
HETATM   28  O   UNL     2     -12.301  12.283  71.357  1.00  0.00    -0.182 OA 
HETATM   29  H   UNL     2     -12.739  11.795  72.044  1.00  0.00     0.000 HD 
HETATM   30  C   UNL     2     -11.716  15.044  71.925  1.00  0.00    -0.380 C  
HETATM   31  C   UNL     2     -11.215  14.986  70.457  1.00  0.00    -0.286 C  
HETATM   32  O   UNL     2     -11.841  16.350  72.466  1.00  0.00    -0.527 OA 
HETATM   33  H   UNL     2     -10.980  16.752  72.451  1.00  0.00     0.000 HD 
BRANCH  31  34
HETATM   34  C   UNL     2     -10.919  16.355  69.806  1.00  0.00    -0.341 C  
BRANCH  34  35
HETATM   35  C   UNL     2      -9.608  16.407  69.054  1.00  0.00    -0.264 C  
HETATM   36  C   UNL     2      -9.318  17.067  67.922  1.00  0.00    -0.240 C  
BRANCH  36  37
HETATM   37  C   UNL     2     -10.232  17.936  67.106  1.00  0.00    -0.355 C  
BRANCH  37  38
HETATM   38  C   UNL     2     -10.090  19.427  67.418  1.00  0.00    -0.506 C  
BRANCH  38  39
HETATM   39  C   UNL     2      -8.876  20.094  66.789  1.00  0.00    -0.407 C  
HETATM   40  C   UNL     2      -7.687  20.425  67.691  1.00  0.00    -0.277 C  
HETATM   41  O   UNL     2      -6.966  21.376  67.277  1.00  0.00    -0.573 OA 
HETATM   42  O   UNL     2      -7.463  19.717  68.727  1.00  0.00    -0.332 OA 
ENDBRANCH  38  39
ENDBRANCH  37  38
ENDBRANCH  36  37
ENDBRANCH  34  35
ENDBRANCH  31  34
ENDBRANCH  24  25
ENDBRANCH  17  18
ENDBRANCH  16  17
ENDBRANCH   6  16
TORSDOF 9
ENDMDL
MODEL       20
REMARK 921   NORMALIZED FREE ENERGY PREDICTED BY IDOCK:   -7.12 KCAL/MOL
REMARK 922        TOTAL FREE ENERGY PREDICTED BY IDOCK:  -12.79 KCAL/MOL
REMARK 923 INTER-LIGAND FREE ENERGY PREDICTED BY IDOCK:   -9.41 KCAL/MOL
REMARK 924 INTRA-LIGAND FREE ENERGY PREDICTED BY IDOCK:   -3.39 KCAL/MOL
REMARK 927      BINDING AFFINITY PREDICTED BY RF-SCORE:    0.00 PKD
ROOT
HETATM    1  O   UNL     1     -12.385   7.614  72.247  1.00  0.00    -0.440 OA 
HETATM    2  C   UNL     1     -11.507   8.718  72.059  1.00  0.00    -0.371 C  
HETATM    3  H   UNL     1     -13.233   7.890  72.576  1.00  0.00     0.000 HD 
HETATM    4  C   UNL     2     -10.502  11.196  63.879  1.00  0.00    -0.445 C  
HETATM    5  C   UNL     1     -10.119   8.266  71.519  1.00  0.00    -0.208 C  
HETATM    6  C   UNL     2      -9.743  10.033  64.501  1.00  0.00    -0.310 C  
HETATM    7  C   UNL     1     -10.322   7.462  70.205  1.00  0.00    -0.212 C  
HETATM    8  N   UNL     1      -9.356   9.521  71.227  1.00  0.00    -0.328 NA 
HETATM    9  C   UNL     1      -9.249   7.529  72.526  1.00  0.00    -0.147 C  
HETATM   10  H   UNL     1      -8.242   8.019  74.129  1.00  0.00     0.000 HD 
HETATM   11  H   UNL     1     -11.152   7.755  68.434  1.00  0.00     0.000 HD 
HETATM   12  H2  UNL     1      -9.294  10.154  72.024  1.00  0.00     0.000 HD 
HETATM   13  O   UNL     1     -11.027   8.246  69.237  1.00  0.00    -0.110 OA 
HETATM   14  O   UNL     1      -8.786   8.480  73.500  1.00  0.00    -0.314 OA 
HETATM   15  H1  UNL     1      -8.446   9.224  70.873  1.00  0.00     0.000 HD 
ENDROOT
BRANCH   6  16
HETATM   16  C   UNL     2      -9.181  10.338  65.891  1.00  0.00    -0.205 C  
BRANCH  16  17
HETATM   17  C   UNL     2      -8.914  11.820  66.172  1.00  0.00    -0.145 C  
BRANCH  17  18
HETATM   18  C   UNL     2      -7.568  12.115  66.876  1.00  0.00    -0.029 C  
HETATM   19  C   UNL     2      -7.598  12.647  68.327  1.00  0.00    -0.133 C  
HETATM   20  C   UNL     2      -6.222  12.733  69.003  1.00  0.00    -0.095 C  
HETATM   21  O   UNL     2      -8.375  11.724  69.099  1.00  0.00    -0.362 OA 
HETATM   22  C   UNL     2      -8.270  13.990  68.374  1.00  0.00    -0.150 C  
HETATM   23  H   UNL     2      -8.393  12.050  69.990  1.00  0.00     0.000 HD 
HETATM   24  C   UNL     2      -7.777  15.166  67.950  1.00  0.00    -0.145 C  
BRANCH  24  25
HETATM   25  C   UNL     2      -8.511  16.487  67.993  1.00  0.00    -0.186 C  
HETATM   26  C   UNL     2      -7.705  17.696  68.524  1.00  0.00    -0.281 C  
HETATM   27  C   UNL     2      -8.598  18.858  68.163  1.00  0.00    -0.349 C  
HETATM   28  O   UNL     2      -6.470  17.940  67.858  1.00  0.00    -0.178 OA 
HETATM   29  H   UNL     2      -5.975  18.682  68.184  1.00  0.00     0.000 HD 
HETATM   30  C   UNL     2      -9.061  18.525  66.745  1.00  0.00    -0.297 C  
HETATM   31  C   UNL     2      -9.090  16.978  66.631  1.00  0.00    -0.278 C  
HETATM   32  O   UNL     2     -10.310  19.167  66.538  1.00  0.00    -0.379 OA 
HETATM   33  H   UNL     2     -10.598  18.960  65.657  1.00  0.00     0.000 HD 
BRANCH  31  34
HETATM   34  C   UNL     2     -10.470  16.366  66.300  1.00  0.00    -0.298 C  
BRANCH  34  35
HETATM   35  C   UNL     2     -10.441  15.359  65.172  1.00  0.00    -0.439 C  
HETATM   36  C   UNL     2     -11.252  14.310  64.966  1.00  0.00    -0.364 C  
BRANCH  36  37
HETATM   37  C   UNL     2     -12.410  13.865  65.812  1.00  0.00    -0.518 C  
BRANCH  37  38
HETATM   38  C   UNL     2     -12.006  12.920  66.944  1.00  0.00    -0.402 C  
BRANCH  38  39
HETATM   39  C   UNL     2     -11.952  13.565  68.321  1.00  0.00    -0.377 C  
HETATM   40  C   UNL     2     -11.750  12.657  69.535  1.00  0.00    -0.308 C  
HETATM   41  O   UNL     2     -12.199  13.127  70.618  1.00  0.00    -0.361 OA 
HETATM   42  O   UNL     2     -11.114  11.561  69.405  1.00  0.00    -0.247 OA 
ENDBRANCH  38  39
ENDBRANCH  37  38
ENDBRANCH  36  37
ENDBRANCH  34  35
ENDBRANCH  31  34
ENDBRANCH  24  25
ENDBRANCH  17  18
ENDBRANCH  16  17
ENDBRANCH   6  16
TORSDOF 9
ENDMDL
MODEL       21
REMARK 921   NORMALIZED FREE ENERGY PREDICTED BY IDOCK:   -7.09 KCAL/MOL
REMARK 922        TOTAL FREE ENERGY PREDICTED BY IDOCK:  -12.74 KCAL/MOL
REMARK 923 INTER-LIGAND FREE ENERGY PREDICTED BY IDOCK:  -10.82 KCAL/MOL
REMARK 924 INTRA-LIGAND FREE ENERGY PREDICTED BY IDOCK:   -1.92 KCAL/MOL
REMARK 927      BINDING AFFINITY PREDICTED BY RF-SCORE:    0.00 PKD
ROOT
HETATM    1  O   UNL     1     -14.057   8.766  73.252  1.00  0.00    -1.180 OA 
HETATM    2  C   UNL     1     -14.170   9.208  71.903  1.00  0.00    -0.218 C  
HETATM    3  H   UNL     1     -14.818   8.268  73.524  1.00  0.00     0.000 HD 
HETATM    4  C   UNL     2      -9.509   4.729  66.223  1.00  0.00    -0.160 C  
HETATM    5  C   UNL     1     -12.923  10.025  71.457  1.00  0.00    -0.434 C  
HETATM    6  C   UNL     2      -8.934   5.843  67.084  1.00  0.00    -0.113 C  
HETATM    7  C   UNL     1     -11.648   9.165  71.676  1.00  0.00    -0.379 C  
HETATM    8  N   UNL     1     -13.101  10.294  69.995  1.00  0.00    -0.500 NA 
HETATM    9  C   UNL     1     -12.807  11.409  72.077  1.00  0.00    -0.159 C  
HETATM   10  H   UNL     1     -13.746  13.113  71.880  1.00  0.00     0.000 HD 
HETATM   11  H   UNL     1     -10.964   7.402  71.096  1.00  0.00     0.000 HD 
HETATM   12  H2  UNL     1     -13.986  10.750  69.771  1.00  0.00     0.000 HD 
HETATM   13  O   UNL     1     -11.743   7.928  70.962  1.00  0.00    -0.283 OA 
HETATM   14  O   UNL     1     -13.817  12.249  71.493  1.00  0.00     0.353 OA 
HETATM   15  H1  UNL     1     -12.283  10.829  69.703  1.00  0.00     0.000 HD 
ENDROOT
BRANCH   6  16
HETATM   16  C   UNL     2      -9.817   7.091  67.144  1.00  0.00    -0.225 C  
BRANCH  16  17
HETATM   17  C   UNL     2      -9.594   7.984  68.369  1.00  0.00    -0.157 C  
BRANCH  17  18
HETATM   18  C   UNL     2      -8.254   8.756  68.375  1.00  0.00    -0.118 C  
HETATM   19  C   UNL     2      -8.273  10.260  68.731  1.00  0.00    -0.119 C  
HETATM   20  C   UNL     2      -6.885  10.896  68.892  1.00  0.00    -0.076 C  
HETATM   21  O   UNL     2      -8.930  10.386  69.998  1.00  0.00    -0.372 OA 
HETATM   22  C   UNL     2      -9.064  11.026  67.708  1.00  0.00    -0.147 C  
HETATM   23  H   UNL     2      -8.942  11.310  70.216  1.00  0.00     0.000 HD 
HETATM   24  C   UNL     2      -8.700  11.325  66.449  1.00  0.00    -0.180 C  
BRANCH  24  25
HETATM   25  C   UNL     2      -9.550  12.075  65.448  1.00  0.00    -0.148 C  
HETATM   26  C   UNL     2      -9.627  11.465  64.029  1.00  0.00    -0.200 C  
HETATM   27  C   UNL     2     -10.747  12.257  63.402  1.00  0.00    -0.438 C  
HETATM   28  O   UNL     2     -10.044  10.104  63.977  1.00  0.00    -0.456 OA 
HETATM   29  H   UNL     2     -10.091   9.729  63.105  1.00  0.00     0.000 HD 
HETATM   30  C   UNL     2     -11.801  12.324  64.507  1.00  0.00    -0.369 C  
HETATM   31  C   UNL     2     -11.039  12.286  65.859  1.00  0.00    -0.360 C  
HETATM   32  O   UNL     2     -12.581  13.488  64.289  1.00  0.00    -0.629 OA 
HETATM   33  H   UNL     2     -13.236  13.529  64.976  1.00  0.00     0.000 HD 
BRANCH  31  34
HETATM   34  C   UNL     2     -11.252  13.516  66.770  1.00  0.00    -0.327 C  
BRANCH  34  35
HETATM   35  C   UNL     2     -11.952  13.202  68.073  1.00  0.00    -0.345 C  
HETATM   36  C   UNL     2     -11.811  13.802  69.265  1.00  0.00    -0.392 C  
BRANCH  36  37
HETATM   37  C   UNL     2     -10.914  14.955  69.612  1.00  0.00    -0.294 C  
BRANCH  37  38
HETATM   38  C   UNL     2     -11.579  15.988  70.523  1.00  0.00    -0.383 C  
BRANCH  38  39
HETATM   39  C   UNL     2     -11.666  15.582  71.986  1.00  0.00    -0.541 C  
HETATM   40  C   UNL     2     -13.042  15.582  72.653  1.00  0.00    -0.459 C  
HETATM   41  O   UNL     2     -13.014  15.735  73.907  1.00  0.00    -0.525 OA 
HETATM   42  O   UNL     2     -14.085  15.374  71.952  1.00  0.00    -0.490 OA 
ENDBRANCH  38  39
ENDBRANCH  37  38
ENDBRANCH  36  37
ENDBRANCH  34  35
ENDBRANCH  31  34
ENDBRANCH  24  25
ENDBRANCH  17  18
ENDBRANCH  16  17
ENDBRANCH   6  16
TORSDOF 9
ENDMDL
MODEL       22
REMARK 921   NORMALIZED FREE ENERGY PREDICTED BY IDOCK:   -7.07 KCAL/MOL
REMARK 922        TOTAL FREE ENERGY PREDICTED BY IDOCK:  -12.72 KCAL/MOL
REMARK 923 INTER-LIGAND FREE ENERGY PREDICTED BY IDOCK:  -10.54 KCAL/MOL
REMARK 924 INTRA-LIGAND FREE ENERGY PREDICTED BY IDOCK:   -2.18 KCAL/MOL
REMARK 927      BINDING AFFINITY PREDICTED BY RF-SCORE:    0.00 PKD
ROOT
HETATM    1  O   UNL     1     -11.651   6.539  73.089  1.00  0.00    -0.464 OA 
HETATM    2  C   UNL     1     -10.666   7.548  72.887  1.00  0.00    -0.358 C  
HETATM    3  H   UNL     1     -11.636   6.206  73.979  1.00  0.00     0.000 HD 
HETATM    4  C   UNL     2     -13.703  15.598  72.743  1.00  0.00    -0.662 C  
HETATM    5  C   UNL     1     -10.692   8.095  71.430  1.00  0.00    -0.232 C  
HETATM    6  C   UNL     2     -13.742  14.668  71.541  1.00  0.00    -0.495 C  
HETATM    7  C   UNL     1     -12.120   8.612  71.107  1.00  0.00    -0.260 C  
HETATM    8  N   UNL     1      -9.725   9.237  71.396  1.00  0.00    -0.257 NA 
HETATM    9  C   UNL     1     -10.166   7.133  70.375  1.00  0.00    -0.193 C  
HETATM   10  H   UNL     1      -8.412   6.433  69.869  1.00  0.00     0.000 HD 
HETATM   11  H   UNL     1     -13.393   9.931  71.849  1.00  0.00     0.000 HD 
HETATM   12  H2  UNL     1      -8.790   8.988  71.719  1.00  0.00     0.000 HD 
HETATM   13  O   UNL     1     -12.520   9.615  72.046  1.00  0.00    -0.370 OA 
HETATM   14  O   UNL     1      -8.740   7.034  70.528  1.00  0.00    -0.150 OA 
HETATM   15  H1  UNL     1      -9.742   9.596  70.441  1.00  0.00     0.000 HD 
ENDROOT
BRANCH   6  16
HETATM   16  C   UNL     2     -12.435  13.908  71.308  1.00  0.00    -0.440 C  
BRANCH  16  17
HETATM   17  C   UNL     2     -12.144  13.551  69.847  1.00  0.00    -0.408 C  
BRANCH  17  18
HETATM   18  C   UNL     2     -11.572  14.709  68.997  1.00  0.00    -0.328 C  
HETATM   19  C   UNL     2     -11.116  14.406  67.551  1.00  0.00    -0.302 C  
HETATM   20  C   UNL     2     -10.739  15.645  66.726  1.00  0.00    -0.300 C  
HETATM   21  O   UNL     2     -12.221  13.789  66.881  1.00  0.00    -0.410 OA 
HETATM   22  C   UNL     2      -9.967  13.438  67.563  1.00  0.00    -0.230 C  
HETATM   23  H   UNL     2     -11.941  13.602  65.993  1.00  0.00     0.000 HD 
HETATM   24  C   UNL     2      -8.694  13.683  67.916  1.00  0.00    -0.184 C  
BRANCH  24  25
HETATM   25  C   UNL     2      -7.580  12.661  67.938  1.00  0.00    -0.132 C  
HETATM   26  C   UNL     2      -6.386  12.976  68.870  1.00  0.00    -0.093 C  
HETATM   27  C   UNL     2      -5.636  11.667  68.880  1.00  0.00    -0.049 C  
HETATM   28  O   UNL     2      -6.729  13.231  70.229  1.00  0.00    -0.355 OA 
HETATM   29  H   UNL     2      -5.997  13.424  70.801  1.00  0.00     0.000 HD 
HETATM   30  C   UNL     2      -6.742  10.621  69.011  1.00  0.00    -0.066 C  
HETATM   31  C   UNL     2      -8.006  11.214  68.332  1.00  0.00    -0.137 C  
HETATM   32  O   UNL     2      -6.264   9.413  68.440  1.00  0.00    -0.051 OA 
HETATM   33  H   UNL     2      -6.952   8.763  68.521  1.00  0.00     0.000 HD 
BRANCH  31  34
HETATM   34  C   UNL     2      -8.561  10.397  67.143  1.00  0.00    -0.130 C  
BRANCH  34  35
HETATM   35  C   UNL     2      -7.746  10.526  65.876  1.00  0.00    -0.148 C  
HETATM   36  C   UNL     2      -8.162  10.453  64.603  1.00  0.00    -0.137 C  
BRANCH  36  37
HETATM   37  C   UNL     2      -9.561  10.223  64.105  1.00  0.00    -0.376 C  
BRANCH  37  38
HETATM   38  C   UNL     2     -10.077  11.349  63.208  1.00  0.00    -0.424 C  
BRANCH  38  39
HETATM   39  C   UNL     2     -10.644  12.547  63.955  1.00  0.00    -0.472 C  
HETATM   40  C   UNL     2     -12.082  12.970  63.653  1.00  0.00    -0.531 C  
HETATM   41  O   UNL     2     -12.327  14.187  63.884  1.00  0.00    -0.660 OA 
HETATM   42  O   UNL     2     -12.929  12.100  63.267  1.00  0.00    -0.735 OA 
ENDBRANCH  38  39
ENDBRANCH  37  38
ENDBRANCH  36  37
ENDBRANCH  34  35
ENDBRANCH  31  34
ENDBRANCH  24  25
ENDBRANCH  17  18
ENDBRANCH  16  17
ENDBRANCH   6  16
TORSDOF 9
ENDMDL
MODEL       23
REMARK 921   NORMALIZED FREE ENERGY PREDICTED BY IDOCK:   -7.06 KCAL/MOL
REMARK 922        TOTAL FREE ENERGY PREDICTED BY IDOCK:  -12.70 KCAL/MOL
REMARK 923 INTER-LIGAND FREE ENERGY PREDICTED BY IDOCK:  -11.15 KCAL/MOL
REMARK 924 INTRA-LIGAND FREE ENERGY PREDICTED BY IDOCK:   -1.55 KCAL/MOL
REMARK 927      BINDING AFFINITY PREDICTED BY RF-SCORE:    0.00 PKD
ROOT
HETATM    1  O   UNL     1     -13.645   6.709  72.170  1.00  0.00    -0.520 OA 
HETATM    2  C   UNL     1     -12.549   7.612  72.276  1.00  0.00    -0.114 C  
HETATM    3  H   UNL     1     -14.469   7.126  72.391  1.00  0.00     0.000 HD 
HETATM    4  C   UNL     2      -9.575  10.602  64.775  1.00  0.00    -0.334 C  
HETATM    5  C   UNL     1     -11.199   6.928  71.914  1.00  0.00    -0.254 C  
HETATM    6  C   UNL     2      -9.185   9.248  65.350  1.00  0.00    -0.284 C  
HETATM    7  C   UNL     1     -11.306   6.318  70.489  1.00  0.00    -0.361 C  
HETATM    8  N   UNL     1     -10.167   8.012  71.920  1.00  0.00    -0.201 NA 
HETATM    9  C   UNL     1     -10.692   5.927  72.940  1.00  0.00    -0.249 C  
HETATM   10  H   UNL     1      -9.927   6.032  74.737  1.00  0.00     0.000 HD 
HETATM   11  H   UNL     1     -11.718   6.953  68.662  1.00  0.00     0.000 HD 
HETATM   12  H2  UNL     1     -10.134   8.536  72.794  1.00  0.00     0.000 HD 
HETATM   13  O   UNL     1     -11.653   7.325  69.532  1.00  0.00     0.041 OA 
HETATM   14  O   UNL     1     -10.244   6.657  74.096  1.00  0.00    -0.334 OA 
HETATM   15  H1  UNL     1      -9.282   7.564  71.682  1.00  0.00     0.000 HD 
ENDROOT
BRANCH   6  16
HETATM   16  C   UNL     2      -8.845   9.289  66.841  1.00  0.00    -0.141 C  
BRANCH  16  17
HETATM   17  C   UNL     2     -10.046   9.181  67.784  1.00  0.00    -0.253 C  
BRANCH  17  18
HETATM   18  C   UNL     2     -10.143  10.302  68.845  1.00  0.00    -0.216 C  
HETATM   19  C   UNL     2     -11.414  11.181  68.874  1.00  0.00    -0.295 C  
HETATM   20  C   UNL     2     -11.501  12.139  70.070  1.00  0.00    -0.156 C  
HETATM   21  O   UNL     2     -12.536  10.297  68.976  1.00  0.00    -0.523 OA 
HETATM   22  C   UNL     2     -11.536  11.958  67.593  1.00  0.00    -0.382 C  
HETATM   23  H   UNL     2     -13.317  10.836  68.993  1.00  0.00     0.000 HD 
HETATM   24  C   UNL     2     -10.808  13.019  67.208  1.00  0.00    -0.270 C  
BRANCH  24  25
HETATM   25  C   UNL     2     -10.953  13.748  65.891  1.00  0.00    -0.283 C  
HETATM   26  C   UNL     2     -12.147  13.320  65.006  1.00  0.00    -0.408 C  
HETATM   27  C   UNL     2     -12.171  14.406  63.958  1.00  0.00    -0.300 C  
HETATM   28  O   UNL     2     -13.421  13.373  65.641  1.00  0.00    -0.325 OA 
HETATM   29  H   UNL     2     -14.155  13.111  65.097  1.00  0.00     0.000 HD 
HETATM   30  C   UNL     2     -11.945  15.685  64.762  1.00  0.00     0.049 C  
HETATM   31  C   UNL     2     -11.083  15.298  65.993  1.00  0.00    -0.278 C  
HETATM   32  O   UNL     2     -11.359  16.642  63.894  1.00  0.00    -1.558 OA 
HETATM   33  H   UNL     2     -11.219  17.438  64.395  1.00  0.00     0.000 HD 
BRANCH  31  34
HETATM   34  C   UNL     2      -9.720  16.018  66.097  1.00  0.00    -0.353 C  
BRANCH  34  35
HETATM   35  C   UNL     2      -9.496  16.722  67.416  1.00  0.00    -0.236 C  
HETATM   36  C   UNL     2      -9.882  17.953  67.784  1.00  0.00    -0.300 C  
BRANCH  36  37
HETATM   37  C   UNL     2     -10.648  18.957  66.970  1.00  0.00    -0.510 C  
BRANCH  37  38
HETATM   38  C   UNL     2      -9.761  20.040  66.352  1.00  0.00    -0.557 C  
BRANCH  38  39
HETATM   39  C   UNL     2      -8.472  20.314  67.112  1.00  0.00    -0.407 C  
HETATM   40  C   UNL     2      -7.168  19.751  66.546  1.00  0.00    -0.241 C  
HETATM   41  O   UNL     2      -6.263  19.564  67.407  1.00  0.00    -0.190 OA 
HETATM   42  O   UNL     2      -7.050  19.571  65.290  1.00  0.00    -0.405 OA 
ENDBRANCH  38  39
ENDBRANCH  37  38
ENDBRANCH  36  37
ENDBRANCH  34  35
ENDBRANCH  31  34
ENDBRANCH  24  25
ENDBRANCH  17  18
ENDBRANCH  16  17
ENDBRANCH   6  16
TORSDOF 9
ENDMDL
MODEL       24
REMARK 921   NORMALIZED FREE ENERGY PREDICTED BY IDOCK:   -6.96 KCAL/MOL
REMARK 922        TOTAL FREE ENERGY PREDICTED BY IDOCK:  -12.55 KCAL/MOL
REMARK 923 INTER-LIGAND FREE ENERGY PREDICTED BY IDOCK:  -10.77 KCAL/MOL
REMARK 924 INTRA-LIGAND FREE ENERGY PREDICTED BY IDOCK:   -1.78 KCAL/MOL
REMARK 927      BINDING AFFINITY PREDICTED BY RF-SCORE:    0.00 PKD
ROOT
HETATM    1  O   UNL     1     -12.563  14.996  63.828  1.00  0.00    -0.997 OA 
HETATM    2  C   UNL     1     -11.306  14.851  64.481  1.00  0.00    -0.300 C  
HETATM    3  H   UNL     1     -12.518  15.619  63.112  1.00  0.00     0.000 HD 
HETATM    4  C   UNL     2      -6.994   7.674  62.491  1.00  0.00    -0.076 C  
HETATM    5  C   UNL     1     -11.379  13.829  65.653  1.00  0.00    -0.305 C  
HETATM    6  C   UNL     2      -8.110   7.721  63.525  1.00  0.00    -0.054 C  
HETATM    7  C   UNL     1     -11.905  12.471  65.110  1.00  0.00    -0.405 C  
HETATM    8  N   UNL     1      -9.976  13.661  66.148  1.00  0.00    -0.300 NA 
HETATM    9  C   UNL     1     -12.148  14.308  66.874  1.00  0.00    -0.409 C  
HETATM   10  H   UNL     1     -11.843  15.614  68.297  1.00  0.00     0.000 HD 
HETATM   11  H   UNL     1     -11.392  11.162  63.720  1.00  0.00     0.000 HD 
HETATM   12  H2  UNL     1      -9.528  14.541  66.404  1.00  0.00     0.000 HD 
HETATM   13  O   UNL     1     -11.070  11.991  64.052  1.00  0.00    -0.325 OA 
HETATM   14  O   UNL     1     -11.362  15.315  67.534  1.00  0.00    -0.331 OA 
HETATM   15  H1  UNL     1     -10.023  12.991  66.915  1.00  0.00     0.000 HD 
ENDROOT
BRANCH   6  16
HETATM   16  C   UNL     2      -8.016   8.914  64.478  1.00  0.00    -0.135 C  
BRANCH  16  17
HETATM   17  C   UNL     2      -8.958   8.857  65.684  1.00  0.00    -0.249 C  
BRANCH  17  18
HETATM   18  C   UNL     2      -8.686   7.694  66.667  1.00  0.00    -0.150 C  
HETATM   19  C   UNL     2      -9.888   7.041  67.385  1.00  0.00    -0.154 C  
HETATM   20  C   UNL     2      -9.542   5.782  68.194  1.00  0.00    -0.132 C  
HETATM   21  O   UNL     2     -10.814   6.633  66.372  1.00  0.00    -0.493 OA 
HETATM   22  C   UNL     2     -10.568   8.043  68.276  1.00  0.00    -0.155 C  
HETATM   23  H   UNL     2     -11.553   6.232  66.813  1.00  0.00     0.000 HD 
HETATM   24  C   UNL     2     -10.126   8.527  69.449  1.00  0.00    -0.205 C  
BRANCH  24  25
HETATM   25  C   UNL     2     -10.839   9.560  70.292  1.00  0.00    -0.319 C  
HETATM   26  C   UNL     2     -11.234  10.870  69.571  1.00  0.00    -0.277 C  
HETATM   27  C   UNL     2     -12.152  11.521  70.576  1.00  0.00    -0.472 C  
HETATM   28  O   UNL     2     -12.015  10.701  68.392  1.00  0.00    -0.775 OA 
HETATM   29  H   UNL     2     -12.258  11.505  67.949  1.00  0.00     0.000 HD 
HETATM   30  C   UNL     2     -13.020  10.365  71.070  1.00  0.00    -0.399 C  
HETATM   31  C   UNL     2     -12.158   9.078  70.969  1.00  0.00    -0.304 C  
HETATM   32  O   UNL     2     -13.467  10.689  72.377  1.00  0.00    -0.603 OA 
HETATM   33  H   UNL     2     -14.006   9.969  72.684  1.00  0.00     0.000 HD 
BRANCH  31  34
HETATM   34  C   UNL     2     -11.922   8.337  72.304  1.00  0.00    -0.448 C  
BRANCH  34  35
HETATM   35  C   UNL     2     -11.589   6.871  72.142  1.00  0.00    -0.322 C  
HETATM   36  C   UNL     2     -10.895   6.073  72.968  1.00  0.00    -0.290 C  
BRANCH  36  37
HETATM   37  C   UNL     2     -10.266   6.438  74.282  1.00  0.00    -0.362 C  
BRANCH  37  38
HETATM   38  C   UNL     2      -8.783   6.794  74.166  1.00  0.00    -0.180 C  
BRANCH  38  39
HETATM   39  C   UNL     2      -8.504   8.163  73.565  1.00  0.00    -0.310 C  
HETATM   40  C   UNL     2      -7.729   8.228  72.248  1.00  0.00    -0.126 C  
HETATM   41  O   UNL     2      -7.108   9.312  72.061  1.00  0.00    -0.317 OA 
HETATM   42  O   UNL     2      -7.801   7.259  71.424  1.00  0.00    -0.094 OA 
ENDBRANCH  38  39
ENDBRANCH  37  38
ENDBRANCH  36  37
ENDBRANCH  34  35
ENDBRANCH  31  34
ENDBRANCH  24  25
ENDBRANCH  17  18
ENDBRANCH  16  17
ENDBRANCH   6  16
TORSDOF 9
ENDMDL
MODEL       25
REMARK 921   NORMALIZED FREE ENERGY PREDICTED BY IDOCK:   -6.92 KCAL/MOL
REMARK 922        TOTAL FREE ENERGY PREDICTED BY IDOCK:  -12.49 KCAL/MOL
REMARK 923 INTER-LIGAND FREE ENERGY PREDICTED BY IDOCK:   -9.79 KCAL/MOL
REMARK 924 INTRA-LIGAND FREE ENERGY PREDICTED BY IDOCK:   -2.70 KCAL/MOL
REMARK 927      BINDING AFFINITY PREDICTED BY RF-SCORE:    0.00 PKD
ROOT
HETATM    1  O   UNL     1     -10.081   7.265  69.993  1.00  0.00    -0.186 OA 
HETATM    2  C   UNL     1      -9.083   8.049  69.345  1.00  0.00    -0.148 C  
HETATM    3  H   UNL     1     -10.153   7.479  70.916  1.00  0.00     0.000 HD 
HETATM    4  C   UNL     2     -12.110  14.498  64.518  1.00  0.00    -0.501 C  
HETATM    5  C   UNL     1      -8.966   7.699  67.833  1.00  0.00    -0.128 C  
HETATM    6  C   UNL     2     -12.028  13.058  64.035  1.00  0.00    -0.523 C  
HETATM    7  C   UNL     1     -10.358   7.871  67.163  1.00  0.00    -0.328 C  
HETATM    8  N   UNL     1      -8.004   8.686  67.250  1.00  0.00    -0.101 NA 
HETATM    9  C   UNL     1      -8.337   6.347  67.535  1.00  0.00    -0.117 C  
HETATM   10  H   UNL     1      -6.540   5.585  67.645  1.00  0.00     0.000 HD 
HETATM   11  H   UNL     1     -11.700   9.306  66.944  1.00  0.00     0.000 HD 
HETATM   12  H2  UNL     1      -7.104   8.710  67.732  1.00  0.00     0.000 HD 
HETATM   13  O   UNL     1     -10.850   9.201  67.353  1.00  0.00    -0.243 OA 
HETATM   14  O   UNL     1      -6.933   6.429  67.832  1.00  0.00    -0.071 OA 
HETATM   15  H1  UNL     1      -7.927   8.457  66.259  1.00  0.00     0.000 HD 
ENDROOT
BRANCH   6  16
HETATM   16  C   UNL     2     -10.702  12.371  64.368  1.00  0.00    -0.371 C  
BRANCH  16  17
HETATM   17  C   UNL     2     -10.461  12.115  65.859  1.00  0.00    -0.288 C  
BRANCH  17  18
HETATM   18  C   UNL     2      -8.973  12.069  66.278  1.00  0.00    -0.129 C  
HETATM   19  C   UNL     2      -8.605  12.450  67.730  1.00  0.00    -0.172 C  
HETATM   20  C   UNL     2      -7.138  12.198  68.104  1.00  0.00    -0.088 C  
HETATM   21  O   UNL     2      -9.395  11.625  68.595  1.00  0.00    -0.276 OA 
HETATM   22  C   UNL     2      -8.955  13.887  67.994  1.00  0.00    -0.184 C  
HETATM   23  H   UNL     2      -9.169  11.859  69.487  1.00  0.00     0.000 HD 
HETATM   24  C   UNL     2      -8.317  14.980  67.543  1.00  0.00    -0.192 C  
BRANCH  24  25
HETATM   25  C   UNL     2      -8.730  16.409  67.816  1.00  0.00    -0.182 C  
HETATM   26  C   UNL     2      -7.813  17.506  67.229  1.00  0.00    -0.203 C  
HETATM   27  C   UNL     2      -8.644  18.752  67.418  1.00  0.00    -0.289 C  
HETATM   28  O   UNL     2      -7.578  17.413  65.827  1.00  0.00    -0.484 OA 
HETATM   29  H   UNL     2      -7.015  18.087  65.465  1.00  0.00     0.000 HD 
HETATM   30  C   UNL     2     -10.048  18.311  67.005  1.00  0.00    -0.360 C  
HETATM   31  C   UNL     2     -10.159  16.797  67.327  1.00  0.00    -0.281 C  
HETATM   32  O   UNL     2     -10.977  19.141  67.684  1.00  0.00    -0.419 OA 
HETATM   33  H   UNL     2     -11.850  18.867  67.427  1.00  0.00     0.000 HD 
BRANCH  31  34
HETATM   34  C   UNL     2     -11.271  16.417  68.332  1.00  0.00    -0.324 C  
BRANCH  34  35
HETATM   35  C   UNL     2     -10.799  16.327  69.765  1.00  0.00    -0.356 C  
HETATM   36  C   UNL     2     -11.463  15.870  70.838  1.00  0.00    -0.444 C  
BRANCH  36  37
HETATM   37  C   UNL     2     -12.861  15.323  70.888  1.00  0.00    -0.511 C  
BRANCH  37  38
HETATM   38  C   UNL     2     -12.932  13.890  71.420  1.00  0.00    -0.430 C  
BRANCH  38  39
HETATM   39  C   UNL     2     -12.285  12.847  70.522  1.00  0.00    -0.395 C  
HETATM   40  C   UNL     2     -12.251  11.398  71.009  1.00  0.00    -0.285 C  
HETATM   41  O   UNL     2     -11.317  10.704  70.518  1.00  0.00    -0.314 OA 
HETATM   42  O   UNL     2     -13.160  10.974  71.796  1.00  0.00    -0.469 OA 
ENDBRANCH  38  39
ENDBRANCH  37  38
ENDBRANCH  36  37
ENDBRANCH  34  35
ENDBRANCH  31  34
ENDBRANCH  24  25
ENDBRANCH  17  18
ENDBRANCH  16  17
ENDBRANCH   6  16
TORSDOF 9
ENDMDL
MODEL       26
REMARK 921   NORMALIZED FREE ENERGY PREDICTED BY IDOCK:   -6.92 KCAL/MOL
REMARK 922        TOTAL FREE ENERGY PREDICTED BY IDOCK:  -12.48 KCAL/MOL
REMARK 923 INTER-LIGAND FREE ENERGY PREDICTED BY IDOCK:  -10.53 KCAL/MOL
REMARK 924 INTRA-LIGAND FREE ENERGY PREDICTED BY IDOCK:   -1.95 KCAL/MOL
REMARK 927      BINDING AFFINITY PREDICTED BY RF-SCORE:    0.00 PKD
ROOT
HETATM    1  O   UNL     1      -5.494  10.597  69.788  1.00  0.00    -0.038 OA 
HETATM    2  C   UNL     1      -5.155  11.326  68.613  1.00  0.00    -0.040 C  
HETATM    3  H   UNL     1      -4.729  10.415  70.322  1.00  0.00     0.000 HD 
HETATM    4  C   UNL     2      -7.084  19.709  68.872  1.00  0.00    -0.388 C  
HETATM    5  C   UNL     1      -6.408  11.625  67.738  1.00  0.00    -0.067 C  
HETATM    6  C   UNL     2      -8.098  18.627  68.533  1.00  0.00    -0.370 C  
HETATM    7  C   UNL     1      -7.461  12.376  68.599  1.00  0.00    -0.095 C  
HETATM    8  N   UNL     1      -5.940  12.514  66.629  1.00  0.00    -0.389 NA 
HETATM    9  C   UNL     1      -6.993  10.417  67.023  1.00  0.00    -0.090 C  
HETATM   10  H   UNL     1      -6.460   9.287  65.518  1.00  0.00     0.000 HD 
HETATM   11  H   UNL     1      -7.549  14.038  69.667  1.00  0.00     0.000 HD 
HETATM   12  H2  UNL     1      -5.159  12.127  66.099  1.00  0.00     0.000 HD 
HETATM   13  O   UNL     1      -6.906  13.579  69.141  1.00  0.00    -0.108 OA 
HETATM   14  O   UNL     1      -6.094  10.042  65.965  1.00  0.00    -0.067 OA 
HETATM   15  H1  UNL     1      -6.761  12.710  66.056  1.00  0.00     0.000 HD 
ENDROOT
BRANCH   6  16
HETATM   16  C   UNL     2      -7.574  17.579  67.549  1.00  0.00    -0.209 C  
BRANCH  16  17
HETATM   17  C   UNL     2      -8.438  16.321  67.421  1.00  0.00    -0.190 C  
BRANCH  17  18
HETATM   18  C   UNL     2      -9.836  16.423  68.074  1.00  0.00    -0.238 C  
HETATM   19  C   UNL     2     -10.449  15.152  68.704  1.00  0.00    -0.234 C  
HETATM   20  C   UNL     2     -11.748  15.390  69.487  1.00  0.00    -0.364 C  
HETATM   21  O   UNL     2      -9.494  14.644  69.643  1.00  0.00    -0.407 OA 
HETATM   22  C   UNL     2     -10.679  14.108  67.648  1.00  0.00    -0.260 C  
HETATM   23  H   UNL     2      -9.870  13.863  70.030  1.00  0.00     0.000 HD 
HETATM   24  C   UNL     2     -11.631  14.100  66.699  1.00  0.00    -0.399 C  
BRANCH  24  25
HETATM   25  C   UNL     2     -11.799  13.036  65.638  1.00  0.00    -0.445 C  
HETATM   26  C   UNL     2     -12.687  13.414  64.431  1.00  0.00    -0.088 C  
HETATM   27  C   UNL     2     -12.405  12.290  63.464  1.00  0.00    -0.670 C  
HETATM   28  O   UNL     2     -12.310  14.607  63.751  1.00  0.00    -1.030 OA 
HETATM   29  H   UNL     2     -12.855  14.840  63.009  1.00  0.00     0.000 HD 
HETATM   30  C   UNL     2     -10.891  12.109  63.558  1.00  0.00    -0.458 C  
HETATM   31  C   UNL     2     -10.477  12.514  64.997  1.00  0.00    -0.323 C  
HETATM   32  O   UNL     2     -10.595  10.767  63.202  1.00  0.00    -0.673 OA 
HETATM   33  H   UNL     2      -9.654  10.654  63.261  1.00  0.00     0.000 HD 
BRANCH  31  34
HETATM   34  C   UNL     2      -9.795  11.402  65.826  1.00  0.00    -0.270 C  
BRANCH  34  35
HETATM   35  C   UNL     2     -10.755  10.377  66.385  1.00  0.00    -0.134 C  
HETATM   36  C   UNL     2     -10.981  10.054  67.668  1.00  0.00    -0.297 C  
BRANCH  36  37
HETATM   37  C   UNL     2     -10.332  10.638  68.890  1.00  0.00    -0.225 C  
BRANCH  37  38
HETATM   38  C   UNL     2     -10.627   9.850  70.168  1.00  0.00    -0.350 C  
BRANCH  38  39
HETATM   39  C   UNL     2     -11.906  10.257  70.882  1.00  0.00    -0.473 C  
HETATM   40  C   UNL     2     -12.551   9.251  71.836  1.00  0.00    -0.390 C  
HETATM   41  O   UNL     2     -13.793   9.407  71.998  1.00  0.00    -0.386 OA 
HETATM   42  O   UNL     2     -11.823   8.393  72.435  1.00  0.00    -0.372 OA 
ENDBRANCH  38  39
ENDBRANCH  37  38
ENDBRANCH  36  37
ENDBRANCH  34  35
ENDBRANCH  31  34
ENDBRANCH  24  25
ENDBRANCH  17  18
ENDBRANCH  16  17
ENDBRANCH   6  16
TORSDOF 9
ENDMDL
MODEL       27
REMARK 921   NORMALIZED FREE ENERGY PREDICTED BY IDOCK:   -6.91 KCAL/MOL
REMARK 922        TOTAL FREE ENERGY PREDICTED BY IDOCK:  -12.47 KCAL/MOL
REMARK 923 INTER-LIGAND FREE ENERGY PREDICTED BY IDOCK:  -10.30 KCAL/MOL
REMARK 924 INTRA-LIGAND FREE ENERGY PREDICTED BY IDOCK:   -2.18 KCAL/MOL
REMARK 927      BINDING AFFINITY PREDICTED BY RF-SCORE:    0.00 PKD
ROOT
HETATM    1  O   UNL     1     -12.480  15.366  68.105  1.00  0.00    -0.279 OA 
HETATM    2  C   UNL     1     -11.754  14.674  67.094  1.00  0.00    -0.373 C  
HETATM    3  H   UNL     1     -13.342  14.990  68.240  1.00  0.00     0.000 HD 
HETATM    4  C   UNL     2      -5.652   9.355  70.014  1.00  0.00    -0.035 C  
HETATM    5  C   UNL     1     -10.342  15.290  66.872  1.00  0.00    -0.278 C  
HETATM    6  C   UNL     2      -5.451  10.855  69.858  1.00  0.00    -0.050 C  
HETATM    7  C   UNL     1      -9.576  15.303  68.224  1.00  0.00    -0.206 C  
HETATM    8  N   UNL     1      -9.640  14.388  65.907  1.00  0.00    -0.481 NA 
HETATM    9  C   UNL     1     -10.336  16.646  66.185  1.00  0.00    -0.330 C  
HETATM   10  H   UNL     1     -10.685  17.299  64.374  1.00  0.00     0.000 HD 
HETATM   11  H   UNL     1      -9.020  13.991  69.595  1.00  0.00     0.000 HD 
HETATM   12  H2  UNL     1     -10.157  14.238  65.040  1.00  0.00     0.000 HD 
HETATM   13  O   UNL     1      -9.489  13.983  68.769  1.00  0.00    -0.175 OA 
HETATM   14  O   UNL     1     -10.689  16.452  64.804  1.00  0.00    -0.700 OA 
HETATM   15  H1  UNL     1      -8.714  14.791  65.762  1.00  0.00     0.000 HD 
ENDROOT
BRANCH   6  16
HETATM   16  C   UNL     2      -5.979  11.412  68.535  1.00  0.00    -0.045 C  
BRANCH  16  17
HETATM   17  C   UNL     2      -7.494  11.302  68.343  1.00  0.00    -0.108 C  
BRANCH  17  18
HETATM   18  C   UNL     2      -7.937  10.386  67.179  1.00  0.00    -0.115 C  
HETATM   19  C   UNL     2      -9.444  10.292  66.849  1.00  0.00    -0.169 C  
HETATM   20  C   UNL     2      -9.770   9.509  65.569  1.00  0.00    -0.344 C  
HETATM   21  O   UNL     2      -9.914  11.628  66.641  1.00  0.00    -0.198 OA 
HETATM   22  C   UNL     2     -10.194   9.699  68.009  1.00  0.00    -0.235 C  
HETATM   23  H   UNL     2     -10.840  11.571  66.438  1.00  0.00     0.000 HD 
HETATM   24  C   UNL     2     -10.199   8.416  68.410  1.00  0.00    -0.239 C  
BRANCH  24  25
HETATM   25  C   UNL     2     -10.950   7.878  69.606  1.00  0.00    -0.114 C  
HETATM   26  C   UNL     2     -10.984   6.338  69.751  1.00  0.00    -0.378 C  
HETATM   27  C   UNL     2     -11.527   6.162  71.148  1.00  0.00    -0.314 C  
HETATM   28  O   UNL     2      -9.709   5.702  69.753  1.00  0.00    -0.151 OA 
HETATM   29  H   UNL     2      -9.730   4.757  69.842  1.00  0.00     0.000 HD 
HETATM   30  C   UNL     2     -10.773   7.215  71.960  1.00  0.00    -0.214 C  
HETATM   31  C   UNL     2     -10.452   8.386  70.994  1.00  0.00    -0.251 C  
HETATM   32  O   UNL     2     -11.582   7.559  73.075  1.00  0.00    -0.586 OA 
HETATM   33  H   UNL     2     -11.113   8.214  73.579  1.00  0.00     0.000 HD 
BRANCH  31  34
HETATM   34  C   UNL     2     -11.051   9.753  71.393  1.00  0.00    -0.317 C  
BRANCH  34  35
HETATM   35  C   UNL     2     -12.436  10.002  70.840  1.00  0.00    -0.431 C  
HETATM   36  C   UNL     2     -13.276  11.013  71.110  1.00  0.00    -0.176 C  
BRANCH  36  37
HETATM   37  C   UNL     2     -13.051  12.170  72.040  1.00  0.00    -0.462 C  
BRANCH  37  38
HETATM   38  C   UNL     2     -13.182  13.532  71.355  1.00  0.00    -0.348 C  
BRANCH  38  39
HETATM   39  C   UNL     2     -13.811  14.617  72.217  1.00  0.00    -0.583 C  
HETATM   40  C   UNL     2     -12.931  15.789  72.655  1.00  0.00    -0.478 C  
HETATM   41  O   UNL     2     -13.310  16.356  73.718  1.00  0.00    -0.655 OA 
HETATM   42  O   UNL     2     -11.951  16.150  71.926  1.00  0.00    -0.475 OA 
ENDBRANCH  38  39
ENDBRANCH  37  38
ENDBRANCH  36  37
ENDBRANCH  34  35
ENDBRANCH  31  34
ENDBRANCH  24  25
ENDBRANCH  17  18
ENDBRANCH  16  17
ENDBRANCH   6  16
TORSDOF 9
ENDMDL
MODEL       28
REMARK 921   NORMALIZED FREE ENERGY PREDICTED BY IDOCK:   -6.90 KCAL/MOL
REMARK 922        TOTAL FREE ENERGY PREDICTED BY IDOCK:  -12.46 KCAL/MOL
REMARK 923 INTER-LIGAND FREE ENERGY PREDICTED BY IDOCK:  -10.94 KCAL/MOL
REMARK 924 INTRA-LIGAND FREE ENERGY PREDICTED BY IDOCK:   -1.52 KCAL/MOL
REMARK 927      BINDING AFFINITY PREDICTED BY RF-SCORE:    0.00 PKD
ROOT
HETATM    1  O   UNL     1     -13.973   8.841  73.238  1.00  0.00    -1.160 OA 
HETATM    2  C   UNL     1     -14.144   9.289  71.897  1.00  0.00    -0.223 C  
HETATM    3  H   UNL     1     -14.758   8.422  73.572  1.00  0.00     0.000 HD 
HETATM    4  C   UNL     2     -10.412   4.351  65.920  1.00  0.00    -0.179 C  
HETATM    5  C   UNL     1     -12.858   9.974  71.349  1.00  0.00    -0.417 C  
HETATM    6  C   UNL     2      -9.662   5.402  66.724  1.00  0.00    -0.170 C  
HETATM    7  C   UNL     1     -11.664   8.989  71.479  1.00  0.00    -0.345 C  
HETATM    8  N   UNL     1     -13.120  10.258  69.903  1.00  0.00    -0.464 NA 
HETATM    9  C   UNL     1     -12.556  11.340  71.946  1.00  0.00    -0.039 C  
HETATM   10  H   UNL     1     -13.329  13.131  71.806  1.00  0.00     0.000 HD 
HETATM   11  H   UNL     1     -11.209   7.166  70.864  1.00  0.00     0.000 HD 
HETATM   12  H2  UNL     1     -13.969  10.801  69.743  1.00  0.00     0.000 HD 
HETATM   13  O   UNL     1     -11.938   7.768  70.786  1.00  0.00    -0.256 OA 
HETATM   14  O   UNL     1     -13.517  12.278  71.433  1.00  0.00    -0.064 OA 
HETATM   15  H1  UNL     1     -12.278  10.707  69.544  1.00  0.00     0.000 HD 
ENDROOT
BRANCH   6  16
HETATM   16  C   UNL     2     -10.406   6.734  66.840  1.00  0.00    -0.324 C  
BRANCH  16  17
HETATM   17  C   UNL     2      -9.529   7.939  67.192  1.00  0.00    -0.203 C  
BRANCH  17  18
HETATM   18  C   UNL     2      -8.421   8.258  66.162  1.00  0.00    -0.141 C  
HETATM   19  C   UNL     2      -7.697   9.621  66.258  1.00  0.00    -0.101 C  
HETATM   20  C   UNL     2      -6.494   9.773  65.317  1.00  0.00    -0.089 C  
HETATM   21  O   UNL     2      -7.190   9.736  67.592  1.00  0.00    -0.087 OA 
HETATM   22  C   UNL     2      -8.669  10.742  66.020  1.00  0.00    -0.190 C  
HETATM   23  H   UNL     2      -6.746  10.573  67.651  1.00  0.00     0.000 HD 
HETATM   24  C   UNL     2      -9.220  11.114  64.853  1.00  0.00    -0.175 C  
BRANCH  24  25
HETATM   25  C   UNL     2     -10.220  12.235  64.675  1.00  0.00    -0.311 C  
HETATM   26  C   UNL     2     -10.921  12.308  63.299  1.00  0.00    -0.311 C  
HETATM   27  C   UNL     2     -12.023  13.307  63.556  1.00  0.00    -0.537 C  
HETATM   28  O   UNL     2     -11.576  11.112  62.888  1.00  0.00    -0.784 OA 
HETATM   29  H   UNL     2     -12.007  11.157  62.042  1.00  0.00     0.000 HD 
HETATM   30  C   UNL     2     -12.569  12.893  64.922  1.00  0.00    -0.458 C  
HETATM   31  C   UNL     2     -11.389  12.259  65.706  1.00  0.00    -0.400 C  
HETATM   32  O   UNL     2     -13.142  14.043  65.523  1.00  0.00    -0.713 OA 
HETATM   33  H   UNL     2     -13.481  13.786  66.373  1.00  0.00     0.000 HD 
BRANCH  31  34
HETATM   34  C   UNL     2     -11.020  12.968  67.029  1.00  0.00    -0.289 C  
BRANCH  34  35
HETATM   35  C   UNL     2      -9.776  13.822  66.941  1.00  0.00    -0.265 C  
HETATM   36  C   UNL     2      -9.679  15.161  66.913  1.00  0.00    -0.248 C  
BRANCH  36  37
HETATM   37  C   UNL     2     -10.797  16.163  66.965  1.00  0.00    -0.194 C  
BRANCH  37  38
HETATM   38  C   UNL     2     -10.894  16.892  68.307  1.00  0.00    -0.357 C  
BRANCH  38  39
HETATM   39  C   UNL     2      -9.750  17.853  68.591  1.00  0.00    -0.355 C  
HETATM   40  C   UNL     2      -9.693  19.160  67.799  1.00  0.00    -0.321 C  
HETATM   41  O   UNL     2      -8.536  19.655  67.692  1.00  0.00    -0.303 OA 
HETATM   42  O   UNL     2     -10.771  19.685  67.367  1.00  0.00    -0.463 OA 
ENDBRANCH  38  39
ENDBRANCH  37  38
ENDBRANCH  36  37
ENDBRANCH  34  35
ENDBRANCH  31  34
ENDBRANCH  24  25
ENDBRANCH  17  18
ENDBRANCH  16  17
ENDBRANCH   6  16
TORSDOF 9
ENDMDL
MODEL       29
REMARK 921   NORMALIZED FREE ENERGY PREDICTED BY IDOCK:   -6.90 KCAL/MOL
REMARK 922        TOTAL FREE ENERGY PREDICTED BY IDOCK:  -12.46 KCAL/MOL
REMARK 923 INTER-LIGAND FREE ENERGY PREDICTED BY IDOCK:  -10.24 KCAL/MOL
REMARK 924 INTRA-LIGAND FREE ENERGY PREDICTED BY IDOCK:   -2.22 KCAL/MOL
REMARK 927      BINDING AFFINITY PREDICTED BY RF-SCORE:    0.00 PKD
ROOT
HETATM    1  O   UNL     1     -13.557   6.604  71.759  1.00  0.00    -0.316 OA 
HETATM    2  C   UNL     1     -12.433   7.477  71.709  1.00  0.00    -0.330 C  
HETATM    3  H   UNL     1     -14.375   7.080  71.681  1.00  0.00     0.000 HD 
HETATM    4  C   UNL     2      -8.201   7.509  64.216  1.00  0.00     0.002 C  
HETATM    5  C   UNL     1     -11.091   6.698  71.838  1.00  0.00    -0.253 C  
HETATM    6  C   UNL     2      -7.989   6.455  65.293  1.00  0.00    -0.114 C  
HETATM    7  C   UNL     1     -11.027   5.612  70.728  1.00  0.00    -0.187 C  
HETATM    8  N   UNL     1     -10.003   7.702  71.620  1.00  0.00    -0.175 NA 
HETATM    9  C   UNL     1     -10.806   6.136  73.222  1.00  0.00    -0.244 C  
HETATM   10  H   UNL     1     -10.308   6.882  74.960  1.00  0.00     0.000 HD 
HETATM   11  H   UNL     1     -11.124   5.541  68.755  1.00  0.00     0.000 HD 
HETATM   12  H2  UNL     1     -10.064   8.509  72.242  1.00  0.00     0.000 HD 
HETATM   13  O   UNL     1     -11.163   6.204  69.432  1.00  0.00    -0.391 OA 
HETATM   14  O   UNL     1     -10.486   7.232  74.095  1.00  0.00    -0.255 OA 
HETATM   15  H1  UNL     1      -9.124   7.191  71.704  1.00  0.00     0.000 HD 
ENDROOT
BRANCH   6  16
HETATM   16  C   UNL     2      -7.869   7.033  66.704  1.00  0.00    -0.106 C  
BRANCH  16  17
HETATM   17  C   UNL     2      -9.170   7.589  67.290  1.00  0.00    -0.152 C  
BRANCH  17  18
HETATM   18  C   UNL     2      -8.985   8.744  68.302  1.00  0.00    -0.141 C  
HETATM   19  C   UNL     2     -10.171   9.706  68.546  1.00  0.00    -0.193 C  
HETATM   20  C   UNL     2      -9.960  10.702  69.695  1.00  0.00    -0.090 C  
HETATM   21  O   UNL     2     -11.299   8.900  68.906  1.00  0.00    -0.351 OA 
HETATM   22  C   UNL     2     -10.502  10.452  67.284  1.00  0.00    -0.304 C  
HETATM   23  H   UNL     2     -12.028   9.490  69.055  1.00  0.00     0.000 HD 
HETATM   24  C   UNL     2      -9.805  11.451  66.718  1.00  0.00    -0.232 C  
BRANCH  24  25
HETATM   25  C   UNL     2     -10.169  12.149  65.427  1.00  0.00    -0.299 C  
HETATM   26  C   UNL     2      -9.881  11.365  64.126  1.00  0.00    -0.268 C  
HETATM   27  C   UNL     2     -10.611  12.186  63.091  1.00  0.00    -0.221 C  
HETATM   28  O   UNL     2     -10.460  10.065  64.061  1.00  0.00    -0.269 OA 
HETATM   29  H   UNL     2     -10.283   9.583  63.262  1.00  0.00     0.000 HD 
HETATM   30  C   UNL     2     -11.938  12.520  63.770  1.00  0.00    -0.517 C  
HETATM   31  C   UNL     2     -11.662  12.580  65.296  1.00  0.00    -0.430 C  
HETATM   32  O   UNL     2     -12.424  13.724  63.199  1.00  0.00    -1.089 OA 
HETATM   33  H   UNL     2     -13.249  13.931  63.621  1.00  0.00     0.000 HD 
BRANCH  31  34
HETATM   34  C   UNL     2     -11.965  13.938  65.968  1.00  0.00    -0.436 C  
BRANCH  34  35
HETATM   35  C   UNL     2     -12.279  13.837  67.444  1.00  0.00    -0.290 C  
HETATM   36  C   UNL     2     -11.596  14.346  68.481  1.00  0.00    -0.347 C  
BRANCH  36  37
HETATM   37  C   UNL     2     -10.334  15.158  68.440  1.00  0.00    -0.229 C  
BRANCH  37  38
HETATM   38  C   UNL     2     -10.564  16.650  68.688  1.00  0.00    -0.337 C  
BRANCH  38  39
HETATM   39  C   UNL     2     -10.442  17.525  67.450  1.00  0.00    -0.342 C  
HETATM   40  C   UNL     2     -10.519  19.042  67.630  1.00  0.00    -0.440 C  
HETATM   41  O   UNL     2     -10.909  19.669  66.606  1.00  0.00    -0.462 OA 
HETATM   42  O   UNL     2     -10.141  19.568  68.727  1.00  0.00    -0.436 OA 
ENDBRANCH  38  39
ENDBRANCH  37  38
ENDBRANCH  36  37
ENDBRANCH  34  35
ENDBRANCH  31  34
ENDBRANCH  24  25
ENDBRANCH  17  18
ENDBRANCH  16  17
ENDBRANCH   6  16
TORSDOF 9
ENDMDL
MODEL       30
REMARK 921   NORMALIZED FREE ENERGY PREDICTED BY IDOCK:   -6.89 KCAL/MOL
REMARK 922        TOTAL FREE ENERGY PREDICTED BY IDOCK:  -12.45 KCAL/MOL
REMARK 923 INTER-LIGAND FREE ENERGY PREDICTED BY IDOCK:   -9.95 KCAL/MOL
REMARK 924 INTRA-LIGAND FREE ENERGY PREDICTED BY IDOCK:   -2.50 KCAL/MOL
REMARK 927      BINDING AFFINITY PREDICTED BY RF-SCORE:    0.00 PKD
ROOT
HETATM    1  O   UNL     1      -8.759   7.830  72.171  1.00  0.00    -0.116 OA 
HETATM    2  C   UNL     1      -9.695   7.480  71.157  1.00  0.00    -0.162 C  
HETATM    3  H   UNL     1      -8.334   7.064  72.538  1.00  0.00     0.000 HD 
HETATM    4  C   UNL     2      -6.997   8.856  63.102  1.00  0.00    -0.089 C  
HETATM    5  C   UNL     1     -10.391   8.737  70.556  1.00  0.00    -0.203 C  
HETATM    6  C   UNL     2      -7.579   9.947  63.988  1.00  0.00    -0.138 C  
HETATM    7  C   UNL     1      -9.305   9.713  70.025  1.00  0.00    -0.241 C  
HETATM    8  N   UNL     1     -11.226   8.246  69.415  1.00  0.00    -0.425 NA 
HETATM    9  C   UNL     1     -11.389   9.419  71.479  1.00  0.00    -0.394 C  
HETATM   10  H   UNL     1     -13.174   9.005  72.162  1.00  0.00     0.000 HD 
HETATM   11  H   UNL     1      -7.810   9.662  68.733  1.00  0.00     0.000 HD 
HETATM   12  H2  UNL     1     -11.879   7.507  69.677  1.00  0.00     0.000 HD 
HETATM   13  O   UNL     1      -8.473   9.066  69.057  1.00  0.00    -0.128 OA 
HETATM   14  O   UNL     1     -12.550   8.578  71.585  1.00  0.00    -0.310 OA 
HETATM   15  H1  UNL     1     -11.681   9.069  69.021  1.00  0.00     0.000 HD 
ENDROOT
BRANCH   6  16
HETATM   16  C   UNL     2      -8.841   9.521  64.740  1.00  0.00    -0.244 C  
BRANCH  16  17
HETATM   17  C   UNL     2      -9.807  10.659  65.082  1.00  0.00    -0.344 C  
BRANCH  17  18
HETATM   18  C   UNL     2     -10.430  10.579  66.495  1.00  0.00    -0.276 C  
HETATM   19  C   UNL     2     -11.142  11.830  67.059  1.00  0.00    -0.304 C  
HETATM   20  C   UNL     2     -11.887  11.601  68.381  1.00  0.00    -0.346 C  
HETATM   21  O   UNL     2     -12.128  12.223  66.097  1.00  0.00    -0.625 OA 
HETATM   22  C   UNL     2     -10.160  12.957  67.220  1.00  0.00    -0.231 C  
HETATM   23  H   UNL     2     -12.565  12.992  66.443  1.00  0.00     0.000 HD 
HETATM   24  C   UNL     2      -9.201  13.079  68.153  1.00  0.00    -0.212 C  
BRANCH  24  25
HETATM   25  C   UNL     2      -8.217  14.223  68.251  1.00  0.00    -0.148 C  
HETATM   26  C   UNL     2      -6.721  13.842  68.168  1.00  0.00    -0.124 C  
HETATM   27  C   UNL     2      -6.058  15.187  68.000  1.00  0.00    -0.159 C  
HETATM   28  O   UNL     2      -6.351  13.087  67.018  1.00  0.00    -0.480 OA 
HETATM   29  H   UNL     2      -5.432  12.852  66.966  1.00  0.00     0.000 HD 
HETATM   30  C   UNL     2      -6.954  15.903  66.989  1.00  0.00    -0.138 C  
HETATM   31  C   UNL     2      -8.389  15.348  67.185  1.00  0.00    -0.247 C  
HETATM   32  O   UNL     2      -6.814  17.299  67.202  1.00  0.00    -0.154 OA 
HETATM   33  H   UNL     2      -7.371  17.743  66.573  1.00  0.00     0.000 HD 
BRANCH  31  34
HETATM   34  C   UNL     2      -9.455  16.397  67.573  1.00  0.00    -0.224 C  
BRANCH  34  35
HETATM   35  C   UNL     2      -9.648  16.554  69.064  1.00  0.00    -0.255 C  
HETATM   36  C   UNL     2     -10.680  16.152  69.822  1.00  0.00    -0.336 C  
BRANCH  36  37
HETATM   37  C   UNL     2     -11.921  15.434  69.376  1.00  0.00    -0.351 C  
BRANCH  37  38
HETATM   38  C   UNL     2     -12.372  14.341  70.347  1.00  0.00    -0.419 C  
BRANCH  38  39
HETATM   39  C   UNL     2     -11.998  14.592  71.801  1.00  0.00    -0.359 C  
HETATM   40  C   UNL     2     -13.086  14.426  72.863  1.00  0.00    -0.517 C  
HETATM   41  O   UNL     2     -12.895  15.097  73.915  1.00  0.00    -0.500 OA 
HETATM   42  O   UNL     2     -14.045  13.610  72.663  1.00  0.00    -0.746 OA 
ENDBRANCH  38  39
ENDBRANCH  37  38
ENDBRANCH  36  37
ENDBRANCH  34  35
ENDBRANCH  31  34
ENDBRANCH  24  25
ENDBRANCH  17  18
ENDBRANCH  16  17
ENDBRANCH   6  16
TORSDOF 9
ENDMDL
MODEL       31
REMARK 921   NORMALIZED FREE ENERGY PREDICTED BY IDOCK:   -6.87 KCAL/MOL
REMARK 922        TOTAL FREE ENERGY PREDICTED BY IDOCK:  -12.41 KCAL/MOL
REMARK 923 INTER-LIGAND FREE ENERGY PREDICTED BY IDOCK:  -10.70 KCAL/MOL
REMARK 924 INTRA-LIGAND FREE ENERGY PREDICTED BY IDOCK:   -1.71 KCAL/MOL
REMARK 927      BINDING AFFINITY PREDICTED BY RF-SCORE:    0.00 PKD
ROOT
HETATM    1  O   UNL     1     -10.907   5.632  71.647  1.00  0.00    -0.250 OA 
HETATM    2  C   UNL     1     -11.564   6.583  70.815  1.00  0.00    -0.377 C  
HETATM    3  H   UNL     1     -11.304   4.771  71.580  1.00  0.00     0.000 HD 
HETATM    4  C   UNL     2      -7.382   8.545  63.555  1.00  0.00    -0.106 C  
HETATM    5  C   UNL     1     -10.914   7.992  70.925  1.00  0.00    -0.243 C  
HETATM    6  C   UNL     2      -7.061   9.174  64.902  1.00  0.00    -0.096 C  
HETATM    7  C   UNL     1      -9.401   7.881  70.588  1.00  0.00    -0.158 C  
HETATM    8  N   UNL     1     -11.594   8.847  69.901  1.00  0.00    -0.438 NA 
HETATM    9  C   UNL     1     -11.168   8.715  72.239  1.00  0.00    -0.328 C  
HETATM   10  H   UNL     1     -12.705   9.578  73.087  1.00  0.00     0.000 HD 
HETATM   11  H   UNL     1      -8.288   7.253  69.079  1.00  0.00     0.000 HD 
HETATM   12  H2  UNL     1     -12.610   8.861  69.994  1.00  0.00     0.000 HD 
HETATM   13  O   UNL     1      -9.213   7.321  69.285  1.00  0.00    -0.145 OA 
HETATM   14  O   UNL     1     -12.545   9.127  72.266  1.00  0.00    -0.376 OA 
HETATM   15  H1  UNL     1     -11.167   9.771  69.973  1.00  0.00     0.000 HD 
ENDROOT
BRANCH   6  16
HETATM   16  C   UNL     2      -8.298   9.607  65.690  1.00  0.00    -0.133 C  
BRANCH  16  17
HETATM   17  C   UNL     2      -8.828  11.003  65.351  1.00  0.00    -0.157 C  
BRANCH  17  18
HETATM   18  C   UNL     2     -10.268  11.032  64.789  1.00  0.00    -0.381 C  
HETATM   19  C   UNL     2     -10.937  12.405  64.548  1.00  0.00    -0.316 C  
HETATM   20  C   UNL     2     -12.287  12.339  63.819  1.00  0.00    -0.637 C  
HETATM   21  O   UNL     2     -10.056  13.162  63.710  1.00  0.00    -0.731 OA 
HETATM   22  C   UNL     2     -11.100  13.138  65.850  1.00  0.00    -0.298 C  
HETATM   23  H   UNL     2     -10.467  14.005  63.562  1.00  0.00     0.000 HD 
HETATM   24  C   UNL     2     -11.982  12.878  66.830  1.00  0.00    -0.402 C  
BRANCH  24  25
HETATM   25  C   UNL     2     -12.083  13.631  68.137  1.00  0.00    -0.310 C  
HETATM   26  C   UNL     2     -12.043  12.772  69.422  1.00  0.00    -0.192 C  
HETATM   27  C   UNL     2     -11.867  13.815  70.498  1.00  0.00    -0.296 C  
HETATM   28  O   UNL     2     -10.916  11.909  69.539  1.00  0.00    -0.430 OA 
HETATM   29  H   UNL     2     -10.891  11.380  70.328  1.00  0.00     0.000 HD 
HETATM   30  C   UNL     2     -10.823  14.763  69.910  1.00  0.00    -0.159 C  
HETATM   31  C   UNL     2     -10.994  14.722  68.368  1.00  0.00    -0.259 C  
HETATM   32  O   UNL     2     -11.015  16.038  70.503  1.00  0.00    -0.335 OA 
HETATM   33  H   UNL     2     -10.365  16.627  70.137  1.00  0.00     0.000 HD 
BRANCH  31  34
HETATM   34  C   UNL     2     -11.338  16.076  67.707  1.00  0.00    -0.167 C  
BRANCH  34  35
HETATM   35  C   UNL     2     -10.263  16.599  66.782  1.00  0.00    -0.301 C  
HETATM   36  C   UNL     2      -9.974  17.871  66.467  1.00  0.00    -0.357 C  
BRANCH  36  37
HETATM   37  C   UNL     2     -10.654  19.116  66.962  1.00  0.00    -0.551 C  
BRANCH  37  38
HETATM   38  C   UNL     2      -9.756  19.985  67.845  1.00  0.00    -0.517 C  
BRANCH  38  39
HETATM   39  C   UNL     2      -8.890  19.211  68.827  1.00  0.00    -0.372 C  
HETATM   40  C   UNL     2      -7.371  19.315  68.686  1.00  0.00    -0.338 C  
HETATM   41  O   UNL     2      -6.735  18.327  69.147  1.00  0.00    -0.258 OA 
HETATM   42  O   UNL     2      -6.853  20.370  68.193  1.00  0.00    -0.286 OA 
ENDBRANCH  38  39
ENDBRANCH  37  38
ENDBRANCH  36  37
ENDBRANCH  34  35
ENDBRANCH  31  34
ENDBRANCH  24  25
ENDBRANCH  17  18
ENDBRANCH  16  17
ENDBRANCH   6  16
TORSDOF 9
ENDMDL
MODEL       32
REMARK 921   NORMALIZED FREE ENERGY PREDICTED BY IDOCK:   -6.84 KCAL/MOL
REMARK 922        TOTAL FREE ENERGY PREDICTED BY IDOCK:  -12.37 KCAL/MOL
REMARK 923 INTER-LIGAND FREE ENERGY PREDICTED BY IDOCK:   -9.79 KCAL/MOL
REMARK 924 INTRA-LIGAND FREE ENERGY PREDICTED BY IDOCK:   -2.58 KCAL/MOL
REMARK 927      BINDING AFFINITY PREDICTED BY RF-SCORE:    0.00 PKD
ROOT
HETATM    1  O   UNL     1     -11.537   6.443  70.885  1.00  0.00    -0.333 OA 
HETATM    2  C   UNL     1     -11.391   7.849  71.057  1.00  0.00    -0.274 C  
HETATM    3  H   UNL     1     -12.401   6.144  71.142  1.00  0.00     0.000 HD 
HETATM    4  C   UNL     2     -11.826  12.453  63.800  1.00  0.00    -0.587 C  
HETATM    5  C   UNL     1      -9.975   8.338  70.637  1.00  0.00    -0.183 C  
HETATM    6  C   UNL     2     -10.564  11.743  64.266  1.00  0.00    -0.386 C  
HETATM    7  C   UNL     1      -9.704   7.907  69.169  1.00  0.00    -0.162 C  
HETATM    8  N   UNL     1     -10.007   9.833  70.723  1.00  0.00    -0.339 NA 
HETATM    9  C   UNL     1      -8.852   7.937  71.580  1.00  0.00    -0.132 C  
HETATM   10  H   UNL     1      -8.279   8.457  73.376  1.00  0.00     0.000 HD 
HETATM   11  H   UNL     1     -10.548   8.160  67.399  1.00  0.00     0.000 HD 
HETATM   12  H2  UNL     1     -10.302  10.181  71.636  1.00  0.00     0.000 HD 
HETATM   13  O   UNL     1     -10.714   8.423  68.296  1.00  0.00    -0.148 OA 
HETATM   14  O   UNL     1      -8.980   8.708  72.787  1.00  0.00    -0.356 OA 
HETATM   15  H1  UNL     1      -9.079  10.153  70.447  1.00  0.00     0.000 HD 
ENDROOT
BRANCH   6  16
HETATM   16  C   UNL     2     -10.265  11.934  65.754  1.00  0.00    -0.276 C  
BRANCH  16  17
HETATM   17  C   UNL     2      -9.900  13.363  66.164  1.00  0.00    -0.289 C  
BRANCH  17  18
HETATM   18  C   UNL     2     -10.297  13.746  67.609  1.00  0.00    -0.239 C  
HETATM   19  C   UNL     2     -11.413  14.797  67.811  1.00  0.00    -0.345 C  
HETATM   20  C   UNL     2     -11.866  14.976  69.268  1.00  0.00    -0.344 C  
HETATM   21  O   UNL     2     -12.558  14.343  67.080  1.00  0.00    -0.540 OA 
HETATM   22  C   UNL     2     -10.985  16.123  67.249  1.00  0.00    -0.175 C  
HETATM   23  H   UNL     2     -13.243  14.989  67.204  1.00  0.00     0.000 HD 
HETATM   24  C   UNL     2     -10.083  16.977  67.763  1.00  0.00    -0.302 C  
BRANCH  24  25
HETATM   25  C   UNL     2      -9.667  18.289  67.137  1.00  0.00    -0.307 C  
HETATM   26  C   UNL     2     -10.394  19.551  67.656  1.00  0.00    -0.451 C  
HETATM   27  C   UNL     2      -9.561  20.664  67.068  1.00  0.00    -0.484 C  
HETATM   28  O   UNL     2     -10.346  19.742  69.067  1.00  0.00    -0.609 OA 
HETATM   29  H   UNL     2     -10.793  20.517  69.386  1.00  0.00     0.000 HD 
HETATM   30  C   UNL     2      -8.125  20.190  67.288  1.00  0.00    -0.330 C  
HETATM   31  C   UNL     2      -8.152  18.639  67.260  1.00  0.00    -0.249 C  
HETATM   32  O   UNL     2      -7.314  20.796  66.294  1.00  0.00    -0.495 OA 
HETATM   33  H   UNL     2      -6.421  20.502  66.432  1.00  0.00     0.000 HD 
BRANCH  31  34
HETATM   34  C   UNL     2      -7.285  17.985  66.160  1.00  0.00    -0.325 C  
BRANCH  34  35
HETATM   35  C   UNL     2      -5.937  17.502  66.647  1.00  0.00    -0.227 C  
HETATM   36  C   UNL     2      -5.662  16.486  67.479  1.00  0.00    -0.174 C  
BRANCH  36  37
HETATM   37  C   UNL     2      -6.635  15.555  68.145  1.00  0.00    -0.138 C  
BRANCH  37  38
HETATM   38  C   UNL     2      -6.594  14.133  67.584  1.00  0.00    -0.173 C  
BRANCH  38  39
HETATM   39  C   UNL     2      -6.955  13.045  68.584  1.00  0.00    -0.102 C  
HETATM   40  C   UNL     2      -7.241  11.641  68.051  1.00  0.00    -0.083 C  
HETATM   41  O   UNL     2      -7.990  10.944  68.791  1.00  0.00    -0.123 OA 
HETATM   42  O   UNL     2      -6.684  11.249  66.974  1.00  0.00    -0.105 OA 
ENDBRANCH  38  39
ENDBRANCH  37  38
ENDBRANCH  36  37
ENDBRANCH  34  35
ENDBRANCH  31  34
ENDBRANCH  24  25
ENDBRANCH  17  18
ENDBRANCH  16  17
ENDBRANCH   6  16
TORSDOF 9
ENDMDL
MODEL       33
REMARK 921   NORMALIZED FREE ENERGY PREDICTED BY IDOCK:   -6.83 KCAL/MOL
REMARK 922        TOTAL FREE ENERGY PREDICTED BY IDOCK:  -12.36 KCAL/MOL
REMARK 923 INTER-LIGAND FREE ENERGY PREDICTED BY IDOCK:   -9.80 KCAL/MOL
REMARK 924 INTRA-LIGAND FREE ENERGY PREDICTED BY IDOCK:   -2.55 KCAL/MOL
REMARK 927      BINDING AFFINITY PREDICTED BY RF-SCORE:    0.00 PKD
ROOT
HETATM    1  O   UNL     1     -11.374  12.823  62.988  1.00  0.00    -0.746 OA 
HETATM    2  C   UNL     1     -10.694  13.404  64.096  1.00  0.00    -0.264 C  
HETATM    3  H   UNL     1     -10.790  12.298  62.452  1.00  0.00     0.000 HD 
HETATM    4  C   UNL     2     -12.124   9.544  71.654  1.00  0.00    -0.474 C  
HETATM    5  C   UNL     1     -11.650  14.262  64.974  1.00  0.00    -0.367 C  
HETATM    6  C   UNL     2     -13.074  10.562  71.040  1.00  0.00    -0.419 C  
HETATM    7  C   UNL     1     -12.847  13.383  65.431  1.00  0.00    -0.326 C  
HETATM    8  N   UNL     1     -10.853  14.684  66.170  1.00  0.00    -0.314 NA 
HETATM    9  C   UNL     1     -12.094  15.573  64.344  1.00  0.00    -0.139 C  
HETATM   10  H   UNL     1     -11.248  17.290  63.940  1.00  0.00     0.000 HD 
HETATM   11  H   UNL     1     -13.117  11.692  66.418  1.00  0.00     0.000 HD 
HETATM   12  H2  UNL     1      -9.984  15.161  65.931  1.00  0.00     0.000 HD 
HETATM   13  O   UNL     1     -12.386  12.229  66.139  1.00  0.00    -0.588 OA 
HETATM   14  O   UNL     1     -10.971  16.471  64.334  1.00  0.00    -0.872 OA 
HETATM   15  H1  UNL     1     -11.479  15.246  66.745  1.00  0.00     0.000 HD 
ENDROOT
BRANCH   6  16
HETATM   16  C   UNL     2     -12.371  11.797  70.474  1.00  0.00    -0.387 C  
BRANCH  16  17
HETATM   17  C   UNL     2     -11.686  11.590  69.121  1.00  0.00    -0.395 C  
BRANCH  17  18
HETATM   18  C   UNL     2     -10.152  11.403  69.191  1.00  0.00    -0.044 C  
HETATM   19  C   UNL     2      -9.421  10.848  67.947  1.00  0.00    -0.159 C  
HETATM   20  C   UNL     2      -7.888  10.871  68.044  1.00  0.00    -0.107 C  
HETATM   21  O   UNL     2      -9.773  11.687  66.841  1.00  0.00    -0.191 OA 
HETATM   22  C   UNL     2      -9.887   9.450  67.652  1.00  0.00    -0.217 C  
HETATM   23  H   UNL     2      -9.324  11.346  66.077  1.00  0.00     0.000 HD 
HETATM   24  C   UNL     2      -9.592   8.329  68.330  1.00  0.00    -0.158 C  
BRANCH  24  25
HETATM   25  C   UNL     2     -10.115   6.947  68.005  1.00  0.00    -0.193 C  
HETATM   26  C   UNL     2     -10.293   6.623  66.504  1.00  0.00    -0.050 C  
HETATM   27  C   UNL     2     -10.528   5.133  66.526  1.00  0.00    -0.346 C  
HETATM   28  O   UNL     2      -9.132   6.815  65.701  1.00  0.00    -0.357 OA 
HETATM   29  H   UNL     2      -9.240   6.616  64.779  1.00  0.00     0.000 HD 
HETATM   30  C   UNL     2      -9.497   4.622  67.532  1.00  0.00    -0.153 C  
HETATM   31  C   UNL     2      -9.266   5.762  68.559  1.00  0.00    -0.126 C  
HETATM   32  O   UNL     2      -9.993   3.411  68.079  1.00  0.00    -0.034 OA 
HETATM   33  H   UNL     2      -9.352   3.094  68.705  1.00  0.00     0.000 HD 
BRANCH  31  34
HETATM   34  C   UNL     2      -9.600   5.407  70.025  1.00  0.00    -0.227 C  
BRANCH  34  35
HETATM   35  C   UNL     2     -10.976   5.850  70.467  1.00  0.00    -0.362 C  
HETATM   36  C   UNL     2     -11.443   6.014  71.714  1.00  0.00    -0.314 C  
BRANCH  36  37
HETATM   37  C   UNL     2     -10.708   5.796  73.006  1.00  0.00    -0.290 C  
BRANCH  37  38
HETATM   38  C   UNL     2     -10.236   7.096  73.660  1.00  0.00    -0.402 C  
BRANCH  38  39
HETATM   39  C   UNL     2      -8.733   7.326  73.603  1.00  0.00    -0.208 C  
HETATM   40  C   UNL     2      -8.175   8.167  72.455  1.00  0.00    -0.151 C  
HETATM   41  O   UNL     2      -6.971   7.921  72.164  1.00  0.00    -0.061 OA 
HETATM   42  O   UNL     2      -8.900   9.070  71.923  1.00  0.00    -0.360 OA 
ENDBRANCH  38  39
ENDBRANCH  37  38
ENDBRANCH  36  37
ENDBRANCH  34  35
ENDBRANCH  31  34
ENDBRANCH  24  25
ENDBRANCH  17  18
ENDBRANCH  16  17
ENDBRANCH   6  16
TORSDOF 9
ENDMDL
MODEL       34
REMARK 921   NORMALIZED FREE ENERGY PREDICTED BY IDOCK:   -6.80 KCAL/MOL
REMARK 922        TOTAL FREE ENERGY PREDICTED BY IDOCK:  -12.31 KCAL/MOL
REMARK 923 INTER-LIGAND FREE ENERGY PREDICTED BY IDOCK:   -8.64 KCAL/MOL
REMARK 924 INTRA-LIGAND FREE ENERGY PREDICTED BY IDOCK:   -3.67 KCAL/MOL
REMARK 927      BINDING AFFINITY PREDICTED BY RF-SCORE:    0.00 PKD
ROOT
HETATM    1  O   UNL     1      -9.054  14.972  65.899  1.00  0.00    -0.477 OA 
HETATM    2  C   UNL     1      -9.121  14.947  67.321  1.00  0.00    -0.201 C  
HETATM    3  H   UNL     1      -8.378  15.564  65.588  1.00  0.00     0.000 HD 
HETATM    4  C   UNL     2      -5.593   8.011  70.994  1.00  0.00    -0.033 C  
HETATM    5  C   UNL     1     -10.228  13.977  67.829  1.00  0.00    -0.240 C  
HETATM    6  C   UNL     2      -6.998   8.026  70.411  1.00  0.00    -0.041 C  
HETATM    7  C   UNL     1      -9.972  12.562  67.240  1.00  0.00    -0.211 C  
HETATM    8  N   UNL     1     -10.091  13.932  69.319  1.00  0.00    -0.423 NA 
HETATM    9  C   UNL     1     -11.653  14.456  67.601  1.00  0.00    -0.370 C  
HETATM   10  H   UNL     1     -12.802  15.844  68.362  1.00  0.00     0.000 HD 
HETATM   11  H   UNL     1      -8.511  11.230  67.235  1.00  0.00     0.000 HD 
HETATM   12  H2  UNL     1     -10.126  14.852  69.758  1.00  0.00     0.000 HD 
HETATM   13  O   UNL     1      -8.667  12.095  67.594  1.00  0.00    -0.157 OA 
HETATM   14  O   UNL     1     -11.911  15.545  68.504  1.00  0.00    -0.319 OA 
HETATM   15  H1  UNL     1     -10.816  13.296  69.652  1.00  0.00     0.000 HD 
ENDROOT
BRANCH   6  16
HETATM   16  C   UNL     2      -7.810   9.264  70.794  1.00  0.00    -0.174 C  
BRANCH  16  17
HETATM   17  C   UNL     2      -8.991   9.577  69.871  1.00  0.00    -0.231 C  
BRANCH  17  18
HETATM   18  C   UNL     2      -8.901   8.941  68.464  1.00  0.00    -0.134 C  
HETATM   19  C   UNL     2     -10.113   8.135  67.942  1.00  0.00    -0.196 C  
HETATM   20  C   UNL     2     -10.007   7.701  66.473  1.00  0.00    -0.226 C  
HETATM   21  O   UNL     2     -11.259   8.989  68.034  1.00  0.00    -0.481 OA 
HETATM   22  C   UNL     2     -10.347   6.930  68.810  1.00  0.00    -0.200 C  
HETATM   23  H   UNL     2     -12.003   8.493  67.714  1.00  0.00     0.000 HD 
HETATM   24  C   UNL     2      -9.615   5.804  68.860  1.00  0.00    -0.163 C  
BRANCH  24  25
HETATM   25  C   UNL     2      -9.879   4.631  69.777  1.00  0.00    -0.296 C  
HETATM   26  C   UNL     2      -9.254   3.282  69.351  1.00  0.00    -0.152 C  
HETATM   27  C   UNL     2      -9.448   2.437  70.587  1.00  0.00    -0.192 C  
HETATM   28  O   UNL     2      -7.848   3.310  69.123  1.00  0.00    -0.051 OA 
HETATM   29  H   UNL     2      -7.464   2.481  68.862  1.00  0.00     0.000 HD 
HETATM   30  C   UNL     2      -9.075   3.382  71.728  1.00  0.00    -0.111 C  
HETATM   31  C   UNL     2      -9.420   4.819  71.255  1.00  0.00    -0.216 C  
HETATM   32  O   UNL     2      -9.765   2.949  72.889  1.00  0.00    -0.106 OA 
HETATM   33  H   UNL     2      -9.533   3.537  73.599  1.00  0.00     0.000 HD 
BRANCH  31  34
HETATM   34  C   UNL     2     -10.456   5.568  72.124  1.00  0.00    -0.272 C  
BRANCH  34  35
HETATM   35  C   UNL     2      -9.966   6.895  72.658  1.00  0.00    -0.191 C  
HETATM   36  C   UNL     2     -10.650   8.038  72.816  1.00  0.00    -0.420 C  
BRANCH  36  37
HETATM   37  C   UNL     2     -12.097   8.293  72.502  1.00  0.00    -0.400 C  
BRANCH  37  38
HETATM   38  C   UNL     2     -12.304   9.113  71.227  1.00  0.00    -0.382 C  
BRANCH  38  39
HETATM   39  C   UNL     2     -12.772  10.542  71.462  1.00  0.00    -0.558 C  
HETATM   40  C   UNL     2     -12.488  11.580  70.375  1.00  0.00    -0.240 C  
HETATM   41  O   UNL     2     -12.427  12.770  70.794  1.00  0.00    -0.344 OA 
HETATM   42  O   UNL     2     -12.397  11.213  69.158  1.00  0.00    -0.438 OA 
ENDBRANCH  38  39
ENDBRANCH  37  38
ENDBRANCH  36  37
ENDBRANCH  34  35
ENDBRANCH  31  34
ENDBRANCH  24  25
ENDBRANCH  17  18
ENDBRANCH  16  17
ENDBRANCH   6  16
TORSDOF 9
ENDMDL
MODEL       35
REMARK 921   NORMALIZED FREE ENERGY PREDICTED BY IDOCK:   -6.80 KCAL/MOL
REMARK 922        TOTAL FREE ENERGY PREDICTED BY IDOCK:  -12.31 KCAL/MOL
REMARK 923 INTER-LIGAND FREE ENERGY PREDICTED BY IDOCK:   -9.69 KCAL/MOL
REMARK 924 INTRA-LIGAND FREE ENERGY PREDICTED BY IDOCK:   -2.62 KCAL/MOL
REMARK 927      BINDING AFFINITY PREDICTED BY RF-SCORE:    0.00 PKD
ROOT
HETATM    1  O   UNL     1     -13.114  14.264  64.811  1.00  0.00    -0.599 OA 
HETATM    2  C   UNL     1     -11.691  14.324  64.777  1.00  0.00    -0.415 C  
HETATM    3  H   UNL     1     -13.498  14.567  63.997  1.00  0.00     0.000 HD 
HETATM    4  C   UNL     2      -7.770   6.752  63.621  1.00  0.00    -0.107 C  
HETATM    5  C   UNL     1     -11.061  13.828  66.111  1.00  0.00    -0.296 C  
HETATM    6  C   UNL     2      -8.275   7.235  64.972  1.00  0.00    -0.100 C  
HETATM    7  C   UNL     1     -11.569  12.390  66.408  1.00  0.00    -0.384 C  
HETATM    8  N   UNL     1      -9.581  13.800  65.889  1.00  0.00    -0.494 NA 
HETATM    9  C   UNL     1     -11.241  14.767  67.294  1.00  0.00    -0.346 C  
HETATM   10  H   UNL     1     -10.511  16.501  67.828  1.00  0.00     0.000 HD 
HETATM   11  H   UNL     1     -11.567  10.630  65.507  1.00  0.00     0.000 HD 
HETATM   12  H2  UNL     1      -9.202  14.692  65.568  1.00  0.00     0.000 HD 
HETATM   13  O   UNL     1     -11.257  11.509  65.325  1.00  0.00    -0.239 OA 
HETATM   14  O   UNL     1     -10.399  15.914  67.089  1.00  0.00    -0.287 OA 
HETATM   15  H1  UNL     1      -9.168  13.475  66.762  1.00  0.00     0.000 HD 
ENDROOT
BRANCH   6  16
HETATM   16  C   UNL     2      -7.930   8.695  65.271  1.00  0.00    -0.114 C  
BRANCH  16  17
HETATM   17  C   UNL     2      -8.457   9.226  66.608  1.00  0.00    -0.130 C  
BRANCH  17  18
HETATM   18  C   UNL     2      -7.417   9.248  67.753  1.00  0.00    -0.088 C  
HETATM   19  C   UNL     2      -7.569   8.230  68.906  1.00  0.00    -0.093 C  
HETATM   20  C   UNL     2      -6.395   8.203  69.894  1.00  0.00    -0.032 C  
HETATM   21  O   UNL     2      -7.634   6.928  68.313  1.00  0.00    -0.102 OA 
HETATM   22  C   UNL     2      -8.851   8.477  69.650  1.00  0.00    -0.137 C  
HETATM   23  H   UNL     2      -7.728   6.302  69.021  1.00  0.00     0.000 HD 
HETATM   24  C   UNL     2      -9.123   9.483  70.499  1.00  0.00    -0.276 C  
BRANCH  24  25
HETATM   25  C   UNL     2     -10.445   9.702  71.200  1.00  0.00    -0.281 C  
HETATM   26  C   UNL     2     -11.491  10.543  70.432  1.00  0.00    -0.341 C  
HETATM   27  C   UNL     2     -12.741  10.318  71.247  1.00  0.00    -0.523 C  
HETATM   28  O   UNL     2     -11.800  10.076  69.122  1.00  0.00    -0.485 OA 
HETATM   29  H   UNL     2     -12.442  10.593  68.650  1.00  0.00     0.000 HD 
HETATM   30  C   UNL     2     -12.707   8.821  71.550  1.00  0.00    -0.328 C  
HETATM   31  C   UNL     2     -11.212   8.405  71.603  1.00  0.00    -0.343 C  
HETATM   32  O   UNL     2     -13.434   8.607  72.750  1.00  0.00    -0.663 OA 
HETATM   33  H   UNL     2     -13.412   7.676  72.938  1.00  0.00     0.000 HD 
BRANCH  31  34
HETATM   34  C   UNL     2     -10.740   7.812  72.950  1.00  0.00    -0.446 C  
BRANCH  34  35
HETATM   35  C   UNL     2      -9.484   6.978  72.847  1.00  0.00    -0.171 C  
HETATM   36  C   UNL     2      -9.307   5.804  72.222  1.00  0.00    -0.155 C  
BRANCH  36  37
HETATM   37  C   UNL     2     -10.325   5.011  71.454  1.00  0.00    -0.251 C  
BRANCH  37  38
HETATM   38  C   UNL     2     -10.036   4.947  69.953  1.00  0.00    -0.332 C  
BRANCH  38  39
HETATM   39  C   UNL     2     -10.983   5.766  69.089  1.00  0.00    -0.308 C  
HETATM   40  C   UNL     2     -10.650   5.925  67.605  1.00  0.00    -0.262 C  
HETATM   41  O   UNL     2     -11.133   6.962  67.070  1.00  0.00    -0.389 OA 
HETATM   42  O   UNL     2      -9.990   5.016  67.005  1.00  0.00    -0.167 OA 
ENDBRANCH  38  39
ENDBRANCH  37  38
ENDBRANCH  36  37
ENDBRANCH  34  35
ENDBRANCH  31  34
ENDBRANCH  24  25
ENDBRANCH  17  18
ENDBRANCH  16  17
ENDBRANCH   6  16
TORSDOF 9
ENDMDL
MODEL       36
REMARK 921   NORMALIZED FREE ENERGY PREDICTED BY IDOCK:   -6.80 KCAL/MOL
REMARK 922        TOTAL FREE ENERGY PREDICTED BY IDOCK:  -12.30 KCAL/MOL
REMARK 923 INTER-LIGAND FREE ENERGY PREDICTED BY IDOCK:   -9.11 KCAL/MOL
REMARK 924 INTRA-LIGAND FREE ENERGY PREDICTED BY IDOCK:   -3.18 KCAL/MOL
REMARK 927      BINDING AFFINITY PREDICTED BY RF-SCORE:    0.00 PKD
ROOT
HETATM    1  O   UNL     1     -13.476  14.038  65.685  1.00  0.00    -0.713 OA 
HETATM    2  C   UNL     1     -12.233  13.959  64.994  1.00  0.00    -0.425 C  
HETATM    3  H   UNL     1     -14.138  13.489  65.282  1.00  0.00     0.000 HD 
HETATM    4  C   UNL     2      -6.247   9.125  68.847  1.00  0.00    -0.044 C  
HETATM    5  C   UNL     1     -11.148  14.859  65.654  1.00  0.00    -0.348 C  
HETATM    6  C   UNL     2      -6.532  10.569  69.232  1.00  0.00    -0.055 C  
HETATM    7  C   UNL     1     -11.002  14.463  67.150  1.00  0.00    -0.303 C  
HETATM    8  N   UNL     1      -9.870  14.570  64.931  1.00  0.00    -0.433 NA 
HETATM    9  C   UNL     1     -11.352  16.354  65.463  1.00  0.00     0.314 C  
HETATM   10  H   UNL     1     -11.198  17.608  63.970  1.00  0.00     0.000 HD 
HETATM   11  H   UNL     1     -10.585  12.834  68.190  1.00  0.00     0.000 HD 
HETATM   12  H2  UNL     1      -9.938  14.692  63.921  1.00  0.00     0.000 HD 
HETATM   13  O   UNL     1     -10.675  13.076  67.276  1.00  0.00    -0.246 OA 
HETATM   14  O   UNL     1     -11.070  16.674  64.090  1.00  0.00    -1.005 OA 
HETATM   15  H1  UNL     1      -9.159  15.159  65.364  1.00  0.00     0.000 HD 
ENDROOT
BRANCH   6  16
HETATM   16  C   UNL     2      -6.681  11.508  68.034  1.00  0.00    -0.059 C  
BRANCH  16  17
HETATM   17  C   UNL     2      -8.016  11.403  67.290  1.00  0.00    -0.149 C  
BRANCH  17  18
HETATM   18  C   UNL     2      -7.920  10.806  65.866  1.00  0.00    -0.140 C  
HETATM   19  C   UNL     2      -9.212  10.277  65.202  1.00  0.00    -0.206 C  
HETATM   20  C   UNL     2      -9.054   9.876  63.728  1.00  0.00    -0.293 C  
HETATM   21  O   UNL     2     -10.170  11.341  65.236  1.00  0.00    -0.249 OA 
HETATM   22  C   UNL     2      -9.761   9.118  65.985  1.00  0.00    -0.358 C  
HETATM   23  H   UNL     2     -10.963  11.016  64.828  1.00  0.00     0.000 HD 
HETATM   24  C   UNL     2      -9.276   7.866  66.043  1.00  0.00    -0.162 C  
BRANCH  24  25
HETATM   25  C   UNL     2      -9.852   6.742  66.874  1.00  0.00    -0.229 C  
HETATM   26  C   UNL     2      -9.482   5.308  66.429  1.00  0.00    -0.153 C  
HETATM   27  C   UNL     2      -9.951   4.480  67.600  1.00  0.00    -0.138 C  
HETATM   28  O   UNL     2      -8.086   5.051  66.314  1.00  0.00    -0.107 OA 
HETATM   29  H   UNL     2      -7.858   4.171  66.040  1.00  0.00     0.000 HD 
HETATM   30  C   UNL     2      -9.494   5.287  68.815  1.00  0.00    -0.128 C  
HETATM   31  C   UNL     2      -9.496   6.780  68.392  1.00  0.00    -0.126 C  
HETATM   32  O   UNL     2     -10.357   4.967  69.894  1.00  0.00    -0.265 OA 
HETATM   33  H   UNL     2     -10.073   5.469  70.649  1.00  0.00     0.000 HD 
BRANCH  31  34
HETATM   34  C   UNL     2     -10.429   7.697  69.214  1.00  0.00    -0.220 C  
BRANCH  34  35
HETATM   35  C   UNL     2      -9.726   8.873  69.854  1.00  0.00    -0.185 C  
HETATM   36  C   UNL     2     -10.212  10.096  70.119  1.00  0.00    -0.235 C  
BRANCH  36  37
HETATM   37  C   UNL     2     -11.595  10.613  69.845  1.00  0.00    -0.396 C  
BRANCH  37  38
HETATM   38  C   UNL     2     -12.419  10.840  71.114  1.00  0.00    -0.519 C  
BRANCH  38  39
HETATM   39  C   UNL     2     -13.519   9.815  71.347  1.00  0.00    -0.397 C  
HETATM   40  C   UNL     2     -13.112   8.413  71.803  1.00  0.00    -0.351 C  
HETATM   41  O   UNL     2     -13.940   7.507  71.505  1.00  0.00    -0.408 OA 
HETATM   42  O   UNL     2     -12.046   8.253  72.481  1.00  0.00    -0.385 OA 
ENDBRANCH  38  39
ENDBRANCH  37  38
ENDBRANCH  36  37
ENDBRANCH  34  35
ENDBRANCH  31  34
ENDBRANCH  24  25
ENDBRANCH  17  18
ENDBRANCH  16  17
ENDBRANCH   6  16
TORSDOF 9
ENDMDL
MODEL       37
REMARK 921   NORMALIZED FREE ENERGY PREDICTED BY IDOCK:   -6.78 KCAL/MOL
REMARK 922        TOTAL FREE ENERGY PREDICTED BY IDOCK:  -12.28 KCAL/MOL
REMARK 923 INTER-LIGAND FREE ENERGY PREDICTED BY IDOCK:  -11.34 KCAL/MOL
REMARK 924 INTRA-LIGAND FREE ENERGY PREDICTED BY IDOCK:   -0.94 KCAL/MOL
REMARK 927      BINDING AFFINITY PREDICTED BY RF-SCORE:    0.00 PKD
ROOT
HETATM    1  O   UNL     1     -11.384   5.972  73.551  1.00  0.00    -0.430 OA 
HETATM    2  C   UNL     1     -11.847   5.973  72.205  1.00  0.00    -0.247 C  
HETATM    3  H   UNL     1     -11.439   5.107  73.942  1.00  0.00     0.000 HD 
HETATM    4  C   UNL     2      -5.648   6.198  66.241  1.00  0.00    -0.013 C  
HETATM    5  C   UNL     1     -11.757   7.390  71.565  1.00  0.00    -0.284 C  
HETATM    6  C   UNL     2      -6.159   7.435  66.964  1.00  0.00    -0.046 C  
HETATM    7  C   UNL     1     -10.294   7.902  71.671  1.00  0.00    -0.204 C  
HETATM    8  N   UNL     1     -12.126   7.221  70.125  1.00  0.00    -0.519 NA 
HETATM    9  C   UNL     1     -12.768   8.396  72.092  1.00  0.00    -0.356 C  
HETATM   10  H   UNL     1     -14.699   8.661  71.922  1.00  0.00     0.000 HD 
HETATM   11  H   UNL     1      -8.497   7.302  71.106  1.00  0.00     0.000 HD 
HETATM   12  H2  UNL     1     -13.032   6.771  69.987  1.00  0.00     0.000 HD 
HETATM   13  O   UNL     1      -9.391   6.988  71.042  1.00  0.00    -0.159 OA 
HETATM   14  O   UNL     1     -14.067   8.032  71.593  1.00  0.00    -0.397 OA 
HETATM   15  H1  UNL     1     -12.067   8.149  69.705  1.00  0.00     0.000 HD 
ENDROOT
BRANCH   6  16
HETATM   16  C   UNL     2      -7.684   7.501  67.066  1.00  0.00    -0.111 C  
BRANCH  16  17
HETATM   17  C   UNL     2      -8.302   8.847  66.677  1.00  0.00    -0.111 C  
BRANCH  17  18
HETATM   18  C   UNL     2      -8.888   9.658  67.857  1.00  0.00    -0.119 C  
HETATM   19  C   UNL     2     -10.395  10.002  67.837  1.00  0.00    -0.207 C  
HETATM   20  C   UNL     2     -10.921  10.643  69.130  1.00  0.00    -0.296 C  
HETATM   21  O   UNL     2     -11.106   8.770  67.674  1.00  0.00    -0.480 OA 
HETATM   22  C   UNL     2     -10.709  10.891  66.667  1.00  0.00    -0.289 C  
HETATM   23  H   UNL     2     -12.032   8.981  67.662  1.00  0.00     0.000 HD 
HETATM   24  C   UNL     2     -10.408  12.193  66.525  1.00  0.00    -0.239 C  
BRANCH  24  25
HETATM   25  C   UNL     2     -10.723  13.035  65.309  1.00  0.00    -0.317 C  
HETATM   26  C   UNL     2     -11.866  12.521  64.404  1.00  0.00    -0.386 C  
HETATM   27  C   UNL     2     -12.108  13.702  63.496  1.00  0.00    -0.341 C  
HETATM   28  O   UNL     2     -13.105  12.288  65.066  1.00  0.00    -0.546 OA 
HETATM   29  H   UNL     2     -13.808  11.972  64.510  1.00  0.00     0.000 HD 
HETATM   30  C   UNL     2     -12.061  14.899  64.445  1.00  0.00    -0.401 C  
HETATM   31  C   UNL     2     -11.099  14.520  65.602  1.00  0.00    -0.327 C  
HETATM   32  O   UNL     2     -11.674  16.034  63.688  1.00  0.00    -1.184 OA 
HETATM   33  H   UNL     2     -11.644  16.778  64.278  1.00  0.00     0.000 HD 
BRANCH  31  34
HETATM   34  C   UNL     2      -9.868  15.440  65.764  1.00  0.00    -0.399 C  
BRANCH  34  35
HETATM   35  C   UNL     2      -9.888  16.276  67.023  1.00  0.00    -0.247 C  
HETATM   36  C   UNL     2     -10.064  17.601  67.145  1.00  0.00    -0.328 C  
BRANCH  36  37
HETATM   37  C   UNL     2     -10.293  18.602  66.048  1.00  0.00    -0.436 C  
BRANCH  37  38
HETATM   38  C   UNL     2     -10.602  20.008  66.566  1.00  0.00    -0.461 C  
BRANCH  38  39
HETATM   39  C   UNL     2      -9.496  20.634  67.401  1.00  0.00    -0.516 C  
HETATM   40  C   UNL     2      -8.046  20.309  67.037  1.00  0.00    -0.321 C  
HETATM   41  O   UNL     2      -7.231  20.415  67.996  1.00  0.00    -0.290 OA 
HETATM   42  O   UNL     2      -7.746  20.026  65.832  1.00  0.00    -0.333 OA 
ENDBRANCH  38  39
ENDBRANCH  37  38
ENDBRANCH  36  37
ENDBRANCH  34  35
ENDBRANCH  31  34
ENDBRANCH  24  25
ENDBRANCH  17  18
ENDBRANCH  16  17
ENDBRANCH   6  16
TORSDOF 9
ENDMDL
MODEL       38
REMARK 921   NORMALIZED FREE ENERGY PREDICTED BY IDOCK:   -6.77 KCAL/MOL
REMARK 922        TOTAL FREE ENERGY PREDICTED BY IDOCK:  -12.26 KCAL/MOL
REMARK 923 INTER-LIGAND FREE ENERGY PREDICTED BY IDOCK:   -9.68 KCAL/MOL
REMARK 924 INTRA-LIGAND FREE ENERGY PREDICTED BY IDOCK:   -2.59 KCAL/MOL
REMARK 927      BINDING AFFINITY PREDICTED BY RF-SCORE:    0.00 PKD
ROOT
HETATM    1  O   UNL     1     -10.247  19.965  69.072  1.00  0.00    -0.566 OA 
HETATM    2  C   UNL     1     -10.594  18.899  68.193  1.00  0.00    -0.235 C  
HETATM    3  H   UNL     1     -10.888  20.072  69.765  1.00  0.00     0.000 HD 
HETATM    4  C   UNL     2      -6.102  11.649  69.339  1.00  0.00    -0.088 C  
HETATM    5  C   UNL     1      -9.543  18.724  67.058  1.00  0.00    -0.303 C  
HETATM    6  C   UNL     2      -5.588  12.834  68.536  1.00  0.00    -0.058 C  
HETATM    7  C   UNL     1      -8.141  18.514  67.692  1.00  0.00    -0.250 C  
HETATM    8  N   UNL     1      -9.943  17.493  66.306  1.00  0.00    -0.375 NA 
HETATM    9  C   UNL     1      -9.549  19.820  66.004  1.00  0.00    -0.345 C  
HETATM   10  H   UNL     1     -10.739  20.355  64.547  1.00  0.00     0.000 HD 
HETATM   11  H   UNL     1      -7.291  17.258  68.961  1.00  0.00     0.000 HD 
HETATM   12  H2  UNL     1     -10.905  17.518  65.967  1.00  0.00     0.000 HD 
HETATM   13  O   UNL     1      -8.148  17.386  68.574  1.00  0.00    -0.254 OA 
HETATM   14  O   UNL     1     -10.735  19.670  65.205  1.00  0.00    -0.390 OA 
HETATM   15  H1  UNL     1      -9.255  17.377  65.562  1.00  0.00     0.000 HD 
ENDROOT
BRANCH   6  16
HETATM   16  C   UNL     2      -6.625  13.427  67.581  1.00  0.00    -0.174 C  
BRANCH  16  17
HETATM   17  C   UNL     2      -7.830  14.085  68.258  1.00  0.00    -0.140 C  
BRANCH  17  18
HETATM   18  C   UNL     2      -9.176  13.892  67.521  1.00  0.00    -0.205 C  
HETATM   19  C   UNL     2     -10.220  12.931  68.133  1.00  0.00    -0.239 C  
HETATM   20  C   UNL     2     -11.588  12.946  67.436  1.00  0.00    -0.414 C  
HETATM   21  O   UNL     2     -10.445  13.357  69.482  1.00  0.00    -0.410 OA 
HETATM   22  C   UNL     2      -9.681  11.529  68.161  1.00  0.00    -0.192 C  
HETATM   23  H   UNL     2     -11.086  12.767  69.859  1.00  0.00     0.000 HD 
HETATM   24  C   UNL     2      -9.519  10.694  67.120  1.00  0.00    -0.177 C  
BRANCH  24  25
HETATM   25  C   UNL     2      -8.942   9.299  67.201  1.00  0.00    -0.141 C  
HETATM   26  C   UNL     2      -9.612   8.343  68.215  1.00  0.00    -0.144 C  
HETATM   27  C   UNL     2      -9.017   7.009  67.836  1.00  0.00    -0.122 C  
HETATM   28  O   UNL     2     -11.021   8.190  68.064  1.00  0.00    -0.466 OA 
HETATM   29  H   UNL     2     -11.433   7.603  68.686  1.00  0.00     0.000 HD 
HETATM   30  C   UNL     2      -9.061   7.018  66.308  1.00  0.00    -0.147 C  
HETATM   31  C   UNL     2      -8.934   8.499  65.862  1.00  0.00    -0.235 C  
HETATM   32  O   UNL     2      -8.033   6.159  65.842  1.00  0.00    -0.103 OA 
HETATM   33  H   UNL     2      -8.060   6.165  64.893  1.00  0.00     0.000 HD 
BRANCH  31  34
HETATM   34  C   UNL     2      -7.713   8.816  64.970  1.00  0.00    -0.105 C  
BRANCH  34  35
HETATM   35  C   UNL     2      -7.994   8.717  63.488  1.00  0.00    -0.158 C  
HETATM   36  C   UNL     2      -8.480   9.657  62.663  1.00  0.00    -0.180 C  
BRANCH  36  37
HETATM   37  C   UNL     2      -8.873  11.065  63.006  1.00  0.00    -0.202 C  
BRANCH  37  38
HETATM   38  C   UNL     2     -10.335  11.198  63.439  1.00  0.00    -0.419 C  
BRANCH  38  39
HETATM   39  C   UNL     2     -10.737  12.593  63.894  1.00  0.00    -0.465 C  
HETATM   40  C   UNL     2     -12.204  13.002  63.750  1.00  0.00    -0.460 C  
HETATM   41  O   UNL     2     -12.391  14.248  63.656  1.00  0.00    -0.741 OA 
HETATM   42  O   UNL     2     -13.115  12.113  63.797  1.00  0.00    -0.774 OA 
ENDBRANCH  38  39
ENDBRANCH  37  38
ENDBRANCH  36  37
ENDBRANCH  34  35
ENDBRANCH  31  34
ENDBRANCH  24  25
ENDBRANCH  17  18
ENDBRANCH  16  17
ENDBRANCH   6  16
TORSDOF 9
ENDMDL
MODEL       39
REMARK 921   NORMALIZED FREE ENERGY PREDICTED BY IDOCK:   -6.77 KCAL/MOL
REMARK 922        TOTAL FREE ENERGY PREDICTED BY IDOCK:  -12.26 KCAL/MOL
REMARK 923 INTER-LIGAND FREE ENERGY PREDICTED BY IDOCK:  -10.55 KCAL/MOL
REMARK 924 INTRA-LIGAND FREE ENERGY PREDICTED BY IDOCK:   -1.71 KCAL/MOL
REMARK 927      BINDING AFFINITY PREDICTED BY RF-SCORE:    0.00 PKD
ROOT
HETATM    1  O   UNL     1      -9.460   4.444  70.917  1.00  0.00    -0.144 OA 
HETATM    2  C   UNL     1     -10.522   5.113  70.244  1.00  0.00    -0.226 C  
HETATM    3  H   UNL     1      -9.513   3.502  70.809  1.00  0.00     0.000 HD 
HETATM    4  C   UNL     2      -8.310   8.877  62.828  1.00  0.00    -0.201 C  
HETATM    5  C   UNL     1     -10.435   6.657  70.421  1.00  0.00    -0.211 C  
HETATM    6  C   UNL     2      -8.081   9.513  64.191  1.00  0.00    -0.147 C  
HETATM    7  C   UNL     1      -9.044   7.147  69.932  1.00  0.00    -0.141 C  
HETATM    8  N   UNL     1     -11.506   7.238  69.552  1.00  0.00    -0.492 NA 
HETATM    9  C   UNL     1     -10.774   7.163  71.815  1.00  0.00    -0.215 C  
HETATM   10  H   UNL     1     -12.403   7.333  72.884  1.00  0.00     0.000 HD 
HETATM   11  H   UNL     1      -7.975   7.065  68.270  1.00  0.00     0.000 HD 
HETATM   12  H2  UNL     1     -12.434   6.860  69.743  1.00  0.00     0.000 HD 
HETATM   13  O   UNL     1      -8.825   6.766  68.570  1.00  0.00    -0.124 OA 
HETATM   14  O   UNL     1     -12.191   7.017  72.013  1.00  0.00    -0.308 OA 
HETATM   15  H1  UNL     1     -11.449   8.250  69.667  1.00  0.00     0.000 HD 
ENDROOT
BRANCH   6  16
HETATM   16  C   UNL     2      -9.282   9.403  65.132  1.00  0.00    -0.287 C  
BRANCH  16  17
HETATM   17  C   UNL     2      -9.679  10.705  65.833  1.00  0.00    -0.273 C  
BRANCH  17  18
HETATM   18  C   UNL     2     -10.926  11.406  65.246  1.00  0.00    -0.251 C  
HETATM   19  C   UNL     2     -10.731  12.737  64.485  1.00  0.00    -0.358 C  
HETATM   20  C   UNL     2     -11.992  13.261  63.781  1.00  0.00    -0.551 C  
HETATM   21  O   UNL     2      -9.761  12.499  63.459  1.00  0.00    -0.661 OA 
HETATM   22  C   UNL     2     -10.195  13.791  65.412  1.00  0.00    -0.344 C  
HETATM   23  H   UNL     2      -9.641  13.317  62.992  1.00  0.00     0.000 HD 
HETATM   24  C   UNL     2     -10.859  14.440  66.383  1.00  0.00    -0.314 C  
BRANCH  24  25
HETATM   25  C   UNL     2     -10.260  15.474  67.311  1.00  0.00    -0.260 C  
HETATM   26  C   UNL     2      -9.104  16.321  66.729  1.00  0.00    -0.232 C  
HETATM   27  C   UNL     2      -8.953  17.407  67.765  1.00  0.00    -0.236 C  
HETATM   28  O   UNL     2      -9.400  16.994  65.509  1.00  0.00    -0.457 OA 
HETATM   29  H   UNL     2      -8.690  17.514  65.152  1.00  0.00     0.000 HD 
HETATM   30  C   UNL     2     -10.395  17.795  68.090  1.00  0.00    -0.391 C  
HETATM   31  C   UNL     2     -11.262  16.526  67.877  1.00  0.00    -0.155 C  
HETATM   32  O   UNL     2     -10.413  18.321  69.408  1.00  0.00    -0.389 OA 
HETATM   33  H   UNL     2     -11.309  18.562  69.610  1.00  0.00     0.000 HD 
BRANCH  31  34
HETATM   34  C   UNL     2     -12.024  16.030  69.127  1.00  0.00    -0.187 C  
BRANCH  34  35
HETATM   35  C   UNL     2     -11.138  15.392  70.173  1.00  0.00    -0.324 C  
HETATM   36  C   UNL     2     -11.496  14.764  71.304  1.00  0.00    -0.257 C  
BRANCH  36  37
HETATM   37  C   UNL     2     -12.886  14.531  71.823  1.00  0.00    -0.415 C  
BRANCH  37  38
HETATM   38  C   UNL     2     -13.268  13.051  71.888  1.00  0.00    -0.527 C  
BRANCH  38  39
HETATM   39  C   UNL     2     -12.605  12.177  70.834  1.00  0.00    -0.340 C  
HETATM   40  C   UNL     2     -12.411  10.693  71.146  1.00  0.00    -0.418 C  
HETATM   41  O   UNL     2     -11.462  10.147  70.517  1.00  0.00    -0.287 OA 
HETATM   42  O   UNL     2     -13.218  10.102  71.935  1.00  0.00    -0.427 OA 
ENDBRANCH  38  39
ENDBRANCH  37  38
ENDBRANCH  36  37
ENDBRANCH  34  35
ENDBRANCH  31  34
ENDBRANCH  24  25
ENDBRANCH  17  18
ENDBRANCH  16  17
ENDBRANCH   6  16
TORSDOF 9
ENDMDL
MODEL       40
REMARK 921   NORMALIZED FREE ENERGY PREDICTED BY IDOCK:   -6.76 KCAL/MOL
REMARK 922        TOTAL FREE ENERGY PREDICTED BY IDOCK:  -12.25 KCAL/MOL
REMARK 923 INTER-LIGAND FREE ENERGY PREDICTED BY IDOCK:   -9.02 KCAL/MOL
REMARK 924 INTRA-LIGAND FREE ENERGY PREDICTED BY IDOCK:   -3.22 KCAL/MOL
REMARK 927      BINDING AFFINITY PREDICTED BY RF-SCORE:    0.00 PKD
ROOT
HETATM    1  O   UNL     1     -13.035  14.907  64.203  1.00  0.00    -0.537 OA 
HETATM    2  C   UNL     1     -11.688  14.445  64.154  1.00  0.00    -0.227 C  
HETATM    3  H   UNL     1     -13.431  14.928  63.340  1.00  0.00     0.000 HD 
HETATM    4  C   UNL     2     -10.548   6.320  66.748  1.00  0.00    -0.335 C  
HETATM    5  C   UNL     1     -11.039  14.411  65.568  1.00  0.00    -0.326 C  
HETATM    6  C   UNL     2     -10.656   7.497  67.706  1.00  0.00    -0.274 C  
HETATM    7  C   UNL     1     -11.914  13.535  66.507  1.00  0.00    -0.413 C  
HETATM    8  N   UNL     1      -9.696  13.773  65.395  1.00  0.00    -0.549 NA 
HETATM    9  C   UNL     1     -10.728  15.775  66.164  1.00  0.00    -0.290 C  
HETATM   10  H   UNL     1      -9.421  17.188  65.818  1.00  0.00     0.000 HD 
HETATM   11  H   UNL     1     -12.602  11.682  66.546  1.00  0.00     0.000 HD 
HETATM   12  H2  UNL     1      -9.115  14.232  64.694  1.00  0.00     0.000 HD 
HETATM   13  O   UNL     1     -12.068  12.217  65.972  1.00  0.00    -0.612 OA 
HETATM   14  O   UNL     1      -9.615  16.336  65.446  1.00  0.00    -0.448 OA 
HETATM   15  H1  UNL     1      -9.271  13.750  66.322  1.00  0.00     0.000 HD 
ENDROOT
BRANCH   6  16
HETATM   16  C   UNL     2      -9.832   8.713  67.280  1.00  0.00    -0.256 C  
BRANCH  16  17
HETATM   17  C   UNL     2     -10.314  10.053  67.844  1.00  0.00    -0.249 C  
BRANCH  17  18
HETATM   18  C   UNL     2     -11.634   9.982  68.646  1.00  0.00     0.078 C  
HETATM   19  C   UNL     2     -11.636  10.489  70.107  1.00  0.00    -0.326 C  
HETATM   20  C   UNL     2     -13.024  10.553  70.760  1.00  0.00    -0.413 C  
HETATM   21  O   UNL     2     -11.132  11.830  70.088  1.00  0.00    -0.449 OA 
HETATM   22  C   UNL     2     -10.719   9.648  70.949  1.00  0.00    -0.402 C  
HETATM   23  H   UNL     2     -11.132  12.141  70.986  1.00  0.00     0.000 HD 
HETATM   24  C   UNL     2     -10.928   8.393  71.382  1.00  0.00    -0.311 C  
BRANCH  24  25
HETATM   25  C   UNL     2      -9.955   7.578  72.204  1.00  0.00    -0.218 C  
HETATM   26  C   UNL     2     -10.544   6.860  73.440  1.00  0.00    -0.344 C  
HETATM   27  C   UNL     2      -9.419   5.937  73.839  1.00  0.00    -0.140 C  
HETATM   28  O   UNL     2     -11.658   6.013  73.175  1.00  0.00    -0.481 OA 
HETATM   29  H   UNL     2     -12.020   5.572  73.934  1.00  0.00     0.000 HD 
HETATM   30  C   UNL     2      -8.931   5.371  72.506  1.00  0.00    -0.133 C  
HETATM   31  C   UNL     2      -9.198   6.457  71.430  1.00  0.00    -0.150 C  
HETATM   32  O   UNL     2      -7.570   5.004  72.666  1.00  0.00    -0.092 OA 
HETATM   33  H   UNL     2      -7.267   4.652  71.837  1.00  0.00     0.000 HD 
BRANCH  31  34
HETATM   34  C   UNL     2      -7.944   6.969  70.686  1.00  0.00    -0.109 C  
BRANCH  34  35
HETATM   35  C   UNL     2      -7.211   8.076  71.409  1.00  0.00    -0.068 C  
HETATM   36  C   UNL     2      -6.953   9.324  70.987  1.00  0.00    -0.090 C  
BRANCH  36  37
HETATM   37  C   UNL     2      -7.334   9.947  69.675  1.00  0.00    -0.115 C  
BRANCH  37  38
HETATM   38  C   UNL     2      -6.782  11.362  69.493  1.00  0.00    -0.119 C  
BRANCH  38  39
HETATM   39  C   UNL     2      -7.444  12.162  68.381  1.00  0.00    -0.114 C  
HETATM   40  C   UNL     2      -6.641  13.289  67.728  1.00  0.00    -0.155 C  
HETATM   41  O   UNL     2      -7.346  14.201  67.213  1.00  0.00    -0.161 OA 
HETATM   42  O   UNL     2      -5.370  13.216  67.686  1.00  0.00    -0.193 OA 
ENDBRANCH  38  39
ENDBRANCH  37  38
ENDBRANCH  36  37
ENDBRANCH  34  35
ENDBRANCH  31  34
ENDBRANCH  24  25
ENDBRANCH  17  18
ENDBRANCH  16  17
ENDBRANCH   6  16
TORSDOF 9
ENDMDL
MODEL       41
REMARK 921   NORMALIZED FREE ENERGY PREDICTED BY IDOCK:   -6.76 KCAL/MOL
REMARK 922        TOTAL FREE ENERGY PREDICTED BY IDOCK:  -12.24 KCAL/MOL
REMARK 923 INTER-LIGAND FREE ENERGY PREDICTED BY IDOCK:  -10.10 KCAL/MOL
REMARK 924 INTRA-LIGAND FREE ENERGY PREDICTED BY IDOCK:   -2.14 KCAL/MOL
REMARK 927      BINDING AFFINITY PREDICTED BY RF-SCORE:    0.00 PKD
ROOT
HETATM    1  O   UNL     1      -7.933  19.226  68.977  1.00  0.00    -0.340 OA 
HETATM    2  C   UNL     1      -8.658  18.649  67.895  1.00  0.00    -0.284 C  
HETATM    3  H   UNL     1      -8.396  19.963  69.357  1.00  0.00     0.000 HD 
HETATM    4  C   UNL     2     -12.690  11.279  69.757  1.00  0.00     0.029 C  
HETATM    5  C   UNL     1      -7.900  17.441  67.272  1.00  0.00    -0.198 C  
HETATM    6  C   UNL     2     -11.213  11.358  69.404  1.00  0.00    -0.333 C  
HETATM    7  C   UNL     1      -7.603  16.399  68.386  1.00  0.00    -0.178 C  
HETATM    8  N   UNL     1      -8.828  16.843  66.261  1.00  0.00    -0.377 NA 
HETATM    9  C   UNL     1      -6.662  17.807  66.468  1.00  0.00    -0.224 C  
HETATM   10  H   UNL     1      -6.315  18.658  64.742  1.00  0.00     0.000 HD 
HETATM   11  H   UNL     1      -8.632  15.345  69.705  1.00  0.00     0.000 HD 
HETATM   12  H2  UNL     1      -9.161  17.514  65.568  1.00  0.00     0.000 HD 
HETATM   13  O   UNL     1      -8.813  15.981  69.024  1.00  0.00    -0.219 OA 
HETATM   14  O   UNL     1      -7.088  18.429  65.244  1.00  0.00    -0.530 OA 
HETATM   15  H1  UNL     1      -8.332  16.051  65.853  1.00  0.00     0.000 HD 
ENDROOT
BRANCH   6  16
HETATM   16  C   UNL     2     -10.916  12.255  68.201  1.00  0.00    -0.269 C  
BRANCH  16  17
HETATM   17  C   UNL     2     -11.984  13.309  67.897  1.00  0.00    -0.349 C  
BRANCH  17  18
HETATM   18  C   UNL     2     -11.659  14.239  66.705  1.00  0.00    -0.407 C  
HETATM   19  C   UNL     2     -12.311  13.936  65.336  1.00  0.00    -0.470 C  
HETATM   20  C   UNL     2     -12.079  15.013  64.266  1.00  0.00    -0.323 C  
HETATM   21  O   UNL     2     -13.726  13.869  65.549  1.00  0.00    -0.469 OA 
HETATM   22  C   UNL     2     -11.843  12.604  64.823  1.00  0.00    -0.434 C  
HETATM   23  H   UNL     2     -14.126  13.682  64.708  1.00  0.00     0.000 HD 
HETATM   24  C   UNL     2     -10.636  12.299  64.318  1.00  0.00    -0.387 C  
BRANCH  24  25
HETATM   25  C   UNL     2     -10.207  10.930  63.842  1.00  0.00    -0.418 C  
HETATM   26  C   UNL     2      -9.417  10.888  62.513  1.00  0.00    -0.241 C  
HETATM   27  C   UNL     2      -8.906   9.468  62.491  1.00  0.00    -0.252 C  
HETATM   28  O   UNL     2      -8.256  11.713  62.472  1.00  0.00    -0.638 OA 
HETATM   29  H   UNL     2      -7.771  11.688  61.656  1.00  0.00     0.000 HD 
HETATM   30  C   UNL     2      -8.438   9.234  63.926  1.00  0.00    -0.190 C  
HETATM   31  C   UNL     2      -9.326  10.119  64.841  1.00  0.00    -0.310 C  
HETATM   32  O   UNL     2      -8.513   7.840  64.181  1.00  0.00    -0.373 OA 
HETATM   33  H   UNL     2      -8.222   7.694  65.074  1.00  0.00     0.000 HD 
BRANCH  31  34
HETATM   34  C   UNL     2     -10.151   9.353  65.899  1.00  0.00    -0.243 C  
BRANCH  34  35
HETATM   35  C   UNL     2      -9.394   9.059  67.174  1.00  0.00    -0.184 C  
HETATM   36  C   UNL     2      -9.635   8.110  68.091  1.00  0.00    -0.162 C  
BRANCH  36  37
HETATM   37  C   UNL     2     -10.731   7.083  68.083  1.00  0.00    -0.242 C  
BRANCH  37  38
HETATM   38  C   UNL     2     -10.253   5.689  67.672  1.00  0.00    -0.243 C  
BRANCH  38  39
HETATM   39  C   UNL     2     -10.629   5.282  66.255  1.00  0.00    -0.308 C  
HETATM   40  C   UNL     2      -9.865   4.124  65.612  1.00  0.00    -0.205 C  
HETATM   41  O   UNL     2      -9.844   4.151  64.349  1.00  0.00    -0.171 OA 
HETATM   42  O   UNL     2      -9.371   3.207  66.346  1.00  0.00    -0.157 OA 
ENDBRANCH  38  39
ENDBRANCH  37  38
ENDBRANCH  36  37
ENDBRANCH  34  35
ENDBRANCH  31  34
ENDBRANCH  24  25
ENDBRANCH  17  18
ENDBRANCH  16  17
ENDBRANCH   6  16
TORSDOF 9
ENDMDL
MODEL       42
REMARK 921   NORMALIZED FREE ENERGY PREDICTED BY IDOCK:   -6.75 KCAL/MOL
REMARK 922        TOTAL FREE ENERGY PREDICTED BY IDOCK:  -12.23 KCAL/MOL
REMARK 923 INTER-LIGAND FREE ENERGY PREDICTED BY IDOCK:   -9.92 KCAL/MOL
REMARK 924 INTRA-LIGAND FREE ENERGY PREDICTED BY IDOCK:   -2.31 KCAL/MOL
REMARK 927      BINDING AFFINITY PREDICTED BY RF-SCORE:    0.00 PKD
ROOT
HETATM    1  O   UNL     1     -12.507   8.912  72.203  1.00  0.00    -0.358 OA 
HETATM    2  C   UNL     1     -11.142   8.507  72.179  1.00  0.00    -0.366 C  
HETATM    3  H   UNL     1     -12.765   9.229  73.061  1.00  0.00     0.000 HD 
HETATM    4  C   UNL     2      -5.776  14.073  68.401  1.00  0.00    -0.104 C  
HETATM    5  C   UNL     1     -10.720   7.988  70.773  1.00  0.00    -0.223 C  
HETATM    6  C   UNL     2      -6.625  13.074  67.630  1.00  0.00    -0.160 C  
HETATM    7  C   UNL     1     -11.012   9.089  69.717  1.00  0.00    -0.166 C  
HETATM    8  N   UNL     1      -9.245   7.741  70.846  1.00  0.00    -0.152 NA 
HETATM    9  C   UNL     1     -11.303   6.638  70.387  1.00  0.00    -0.365 C  
HETATM   10  H   UNL     1     -11.021   4.782  70.936  1.00  0.00     0.000 HD 
HETATM   11  H   UNL     1     -10.510  10.976  69.404  1.00  0.00     0.000 HD 
HETATM   12  H2  UNL     1      -8.974   7.117  71.607  1.00  0.00     0.000 HD 
HETATM   13  O   UNL     1     -10.332  10.303  70.050  1.00  0.00    -0.258 OA 
HETATM   14  O   UNL     1     -10.657   5.626  71.177  1.00  0.00    -0.233 OA 
HETATM   15  H1  UNL     1      -8.968   7.402  69.925  1.00  0.00     0.000 HD 
ENDROOT
BRANCH   6  16
HETATM   16  C   UNL     2      -6.615  11.666  68.229  1.00  0.00    -0.059 C  
BRANCH  16  17
HETATM   17  C   UNL     2      -6.034  10.578  67.322  1.00  0.00    -0.053 C  
BRANCH  17  18
HETATM   18  C   UNL     2      -7.000   9.413  67.004  1.00  0.00    -0.085 C  
HETATM   19  C   UNL     2      -7.540   9.277  65.562  1.00  0.00    -0.091 C  
HETATM   20  C   UNL     2      -8.338   7.993  65.296  1.00  0.00    -0.151 C  
HETATM   21  O   UNL     2      -6.405   9.241  64.688  1.00  0.00    -0.073 OA 
HETATM   22  C   UNL     2      -8.375  10.475  65.206  1.00  0.00    -0.155 C  
HETATM   23  H   UNL     2      -6.737   9.158  63.802  1.00  0.00     0.000 HD 
HETATM   24  C   UNL     2      -9.611  10.769  65.644  1.00  0.00    -0.263 C  
BRANCH  24  25
HETATM   25  C   UNL     2     -10.397  12.008  65.275  1.00  0.00    -0.311 C  
HETATM   26  C   UNL     2     -10.703  12.197  63.772  1.00  0.00    -0.437 C  
HETATM   27  C   UNL     2     -11.714  13.317  63.791  1.00  0.00    -0.475 C  
HETATM   28  O   UNL     2     -11.359  11.099  63.144  1.00  0.00    -0.808 OA 
HETATM   29  H   UNL     2     -11.547  11.215  62.220  1.00  0.00     0.000 HD 
HETATM   30  C   UNL     2     -12.639  12.944  64.948  1.00  0.00    -0.458 C  
HETATM   31  C   UNL     2     -11.783  12.153  65.973  1.00  0.00    -0.388 C  
HETATM   32  O   UNL     2     -13.216  14.142  65.443  1.00  0.00    -0.741 OA 
HETATM   33  H   UNL     2     -13.791  13.910  66.162  1.00  0.00     0.000 HD 
BRANCH  31  34
HETATM   34  C   UNL     2     -11.694  12.783  67.382  1.00  0.00    -0.425 C  
BRANCH  34  35
HETATM   35  C   UNL     2     -10.357  13.419  67.686  1.00  0.00    -0.238 C  
HETATM   36  C   UNL     2      -9.982  14.698  67.524  1.00  0.00    -0.223 C  
BRANCH  36  37
HETATM   37  C   UNL     2     -10.807  15.836  66.995  1.00  0.00    -0.273 C  
BRANCH  37  38
HETATM   38  C   UNL     2      -9.967  16.964  66.393  1.00  0.00    -0.321 C  
BRANCH  38  39
HETATM   39  C   UNL     2     -10.412  18.365  66.786  1.00  0.00    -0.415 C  
HETATM   40  C   UNL     2      -9.701  19.045  67.956  1.00  0.00    -0.340 C  
HETATM   41  O   UNL     2     -10.391  19.924  68.546  1.00  0.00    -0.448 OA 
HETATM   42  O   UNL     2      -8.491  18.748  68.219  1.00  0.00    -0.305 OA 
ENDBRANCH  38  39
ENDBRANCH  37  38
ENDBRANCH  36  37
ENDBRANCH  34  35
ENDBRANCH  31  34
ENDBRANCH  24  25
ENDBRANCH  17  18
ENDBRANCH  16  17
ENDBRANCH   6  16
TORSDOF 9
ENDMDL
MODEL       43
REMARK 921   NORMALIZED FREE ENERGY PREDICTED BY IDOCK:   -6.75 KCAL/MOL
REMARK 922        TOTAL FREE ENERGY PREDICTED BY IDOCK:  -12.23 KCAL/MOL
REMARK 923 INTER-LIGAND FREE ENERGY PREDICTED BY IDOCK:   -9.76 KCAL/MOL
REMARK 924 INTRA-LIGAND FREE ENERGY PREDICTED BY IDOCK:   -2.47 KCAL/MOL
REMARK 927      BINDING AFFINITY PREDICTED BY RF-SCORE:    0.00 PKD
ROOT
HETATM    1  O   UNL     1     -10.587   4.028  65.542  1.00  0.00    -0.474 OA 
HETATM    2  C   UNL     1      -9.831   4.269  66.724  1.00  0.00    -0.205 C  
HETATM    3  H   UNL     1     -11.000   3.172  65.556  1.00  0.00     0.000 HD 
HETATM    4  C   UNL     2     -13.582   9.516  72.420  1.00  0.00    -0.459 C  
HETATM    5  C   UNL     1      -9.155   5.671  66.700  1.00  0.00    -0.129 C  
HETATM    6  C   UNL     2     -12.813  10.013  71.205  1.00  0.00    -0.480 C  
HETATM    7  C   UNL     1     -10.245   6.757  66.484  1.00  0.00    -0.054 C  
HETATM    8  N   UNL     1      -8.526   5.854  68.046  1.00  0.00    -0.111 NA 
HETATM    9  C   UNL     1      -7.994   5.807  65.727  1.00  0.00    -0.110 C  
HETATM   10  H   UNL     1      -6.157   5.142  65.638  1.00  0.00     0.000 HD 
HETATM   11  H   UNL     1     -11.913   7.341  67.370  1.00  0.00     0.000 HD 
HETATM   12  H2  UNL     1      -7.888   5.100  68.302  1.00  0.00     0.000 HD 
HETATM   13  O   UNL     1     -11.247   6.678  67.503  1.00  0.00    -0.319 OA 
HETATM   14  O   UNL     1      -6.883   5.057  66.246  1.00  0.00    -0.058 OA 
HETATM   15  H1  UNL     1      -8.084   6.773  68.031  1.00  0.00     0.000 HD 
ENDROOT
BRANCH   6  16
HETATM   16  C   UNL     2     -11.483   9.291  70.981  1.00  0.00    -0.387 C  
BRANCH  16  17
HETATM   17  C   UNL     2     -10.560   9.937  69.944  1.00  0.00    -0.312 C  
BRANCH  17  18
HETATM   18  C   UNL     2      -9.332   9.084  69.547  1.00  0.00    -0.160 C  
HETATM   19  C   UNL     2      -8.055   9.812  69.067  1.00  0.00    -0.101 C  
HETATM   20  C   UNL     2      -6.835   8.900  68.874  1.00  0.00    -0.061 C  
HETATM   21  O   UNL     2      -7.701  10.757  70.084  1.00  0.00    -0.399 OA 
HETATM   22  C   UNL     2      -8.332  10.562  67.795  1.00  0.00    -0.111 C  
HETATM   23  H   UNL     2      -6.917  11.204  69.789  1.00  0.00     0.000 HD 
HETATM   24  C   UNL     2      -8.506  10.051  66.565  1.00  0.00    -0.128 C  
BRANCH  24  25
HETATM   25  C   UNL     2      -8.813  10.853  65.320  1.00  0.00    -0.179 C  
HETATM   26  C   UNL     2      -8.420  10.198  63.976  1.00  0.00    -0.184 C  
HETATM   27  C   UNL     2      -9.112  11.089  62.973  1.00  0.00    -0.300 C  
HETATM   28  O   UNL     2      -8.950   8.894  63.759  1.00  0.00    -0.429 OA 
HETATM   29  H   UNL     2      -8.708   8.492  62.933  1.00  0.00     0.000 HD 
HETATM   30  C   UNL     2     -10.489  11.322  63.593  1.00  0.00    -0.405 C  
HETATM   31  C   UNL     2     -10.309  11.251  65.133  1.00  0.00    -0.353 C  
HETATM   32  O   UNL     2     -10.980  12.559  63.101  1.00  0.00    -0.665 OA 
HETATM   33  H   UNL     2     -11.836  12.704  63.487  1.00  0.00     0.000 HD 
BRANCH  31  34
HETATM   34  C   UNL     2     -10.699  12.534  65.902  1.00  0.00    -0.294 C  
BRANCH  34  35
HETATM   35  C   UNL     2     -11.651  12.295  67.052  1.00  0.00    -0.418 C  
HETATM   36  C   UNL     2     -11.764  12.979  68.201  1.00  0.00    -0.391 C  
BRANCH  36  37
HETATM   37  C   UNL     2     -10.966  14.173  68.641  1.00  0.00    -0.275 C  
BRANCH  37  38
HETATM   38  C   UNL     2     -11.583  15.505  68.212  1.00  0.00    -0.344 C  
BRANCH  38  39
HETATM   39  C   UNL     2     -10.586  16.524  67.680  1.00  0.00    -0.321 C  
HETATM   40  C   UNL     2     -10.088  16.363  66.243  1.00  0.00    -0.331 C  
HETATM   41  O   UNL     2      -8.956  16.876  66.023  1.00  0.00    -0.458 OA 
HETATM   42  O   UNL     2     -10.835  15.803  65.375  1.00  0.00    -0.360 OA 
ENDBRANCH  38  39
ENDBRANCH  37  38
ENDBRANCH  36  37
ENDBRANCH  34  35
ENDBRANCH  31  34
ENDBRANCH  24  25
ENDBRANCH  17  18
ENDBRANCH  16  17
ENDBRANCH   6  16
TORSDOF 9
ENDMDL
MODEL       44
REMARK 921   NORMALIZED FREE ENERGY PREDICTED BY IDOCK:   -6.75 KCAL/MOL
REMARK 922        TOTAL FREE ENERGY PREDICTED BY IDOCK:  -12.22 KCAL/MOL
REMARK 923 INTER-LIGAND FREE ENERGY PREDICTED BY IDOCK:  -10.63 KCAL/MOL
REMARK 924 INTRA-LIGAND FREE ENERGY PREDICTED BY IDOCK:   -1.59 KCAL/MOL
REMARK 927      BINDING AFFINITY PREDICTED BY RF-SCORE:    0.00 PKD
ROOT
HETATM    1  O   UNL     1      -9.974   3.508  66.930  1.00  0.00    -0.356 OA 
HETATM    2  C   UNL     1      -9.145   4.492  67.542  1.00  0.00    -0.121 C  
HETATM    3  H   UNL     1      -9.925   2.675  67.384  1.00  0.00     0.000 HD 
HETATM    4  C   UNL     2     -13.332  10.291  72.326  1.00  0.00    -0.296 C  
HETATM    5  C   UNL     1      -9.225   5.857  66.798  1.00  0.00    -0.133 C  
HETATM    6  C   UNL     2     -13.212  10.385  70.812  1.00  0.00    -0.266 C  
HETATM    7  C   UNL     1     -10.708   6.314  66.733  1.00  0.00    -0.293 C  
HETATM    8  N   UNL     1      -8.437   6.827  67.621  1.00  0.00    -0.122 NA 
HETATM    9  C   UNL     1      -8.545   5.886  65.438  1.00  0.00    -0.137 C  
HETATM   10  H   UNL     1      -6.697   5.872  64.796  1.00  0.00     0.000 HD 
HETATM   11  H   UNL     1     -12.174   6.683  68.007  1.00  0.00     0.000 HD 
HETATM   12  H2  UNL     1      -7.481   6.521  67.805  1.00  0.00     0.000 HD 
HETATM   13  O   UNL     1     -11.268   6.404  68.047  1.00  0.00    -0.311 OA 
HETATM   14  O   UNL     1      -7.122   5.853  65.646  1.00  0.00    -0.066 OA 
HETATM   15  H1  UNL     1      -8.489   7.722  67.134  1.00  0.00     0.000 HD 
ENDROOT
BRANCH   6  16
HETATM   16  C   UNL     2     -11.803  10.101  70.288  1.00  0.00    -0.342 C  
BRANCH  16  17
HETATM   17  C   UNL     2     -11.427  10.847  69.004  1.00  0.00    -0.371 C  
BRANCH  17  18
HETATM   18  C   UNL     2     -10.297  10.188  68.179  1.00  0.00    -0.217 C  
HETATM   19  C   UNL     2      -9.144  11.082  67.665  1.00  0.00    -0.145 C  
HETATM   20  C   UNL     2      -7.981  10.315  67.019  1.00  0.00    -0.111 C  
HETATM   21  O   UNL     2      -8.602  11.765  68.801  1.00  0.00    -0.321 OA 
HETATM   22  C   UNL     2      -9.672  12.106  66.701  1.00  0.00    -0.228 C  
HETATM   23  H   UNL     2      -7.895  12.314  68.486  1.00  0.00     0.000 HD 
HETATM   24  C   UNL     2     -10.083  11.905  65.438  1.00  0.00    -0.285 C  
BRANCH  24  25
HETATM   25  C   UNL     2     -10.635  12.971  64.518  1.00  0.00    -0.413 C  
HETATM   26  C   UNL     2     -11.963  12.630  63.803  1.00  0.00    -0.510 C  
HETATM   27  C   UNL     2     -12.368  13.966  63.230  1.00  0.00     0.225 C  
HETATM   28  O   UNL     2     -13.032  12.243  64.662  1.00  0.00    -0.741 OA 
HETATM   29  H   UNL     2     -13.848  12.033  64.223  1.00  0.00     0.000 HD 
HETATM   30  C   UNL     2     -12.082  14.945  64.367  1.00  0.00    -0.401 C  
HETATM   31  C   UNL     2     -10.898  14.357  65.181  1.00  0.00    -0.397 C  
HETATM   32  O   UNL     2     -11.840  16.218  63.789  1.00  0.00    -1.445 OA 
HETATM   33  H   UNL     2     -11.662  16.827  64.497  1.00  0.00     0.000 HD 
BRANCH  31  34
HETATM   34  C   UNL     2      -9.638  15.249  65.249  1.00  0.00    -0.023 C  
BRANCH  34  35
HETATM   35  C   UNL     2      -9.834  16.531  66.026  1.00  0.00    -0.348 C  
HETATM   36  C   UNL     2     -10.102  16.686  67.332  1.00  0.00    -0.274 C  
BRANCH  36  37
HETATM   37  C   UNL     2     -10.276  15.612  68.367  1.00  0.00    -0.222 C  
BRANCH  37  38
HETATM   38  C   UNL     2     -11.546  15.777  69.204  1.00  0.00    -0.399 C  
BRANCH  38  39
HETATM   39  C   UNL     2     -11.842  14.617  70.143  1.00  0.00    -0.365 C  
HETATM   40  C   UNL     2     -12.976  14.781  71.155  1.00  0.00    -0.359 C  
HETATM   41  O   UNL     2     -12.863  14.061  72.186  1.00  0.00    -0.340 OA 
HETATM   42  O   UNL     2     -13.957  15.548  70.886  1.00  0.00    -0.489 OA 
ENDBRANCH  38  39
ENDBRANCH  37  38
ENDBRANCH  36  37
ENDBRANCH  34  35
ENDBRANCH  31  34
ENDBRANCH  24  25
ENDBRANCH  17  18
ENDBRANCH  16  17
ENDBRANCH   6  16
TORSDOF 9
ENDMDL
MODEL       45
REMARK 921   NORMALIZED FREE ENERGY PREDICTED BY IDOCK:   -6.71 KCAL/MOL
REMARK 922        TOTAL FREE ENERGY PREDICTED BY IDOCK:  -12.17 KCAL/MOL
REMARK 923 INTER-LIGAND FREE ENERGY PREDICTED BY IDOCK:  -10.30 KCAL/MOL
REMARK 924 INTRA-LIGAND FREE ENERGY PREDICTED BY IDOCK:   -1.87 KCAL/MOL
REMARK 927      BINDING AFFINITY PREDICTED BY RF-SCORE:    0.00 PKD
ROOT
HETATM    1  O   UNL     1      -7.337   1.686  72.397  1.00  0.00    -0.029 OA 
HETATM    2  C   UNL     1      -8.510   2.441  72.110  1.00  0.00    -0.061 C  
HETATM    3  H   UNL     1      -7.216   0.975  71.778  1.00  0.00     0.000 HD 
HETATM    4  C   UNL     2      -7.095  10.024  68.297  1.00  0.00    -0.072 C  
HETATM    5  C   UNL     1      -8.708   3.606  73.124  1.00  0.00    -0.089 C  
HETATM    6  C   UNL     2      -6.975   9.807  69.798  1.00  0.00    -0.087 C  
HETATM    7  C   UNL     1      -7.435   4.498  73.127  1.00  0.00    -0.085 C  
HETATM    8  N   UNL     1      -9.875   4.399  72.625  1.00  0.00    -0.148 NA 
HETATM    9  C   UNL     1      -9.122   3.175  74.522  1.00  0.00    -0.081 C  
HETATM   10  H   UNL     1     -10.745   2.454  75.341  1.00  0.00     0.000 HD 
HETATM   11  H   UNL     1      -6.384   5.537  71.814  1.00  0.00     0.000 HD 
HETATM   12  H2  UNL     1     -10.715   3.839  72.482  1.00  0.00     0.000 HD 
HETATM   13  O   UNL     1      -7.161   4.992  71.812  1.00  0.00    -0.061 OA 
HETATM   14  O   UNL     1     -10.486   2.723  74.467  1.00  0.00    -0.152 OA 
HETATM   15  H1  UNL     1     -10.004   5.163  73.289  1.00  0.00     0.000 HD 
ENDROOT
BRANCH   6  16
HETATM   16  C   UNL     2      -8.127   8.998  70.396  1.00  0.00    -0.152 C  
BRANCH  16  17
HETATM   17  C   UNL     2      -9.484   9.708  70.405  1.00  0.00    -0.280 C  
BRANCH  17  18
HETATM   18  C   UNL     2     -10.410   9.324  71.582  1.00  0.00    -0.300 C  
HETATM   19  C   UNL     2     -11.929   9.206  71.316  1.00  0.00    -0.325 C  
HETATM   20  C   UNL     2     -12.742   8.642  72.490  1.00  0.00    -0.357 C  
HETATM   21  O   UNL     2     -12.095   8.291  70.227  1.00  0.00    -0.434 OA 
HETATM   22  C   UNL     2     -12.489  10.539  70.906  1.00  0.00    -0.488 C  
HETATM   23  H   UNL     2     -13.028   8.218  70.063  1.00  0.00     0.000 HD 
HETATM   24  C   UNL     2     -12.707  11.610  71.688  1.00  0.00    -0.375 C  
BRANCH  24  25
HETATM   25  C   UNL     2     -13.246  12.941  71.217  1.00  0.00    -0.160 C  
HETATM   26  C   UNL     2     -13.891  13.836  72.301  1.00  0.00    -0.580 C  
HETATM   27  C   UNL     2     -14.041  15.153  71.579  1.00  0.00    -0.636 C  
HETATM   28  O   UNL     2     -13.067  14.110  73.430  1.00  0.00    -0.521 OA 
HETATM   29  H   UNL     2     -13.463  14.659  74.096  1.00  0.00     0.000 HD 
HETATM   30  C   UNL     2     -12.716  15.304  70.833  1.00  0.00    -0.435 C  
HETATM   31  C   UNL     2     -12.212  13.872  70.513  1.00  0.00    -0.443 C  
HETATM   32  O   UNL     2     -12.951  16.126  69.700  1.00  0.00    -0.436 OA 
HETATM   33  H   UNL     2     -12.127  16.220  69.236  1.00  0.00     0.000 HD 
BRANCH  31  34
HETATM   34  C   UNL     2     -12.031  13.556  69.011  1.00  0.00    -0.376 C  
BRANCH  34  35
HETATM   35  C   UNL     2     -10.615  13.733  68.512  1.00  0.00    -0.261 C  
HETATM   36  C   UNL     2      -9.894  12.914  67.731  1.00  0.00    -0.221 C  
BRANCH  36  37
HETATM   37  C   UNL     2     -10.317  11.598  67.144  1.00  0.00    -0.247 C  
BRANCH  37  38
HETATM   38  C   UNL     2     -11.454  11.725  66.128  1.00  0.00    -0.288 C  
BRANCH  38  39
HETATM   39  C   UNL     2     -11.268  12.834  65.103  1.00  0.00    -0.327 C  
HETATM   40  C   UNL     2     -12.465  13.733  64.789  1.00  0.00    -0.349 C  
HETATM   41  O   UNL     2     -12.432  14.265  63.645  1.00  0.00    -0.816 OA 
HETATM   42  O   UNL     2     -13.353  13.936  65.680  1.00  0.00    -0.620 OA 
ENDBRANCH  38  39
ENDBRANCH  37  38
ENDBRANCH  36  37
ENDBRANCH  34  35
ENDBRANCH  31  34
ENDBRANCH  24  25
ENDBRANCH  17  18
ENDBRANCH  16  17
ENDBRANCH   6  16
TORSDOF 9
ENDMDL
MODEL       46
REMARK 921   NORMALIZED FREE ENERGY PREDICTED BY IDOCK:   -6.71 KCAL/MOL
REMARK 922        TOTAL FREE ENERGY PREDICTED BY IDOCK:  -12.17 KCAL/MOL
REMARK 923 INTER-LIGAND FREE ENERGY PREDICTED BY IDOCK:  -10.37 KCAL/MOL
REMARK 924 INTRA-LIGAND FREE ENERGY PREDICTED BY IDOCK:   -1.80 KCAL/MOL
REMARK 927      BINDING AFFINITY PREDICTED BY RF-SCORE:    0.00 PKD
ROOT
HETATM    1  O   UNL     1     -14.121   8.943  73.332  1.00  0.00    -1.256 OA 
HETATM    2  C   UNL     1     -14.254   9.423  71.998  1.00  0.00    -0.097 C  
HETATM    3  H   UNL     1     -14.910   8.504  73.629  1.00  0.00     0.000 HD 
HETATM    4  C   UNL     2     -10.246   4.694  66.029  1.00  0.00    -0.306 C  
HETATM    5  C   UNL     1     -12.962  10.141  71.511  1.00  0.00    -0.444 C  
HETATM    6  C   UNL     2      -9.541   5.736  66.884  1.00  0.00    -0.153 C  
HETATM    7  C   UNL     1     -11.757   9.170  71.656  1.00  0.00    -0.378 C  
HETATM    8  N   UNL     1     -13.179  10.457  70.065  1.00  0.00    -0.452 NA 
HETATM    9  C   UNL     1     -12.701  11.495  72.152  1.00  0.00     0.213 C  
HETATM   10  H   UNL     1     -13.497  13.278  72.030  1.00  0.00     0.000 HD 
HETATM   11  H   UNL     1     -11.253   7.370  71.013  1.00  0.00     0.000 HD 
HETATM   12  H2  UNL     1     -14.030  10.992  69.889  1.00  0.00     0.000 HD 
HETATM   13  O   UNL     1     -11.989   7.963  70.924  1.00  0.00    -0.279 OA 
HETATM   14  O   UNL     1     -13.659  12.431  71.630  1.00  0.00    -0.157 OA 
HETATM   15  H1  UNL     1     -12.332  10.927  69.746  1.00  0.00     0.000 HD 
ENDROOT
BRANCH   6  16
HETATM   16  C   UNL     2     -10.309   7.053  67.008  1.00  0.00    -0.360 C  
BRANCH  16  17
HETATM   17  C   UNL     2     -10.251   7.710  68.390  1.00  0.00    -0.226 C  
BRANCH  17  18
HETATM   18  C   UNL     2      -8.910   8.405  68.723  1.00  0.00    -0.140 C  
HETATM   19  C   UNL     2      -8.894   9.944  68.869  1.00  0.00    -0.145 C  
HETATM   20  C   UNL     2      -7.567  10.523  69.380  1.00  0.00    -0.145 C  
HETATM   21  O   UNL     2      -9.890  10.285  69.840  1.00  0.00    -0.362 OA 
HETATM   22  C   UNL     2      -9.260  10.592  67.564  1.00  0.00    -0.151 C  
HETATM   23  H   UNL     2      -9.880  11.230  69.930  1.00  0.00     0.000 HD 
HETATM   24  C   UNL     2      -8.504  10.687  66.457  1.00  0.00    -0.144 C  
BRANCH  24  25
HETATM   25  C   UNL     2      -8.935  11.326  65.156  1.00  0.00    -0.047 C  
HETATM   26  C   UNL     2      -8.692  10.493  63.876  1.00  0.00    -0.171 C  
HETATM   27  C   UNL     2      -9.479  11.261  62.843  1.00  0.00    -0.385 C  
HETATM   28  O   UNL     2      -9.253   9.184  63.889  1.00  0.00    -0.408 OA 
HETATM   29  H   UNL     2      -9.104   8.672  63.103  1.00  0.00     0.000 HD 
HETATM   30  C   UNL     2     -10.780  11.604  63.566  1.00  0.00    -0.428 C  
HETATM   31  C   UNL     2     -10.439  11.731  65.074  1.00  0.00    -0.332 C  
HETATM   32  O   UNL     2     -11.309  12.778  62.968  1.00  0.00    -0.746 OA 
HETATM   33  H   UNL     2     -12.118  12.991  63.419  1.00  0.00     0.000 HD 
BRANCH  31  34
HETATM   34  C   UNL     2     -10.733  13.111  65.704  1.00  0.00    -0.294 C  
BRANCH  34  35
HETATM   35  C   UNL     2     -11.776  13.077  66.798  1.00  0.00    -0.440 C  
HETATM   36  C   UNL     2     -11.678  13.519  68.061  1.00  0.00    -0.394 C  
BRANCH  36  37
HETATM   37  C   UNL     2     -10.495  14.172  68.717  1.00  0.00    -0.249 C  
BRANCH  37  38
HETATM   38  C   UNL     2     -10.597  15.697  68.772  1.00  0.00    -0.238 C  
BRANCH  38  39
HETATM   39  C   UNL     2     -10.858  16.365  67.430  1.00  0.00    -0.219 C  
HETATM   40  C   UNL     2      -9.654  16.714  66.554  1.00  0.00    -0.273 C  
HETATM   41  O   UNL     2      -9.855  17.665  65.747  1.00  0.00    -0.539 OA 
HETATM   42  O   UNL     2      -8.589  16.019  66.636  1.00  0.00    -0.223 OA 
ENDBRANCH  38  39
ENDBRANCH  37  38
ENDBRANCH  36  37
ENDBRANCH  34  35
ENDBRANCH  31  34
ENDBRANCH  24  25
ENDBRANCH  17  18
ENDBRANCH  16  17
ENDBRANCH   6  16
TORSDOF 9
ENDMDL
MODEL       47
REMARK 921   NORMALIZED FREE ENERGY PREDICTED BY IDOCK:   -6.70 KCAL/MOL
REMARK 922        TOTAL FREE ENERGY PREDICTED BY IDOCK:  -12.15 KCAL/MOL
REMARK 923 INTER-LIGAND FREE ENERGY PREDICTED BY IDOCK:  -10.17 KCAL/MOL
REMARK 924 INTRA-LIGAND FREE ENERGY PREDICTED BY IDOCK:   -1.98 KCAL/MOL
REMARK 927      BINDING AFFINITY PREDICTED BY RF-SCORE:    0.00 PKD
ROOT
HETATM    1  O   UNL     1      -5.289   8.524  65.298  1.00  0.00    -0.035 OA 
HETATM    2  C   UNL     1      -6.416   8.604  64.432  1.00  0.00    -0.067 C  
HETATM    3  H   UNL     1      -4.474   8.665  64.829  1.00  0.00     0.000 HD 
HETATM    4  C   UNL     2     -10.886  15.938  64.970  1.00  0.00    -0.444 C  
HETATM    5  C   UNL     1      -7.751   8.374  65.199  1.00  0.00    -0.097 C  
HETATM    6  C   UNL     2     -11.061  14.778  65.938  1.00  0.00    -0.340 C  
HETATM    7  C   UNL     1      -7.848   9.395  66.366  1.00  0.00    -0.100 C  
HETATM    8  N   UNL     1      -8.848   8.632  64.215  1.00  0.00    -0.415 NA 
HETATM    9  C   UNL     1      -7.989   6.943  65.655  1.00  0.00    -0.120 C  
HETATM   10  H   UNL     1      -8.434   5.251  64.779  1.00  0.00     0.000 HD 
HETATM   11  H   UNL     1      -7.814  11.360  66.587  1.00  0.00     0.000 HD 
HETATM   12  H2  UNL     1      -8.769   8.075  63.363  1.00  0.00     0.000 HD 
HETATM   13  O   UNL     1      -7.754  10.736  65.874  1.00  0.00    -0.154 OA 
HETATM   14  O   UNL     1      -8.285   6.146  64.495  1.00  0.00    -0.130 OA 
HETATM   15  H1  UNL     1      -9.723   8.481  64.718  1.00  0.00     0.000 HD 
ENDROOT
BRANCH   6  16
HETATM   16  C   UNL     2     -11.137  13.412  65.255  1.00  0.00    -0.305 C  
BRANCH  16  17
HETATM   17  C   UNL     2     -11.552  12.253  66.166  1.00  0.00    -0.450 C  
BRANCH  17  18
HETATM   18  C   UNL     2     -10.498  11.848  67.223  1.00  0.00    -0.248 C  
HETATM   19  C   UNL     2     -10.965  11.046  68.459  1.00  0.00    -0.228 C  
HETATM   20  C   UNL     2      -9.828  10.532  69.354  1.00  0.00    -0.205 C  
HETATM   21  O   UNL     2     -11.658   9.891  67.975  1.00  0.00    -0.602 OA 
HETATM   22  C   UNL     2     -11.921  11.866  69.278  1.00  0.00    -0.342 C  
HETATM   23  H   UNL     2     -11.946   9.398  68.734  1.00  0.00     0.000 HD 
HETATM   24  C   UNL     2     -11.632  12.916  70.065  1.00  0.00    -0.189 C  
BRANCH  24  25
HETATM   25  C   UNL     2     -12.642  13.727  70.846  1.00  0.00    -0.428 C  
HETATM   26  C   UNL     2     -13.753  12.923  71.561  1.00  0.00     0.272 C  
HETATM   27  C   UNL     2     -14.377  13.968  72.454  1.00  0.00    -0.398 C  
HETATM   28  O   UNL     2     -13.291  11.899  72.437  1.00  0.00    -0.594 OA 
HETATM   29  H   UNL     2     -13.973  11.405  72.877  1.00  0.00     0.000 HD 
HETATM   30  C   UNL     2     -13.174  14.716  73.026  1.00  0.00    -0.485 C  
HETATM   31  C   UNL     2     -12.048  14.642  71.961  1.00  0.00    -0.346 C  
HETATM   32  O   UNL     2     -13.601  16.027  73.361  1.00  0.00    -0.723 OA 
HETATM   33  H   UNL     2     -12.852  16.492  73.717  1.00  0.00     0.000 HD 
BRANCH  31  34
HETATM   34  C   UNL     2     -11.552  16.006  71.430  1.00  0.00    -0.520 C  
BRANCH  34  35
HETATM   35  C   UNL     2     -11.750  16.195  69.943  1.00  0.00    -0.191 C  
HETATM   36  C   UNL     2     -10.821  16.294  68.981  1.00  0.00    -0.315 C  
BRANCH  36  37
HETATM   37  C   UNL     2      -9.328  16.240  69.137  1.00  0.00    -0.236 C  
BRANCH  37  38
HETATM   38  C   UNL     2      -8.604  17.397  68.446  1.00  0.00    -0.270 C  
BRANCH  38  39
HETATM   39  C   UNL     2      -9.513  18.352  67.688  1.00  0.00    -0.281 C  
HETATM   40  C   UNL     2      -8.992  18.963  66.386  1.00  0.00    -0.310 C  
HETATM   41  O   UNL     2      -9.522  20.068  66.080  1.00  0.00    -0.396 OA 
HETATM   42  O   UNL     2      -8.141  18.325  65.685  1.00  0.00    -0.477 OA 
ENDBRANCH  38  39
ENDBRANCH  37  38
ENDBRANCH  36  37
ENDBRANCH  34  35
ENDBRANCH  31  34
ENDBRANCH  24  25
ENDBRANCH  17  18
ENDBRANCH  16  17
ENDBRANCH   6  16
TORSDOF 9
ENDMDL
MODEL       48
REMARK 921   NORMALIZED FREE ENERGY PREDICTED BY IDOCK:   -6.70 KCAL/MOL
REMARK 922        TOTAL FREE ENERGY PREDICTED BY IDOCK:  -12.15 KCAL/MOL
REMARK 923 INTER-LIGAND FREE ENERGY PREDICTED BY IDOCK:   -9.02 KCAL/MOL
REMARK 924 INTRA-LIGAND FREE ENERGY PREDICTED BY IDOCK:   -3.12 KCAL/MOL
REMARK 927      BINDING AFFINITY PREDICTED BY RF-SCORE:    0.00 PKD
ROOT
HETATM    1  O   UNL     1     -10.859  15.974  67.552  1.00  0.00    -0.317 OA 
HETATM    2  C   UNL     1     -11.687  14.835  67.768  1.00  0.00    -0.343 C  
HETATM    3  H   UNL     1     -11.113  16.704  68.105  1.00  0.00     0.000 HD 
HETATM    4  C   UNL     2      -8.100   8.592  72.481  1.00  0.00    -0.122 C  
HETATM    5  C   UNL     1     -11.270  13.640  66.862  1.00  0.00    -0.312 C  
HETATM    6  C   UNL     2      -7.844   8.769  70.992  1.00  0.00    -0.145 C  
HETATM    7  C   UNL     1      -9.770  13.316  67.107  1.00  0.00    -0.236 C  
HETATM    8  N   UNL     1     -12.110  12.478  67.292  1.00  0.00    -0.480 NA 
HETATM    9  C   UNL     1     -11.598  13.809  65.387  1.00  0.00    -0.320 C  
HETATM   10  H   UNL     1     -13.227  13.801  64.305  1.00  0.00     0.000 HD 
HETATM   11  H   UNL     1      -8.617  12.832  68.638  1.00  0.00     0.000 HD 
HETATM   12  H2  UNL     1     -13.112  12.672  67.272  1.00  0.00     0.000 HD 
HETATM   13  O   UNL     1      -9.533  13.030  68.489  1.00  0.00    -0.190 OA 
HETATM   14  O   UNL     1     -13.022  13.695  65.227  1.00  0.00    -0.719 OA 
HETATM   15  H1  UNL     1     -11.837  11.695  66.699  1.00  0.00     0.000 HD 
ENDROOT
BRANCH   6  16
HETATM   16  C   UNL     2      -9.111   9.036  70.177  1.00  0.00    -0.206 C  
BRANCH  16  17
HETATM   17  C   UNL     2     -10.333   9.459  70.997  1.00  0.00    -0.382 C  
BRANCH  17  18
HETATM   18  C   UNL     2     -11.615   8.640  70.721  1.00  0.00    -0.273 C  
HETATM   19  C   UNL     2     -12.223   7.812  71.876  1.00  0.00    -0.306 C  
HETATM   20  C   UNL     2     -13.589   7.185  71.563  1.00  0.00    -0.408 C  
HETATM   21  O   UNL     2     -12.427   8.708  72.975  1.00  0.00    -0.532 OA 
HETATM   22  C   UNL     2     -11.262   6.741  72.309  1.00  0.00    -0.295 C  
HETATM   23  H   UNL     2     -12.800   8.200  73.685  1.00  0.00     0.000 HD 
HETATM   24  C   UNL     2     -10.952   5.608  71.656  1.00  0.00    -0.277 C  
BRANCH  24  25
HETATM   25  C   UNL     2      -9.952   4.575  72.123  1.00  0.00    -0.246 C  
HETATM   26  C   UNL     2     -10.216   3.954  73.515  1.00  0.00    -0.143 C  
HETATM   27  C   UNL     2      -9.245   2.798  73.536  1.00  0.00    -0.095 C  
HETATM   28  O   UNL     2     -11.506   3.374  73.684  1.00  0.00    -0.199 OA 
HETATM   29  H   UNL     2     -11.668   2.992  74.539  1.00  0.00     0.000 HD 
HETATM   30  C   UNL     2      -9.381   2.190  72.141  1.00  0.00    -0.091 C  
HETATM   31  C   UNL     2      -9.766   3.347  71.180  1.00  0.00    -0.222 C  
HETATM   32  O   UNL     2      -8.160   1.536  71.835  1.00  0.00    -0.043 OA 
HETATM   33  H   UNL     2      -8.245   1.158  70.967  1.00  0.00     0.000 HD 
BRANCH  31  34
HETATM   34  C   UNL     2      -8.769   3.608  70.029  1.00  0.00    -0.122 C  
BRANCH  34  35
HETATM   35  C   UNL     2      -9.400   3.601  68.656  1.00  0.00    -0.228 C  
HETATM   36  C   UNL     2      -9.756   4.646  67.893  1.00  0.00    -0.198 C  
BRANCH  36  37
HETATM   37  C   UNL     2      -9.613   6.107  68.212  1.00  0.00    -0.122 C  
BRANCH  37  38
HETATM   38  C   UNL     2     -10.541   7.001  67.387  1.00  0.00    -0.372 C  
BRANCH  38  39
HETATM   39  C   UNL     2      -9.827   8.018  66.509  1.00  0.00    -0.289 C  
HETATM   40  C   UNL     2     -10.380   9.442  66.460  1.00  0.00    -0.198 C  
HETATM   41  O   UNL     2     -10.102  10.074  65.403  1.00  0.00    -0.310 OA 
HETATM   42  O   UNL     2     -11.006   9.912  67.466  1.00  0.00    -0.282 OA 
ENDBRANCH  38  39
ENDBRANCH  37  38
ENDBRANCH  36  37
ENDBRANCH  34  35
ENDBRANCH  31  34
ENDBRANCH  24  25
ENDBRANCH  17  18
ENDBRANCH  16  17
ENDBRANCH   6  16
TORSDOF 9
ENDMDL
MODEL       49
REMARK 921   NORMALIZED FREE ENERGY PREDICTED BY IDOCK:   -6.70 KCAL/MOL
REMARK 922        TOTAL FREE ENERGY PREDICTED BY IDOCK:  -12.15 KCAL/MOL
REMARK 923 INTER-LIGAND FREE ENERGY PREDICTED BY IDOCK:   -9.37 KCAL/MOL
REMARK 924 INTRA-LIGAND FREE ENERGY PREDICTED BY IDOCK:   -2.78 KCAL/MOL
REMARK 927      BINDING AFFINITY PREDICTED BY RF-SCORE:    0.00 PKD
ROOT
HETATM    1  O   UNL     1      -9.539  20.545  66.212  1.00  0.00    -0.647 OA 
HETATM    2  C   UNL     1      -8.623  19.455  66.248  1.00  0.00    -0.345 C  
HETATM    3  H   UNL     1      -9.379  21.114  65.468  1.00  0.00     0.000 HD 
HETATM    4  C   UNL     2     -11.854  11.919  63.636  1.00  0.00    -0.573 C  
HETATM    5  C   UNL     1      -8.884  18.523  67.467  1.00  0.00    -0.265 C  
HETATM    6  C   UNL     2     -12.052  12.474  65.039  1.00  0.00    -0.504 C  
HETATM    7  C   UNL     1     -10.359  18.034  67.425  1.00  0.00    -0.382 C  
HETATM    8  N   UNL     1      -7.964  17.353  67.303  1.00  0.00    -0.196 NA 
HETATM    9  C   UNL     1      -8.502  19.109  68.817  1.00  0.00    -0.341 C  
HETATM   10  H   UNL     1      -6.827  19.516  69.742  1.00  0.00     0.000 HD 
HETATM   11  H   UNL     1     -11.537  17.069  66.165  1.00  0.00     0.000 HD 
HETATM   12  H2  UNL     1      -6.985  17.619  67.198  1.00  0.00     0.000 HD 
HETATM   13  O   UNL     1     -10.636  17.367  66.190  1.00  0.00    -0.309 OA 
HETATM   14  O   UNL     1      -7.067  19.149  68.899  1.00  0.00    -0.312 OA 
HETATM   15  H1  UNL     1      -8.136  16.742  68.101  1.00  0.00     0.000 HD 
ENDROOT
BRANCH   6  16
HETATM   16  C   UNL     2     -10.776  13.045  65.661  1.00  0.00    -0.293 C  
BRANCH  16  17
HETATM   17  C   UNL     2     -10.999  14.129  66.719  1.00  0.00    -0.300 C  
BRANCH  17  18
HETATM   18  C   UNL     2     -11.930  13.718  67.884  1.00  0.00    -0.391 C  
HETATM   19  C   UNL     2     -11.288  13.200  69.191  1.00  0.00    -0.281 C  
HETATM   20  C   UNL     2     -12.275  12.994  70.349  1.00  0.00    -0.386 C  
HETATM   21  O   UNL     2     -10.353  14.194  69.624  1.00  0.00    -0.427 OA 
HETATM   22  C   UNL     2     -10.540  11.923  68.931  1.00  0.00    -0.205 C  
HETATM   23  H   UNL     2      -9.958  13.876  70.427  1.00  0.00     0.000 HD 
HETATM   24  C   UNL     2     -11.056  10.705  68.699  1.00  0.00    -0.315 C  
BRANCH  24  25
HETATM   25  C   UNL     2     -10.254   9.455  68.413  1.00  0.00    -0.224 C  
HETATM   26  C   UNL     2     -10.291   8.359  69.503  1.00  0.00    -0.219 C  
HETATM   27  C   UNL     2      -9.664   7.184  68.793  1.00  0.00    -0.145 C  
HETATM   28  O   UNL     2     -11.594   7.926  69.883  1.00  0.00    -0.465 OA 
HETATM   29  H   UNL     2     -11.617   7.253  70.552  1.00  0.00     0.000 HD 
HETATM   30  C   UNL     2     -10.304   7.220  67.406  1.00  0.00    -0.260 C  
HETATM   31  C   UNL     2     -10.629   8.706  67.098  1.00  0.00    -0.304 C  
HETATM   32  O   UNL     2      -9.405   6.600  66.501  1.00  0.00    -0.157 OA 
HETATM   33  H   UNL     2      -9.803   6.623  65.638  1.00  0.00     0.000 HD 
BRANCH  31  34
HETATM   34  C   UNL     2      -9.934   9.287  65.846  1.00  0.00    -0.289 C  
BRANCH  34  35
HETATM   35  C   UNL     2      -8.543   9.817  66.107  1.00  0.00    -0.138 C  
HETATM   36  C   UNL     2      -7.649  10.293  65.226  1.00  0.00    -0.143 C  
BRANCH  36  37
HETATM   37  C   UNL     2      -7.807  10.424  63.738  1.00  0.00    -0.065 C  
BRANCH  37  38
HETATM   38  C   UNL     2      -7.215   9.247  62.960  1.00  0.00    -0.098 C  
BRANCH  38  39
HETATM   39  C   UNL     2      -8.172   8.085  62.743  1.00  0.00    -0.112 C  
HETATM   40  C   UNL     2      -7.852   6.752  63.419  1.00  0.00    -0.107 C  
HETATM   41  O   UNL     2      -8.343   5.742  62.842  1.00  0.00    -0.109 OA 
HETATM   42  O   UNL     2      -7.194   6.739  64.511  1.00  0.00    -0.063 OA 
ENDBRANCH  38  39
ENDBRANCH  37  38
ENDBRANCH  36  37
ENDBRANCH  34  35
ENDBRANCH  31  34
ENDBRANCH  24  25
ENDBRANCH  17  18
ENDBRANCH  16  17
ENDBRANCH   6  16
TORSDOF 9
ENDMDL
MODEL       50
REMARK 921   NORMALIZED FREE ENERGY PREDICTED BY IDOCK:   -6.67 KCAL/MOL
REMARK 922        TOTAL FREE ENERGY PREDICTED BY IDOCK:  -12.11 KCAL/MOL
REMARK 923 INTER-LIGAND FREE ENERGY PREDICTED BY IDOCK:  -10.27 KCAL/MOL
REMARK 924 INTRA-LIGAND FREE ENERGY PREDICTED BY IDOCK:   -1.84 KCAL/MOL
REMARK 927      BINDING AFFINITY PREDICTED BY RF-SCORE:    0.00 PKD
ROOT
HETATM    1  O   UNL     1      -8.483  20.152  65.363  1.00  0.00    -0.415 OA 
HETATM    2  C   UNL     1      -8.128  18.989  66.104  1.00  0.00    -0.244 C  
HETATM    3  H   UNL     1      -7.812  20.386  64.733  1.00  0.00     0.000 HD 
HETATM    4  C   UNL     2     -12.152  11.780  63.679  1.00  0.00    -0.486 C  
HETATM    5  C   UNL     1      -9.227  18.605  67.137  1.00  0.00    -0.287 C  
HETATM    6  C   UNL     2     -12.773  12.813  64.607  1.00  0.00    -0.439 C  
HETATM    7  C   UNL     1     -10.580  18.424  66.394  1.00  0.00    -0.309 C  
HETATM    8  N   UNL     1      -8.803  17.299  67.732  1.00  0.00    -0.230 NA 
HETATM    9  C   UNL     1      -9.338  19.539  68.332  1.00  0.00    -0.367 C  
HETATM   10  H   UNL     1      -8.260  19.913  69.920  1.00  0.00     0.000 HD 
HETATM   11  H   UNL     1     -11.290  17.325  64.911  1.00  0.00     0.000 HD 
HETATM   12  H2  UNL     1      -7.864  17.319  68.129  1.00  0.00     0.000 HD 
HETATM   13  O   UNL     1     -10.464  17.436  65.365  1.00  0.00    -0.648 OA 
HETATM   14  O   UNL     1      -8.191  19.330  69.173  1.00  0.00    -0.291 OA 
HETATM   15  H1  UNL     1      -9.524  17.047  68.408  1.00  0.00     0.000 HD 
ENDROOT
BRANCH   6  16
HETATM   16  C   UNL     2     -11.823  13.309  65.698  1.00  0.00    -0.419 C  
BRANCH  16  17
HETATM   17  C   UNL     2     -11.673  12.375  66.902  1.00  0.00    -0.432 C  
BRANCH  17  18
HETATM   18  C   UNL     2     -10.213  12.079  67.317  1.00  0.00    -0.221 C  
HETATM   19  C   UNL     2      -9.780  10.604  67.483  1.00  0.00    -0.166 C  
HETATM   20  C   UNL     2      -8.275  10.403  67.713  1.00  0.00    -0.110 C  
HETATM   21  O   UNL     2     -10.100   9.931  66.260  1.00  0.00    -0.237 OA 
HETATM   22  C   UNL     2     -10.553   9.959  68.598  1.00  0.00    -0.244 C  
HETATM   23  H   UNL     2      -9.834   9.025  66.362  1.00  0.00     0.000 HD 
HETATM   24  C   UNL     2     -10.402  10.154  69.919  1.00  0.00    -0.308 C  
BRANCH  24  25
HETATM   25  C   UNL     2     -11.230   9.499  71.001  1.00  0.00    -0.432 C  
HETATM   26  C   UNL     2     -12.562  10.200  71.356  1.00  0.00    -0.422 C  
HETATM   27  C   UNL     2     -13.248   9.165  72.213  1.00  0.00    -0.528 C  
HETATM   28  O   UNL     2     -13.439  10.429  70.257  1.00  0.00    -0.361 OA 
HETATM   29  H   UNL     2     -14.257  10.860  70.475  1.00  0.00     0.000 HD 
HETATM   30  C   UNL     2     -12.989   7.856  71.469  1.00  0.00    -0.311 C  
HETATM   31  C   UNL     2     -11.634   8.017  70.729  1.00  0.00    -0.251 C  
HETATM   32  O   UNL     2     -13.033   6.803  72.420  1.00  0.00    -0.512 OA 
HETATM   33  H   UNL     2     -12.872   5.990  71.957  1.00  0.00     0.000 HD 
BRANCH  31  34
HETATM   34  C   UNL     2     -10.539   7.004  71.131  1.00  0.00    -0.237 C  
BRANCH  34  35
HETATM   35  C   UNL     2      -9.129   7.512  70.931  1.00  0.00    -0.153 C  
HETATM   36  C   UNL     2      -8.239   7.165  69.989  1.00  0.00    -0.136 C  
BRANCH  36  37
HETATM   37  C   UNL     2      -8.421   6.172  68.877  1.00  0.00    -0.118 C  
BRANCH  37  38
HETATM   38  C   UNL     2      -9.142   6.751  67.658  1.00  0.00    -0.117 C  
BRANCH  38  39
HETATM   39  C   UNL     2     -10.339   5.941  67.185  1.00  0.00    -0.286 C  
HETATM   40  C   UNL     2     -10.094   4.809  66.187  1.00  0.00    -0.262 C  
HETATM   41  O   UNL     2     -11.093   4.520  65.470  1.00  0.00    -0.173 OA 
HETATM   42  O   UNL     2      -8.971   4.207  66.177  1.00  0.00    -0.118 OA 
ENDBRANCH  38  39
ENDBRANCH  37  38
ENDBRANCH  36  37
ENDBRANCH  34  35
ENDBRANCH  31  34
ENDBRANCH  24  25
ENDBRANCH  17  18
ENDBRANCH  16  17
ENDBRANCH   6  16
TORSDOF 9
ENDMDL
MODEL       51
REMARK 921   NORMALIZED FREE ENERGY PREDICTED BY IDOCK:   -6.66 KCAL/MOL
REMARK 922        TOTAL FREE ENERGY PREDICTED BY IDOCK:  -12.09 KCAL/MOL
REMARK 923 INTER-LIGAND FREE ENERGY PREDICTED BY IDOCK:  -10.28 KCAL/MOL
REMARK 924 INTRA-LIGAND FREE ENERGY PREDICTED BY IDOCK:   -1.82 KCAL/MOL
REMARK 927      BINDING AFFINITY PREDICTED BY RF-SCORE:    0.00 PKD
ROOT
HETATM    1  O   UNL     1     -11.191   6.282  73.627  1.00  0.00    -0.418 OA 
HETATM    2  C   UNL     1     -11.692   6.002  72.324  1.00  0.00    -0.284 C  
HETATM    3  H   UNL     1     -11.172   5.503  74.171  1.00  0.00     0.000 HD 
HETATM    4  C   UNL     2      -5.700   5.518  66.166  1.00  0.00    -0.017 C  
HETATM    5  C   UNL     1     -11.723   7.278  71.432  1.00  0.00    -0.287 C  
HETATM    6  C   UNL     2      -6.278   6.831  66.670  1.00  0.00    -0.044 C  
HETATM    7  C   UNL     1     -10.298   7.896  71.380  1.00  0.00    -0.198 C  
HETATM    8  N   UNL     1     -12.120   6.820  70.063  1.00  0.00    -0.638 NA 
HETATM    9  C   UNL     1     -12.788   8.296  71.806  1.00  0.00    -0.338 C  
HETATM   10  H   UNL     1     -14.737   8.398  71.671  1.00  0.00     0.000 HD 
HETATM   11  H   UNL     1      -8.480   7.319  70.861  1.00  0.00     0.000 HD 
HETATM   12  H2  UNL     1     -12.994   6.294  70.048  1.00  0.00     0.000 HD 
HETATM   13  O   UNL     1      -9.350   6.942  70.892  1.00  0.00    -0.157 OA 
HETATM   14  O   UNL     1     -14.071   7.762  71.437  1.00  0.00    -0.389 OA 
HETATM   15  H1  UNL     1     -12.140   7.656  69.478  1.00  0.00     0.000 HD 
ENDROOT
BRANCH   6  16
HETATM   16  C   UNL     2      -7.800   6.816  66.822  1.00  0.00    -0.107 C  
BRANCH  16  17
HETATM   17  C   UNL     2      -8.520   8.051  66.273  1.00  0.00    -0.138 C  
BRANCH  17  18
HETATM   18  C   UNL     2      -8.861   7.987  64.766  1.00  0.00     0.260 C  
HETATM   19  C   UNL     2      -8.325   9.105  63.842  1.00  0.00    -0.181 C  
HETATM   20  C   UNL     2      -8.555   8.860  62.343  1.00  0.00    -0.208 C  
HETATM   21  O   UNL     2      -6.907   9.167  64.032  1.00  0.00    -0.088 OA 
HETATM   22  C   UNL     2      -8.916  10.430  64.234  1.00  0.00    -0.249 C  
HETATM   23  H   UNL     2      -6.578   9.854  63.465  1.00  0.00     0.000 HD 
HETATM   24  C   UNL     2     -10.173  10.858  64.029  1.00  0.00    -0.422 C  
BRANCH  24  25
HETATM   25  C   UNL     2     -10.725  12.194  64.473  1.00  0.00    -0.353 C  
HETATM   26  C   UNL     2     -11.754  12.853  63.526  1.00  0.00    -0.512 C  
HETATM   27  C   UNL     2     -12.302  13.971  64.379  1.00  0.00    -0.401 C  
HETATM   28  O   UNL     2     -12.876  12.042  63.192  1.00  0.00    -0.794 OA 
HETATM   29  H   UNL     2     -13.509  12.447  62.610  1.00  0.00     0.000 HD 
HETATM   30  C   UNL     2     -12.495  13.316  65.746  1.00  0.00    -0.417 C  
HETATM   31  C   UNL     2     -11.423  12.200  65.867  1.00  0.00    -0.418 C  
HETATM   32  O   UNL     2     -12.413  14.337  66.728  1.00  0.00    -0.575 OA 
HETATM   33  H   UNL     2     -12.533  13.929  67.578  1.00  0.00     0.000 HD 
BRANCH  31  34
HETATM   34  C   UNL     2     -10.434  12.360  67.043  1.00  0.00    -0.238 C  
BRANCH  34  35
HETATM   35  C   UNL     2      -9.179  13.126  66.691  1.00  0.00    -0.220 C  
HETATM   36  C   UNL     2      -8.722  14.273  67.218  1.00  0.00    -0.230 C  
BRANCH  36  37
HETATM   37  C   UNL     2      -9.348  15.095  68.308  1.00  0.00    -0.193 C  
BRANCH  37  38
HETATM   38  C   UNL     2      -9.880  16.444  67.820  1.00  0.00    -0.239 C  
BRANCH  38  39
HETATM   39  C   UNL     2     -10.044  16.553  66.311  1.00  0.00    -0.347 C  
HETATM   40  C   UNL     2     -10.659  17.833  65.744  1.00  0.00    -0.175 C  
HETATM   41  O   UNL     2     -11.219  17.689  64.621  1.00  0.00    -0.857 OA 
HETATM   42  O   UNL     2     -10.522  18.932  66.373  1.00  0.00    -0.404 OA 
ENDBRANCH  38  39
ENDBRANCH  37  38
ENDBRANCH  36  37
ENDBRANCH  34  35
ENDBRANCH  31  34
ENDBRANCH  24  25
ENDBRANCH  17  18
ENDBRANCH  16  17
ENDBRANCH   6  16
TORSDOF 9
ENDMDL
MODEL       52
REMARK 921   NORMALIZED FREE ENERGY PREDICTED BY IDOCK:   -6.66 KCAL/MOL
REMARK 922        TOTAL FREE ENERGY PREDICTED BY IDOCK:  -12.09 KCAL/MOL
REMARK 923 INTER-LIGAND FREE ENERGY PREDICTED BY IDOCK:  -10.66 KCAL/MOL
REMARK 924 INTRA-LIGAND FREE ENERGY PREDICTED BY IDOCK:   -1.44 KCAL/MOL
REMARK 927      BINDING AFFINITY PREDICTED BY RF-SCORE:    0.00 PKD
ROOT
HETATM    1  O   UNL     1     -12.985  12.988  64.082  1.00  0.00    -0.637 OA 
HETATM    2  C   UNL     1     -11.644  13.443  64.234  1.00  0.00    -0.402 C  
HETATM    3  H   UNL     1     -13.325  13.177  63.215  1.00  0.00     0.000 HD 
HETATM    4  C   UNL     2      -5.658   7.274  63.835  1.00  0.00    -0.037 C  
HETATM    5  C   UNL     1     -11.087  13.132  65.653  1.00  0.00    -0.275 C  
HETATM    6  C   UNL     2      -6.454   7.587  65.092  1.00  0.00    -0.041 C  
HETATM    7  C   UNL     1     -11.211  11.607  65.925  1.00  0.00    -0.238 C  
HETATM    8  N   UNL     1      -9.641  13.520  65.628  1.00  0.00    -0.499 NA 
HETATM    9  C   UNL     1     -11.678  13.974  66.773  1.00  0.00    -0.407 C  
HETATM   10  H   UNL     1     -11.537  15.839  67.345  1.00  0.00     0.000 HD 
HETATM   11  H   UNL     1     -10.600   9.924  65.085  1.00  0.00     0.000 HD 
HETATM   12  H2  UNL     1      -9.485  14.484  65.334  1.00  0.00     0.000 HD 
HETATM   13  O   UNL     1     -10.524  10.856  64.919  1.00  0.00    -0.311 OA 
HETATM   14  O   UNL     1     -11.168  15.312  66.646  1.00  0.00    -0.314 OA 
HETATM   15  H1  UNL     1      -9.276  13.316  66.559  1.00  0.00     0.000 HD 
ENDROOT
BRANCH   6  16
HETATM   16  C   UNL     2      -6.572   9.083  65.390  1.00  0.00    -0.068 C  
BRANCH  16  17
HETATM   17  C   UNL     2      -7.709   9.468  66.340  1.00  0.00    -0.097 C  
BRANCH  17  18
HETATM   18  C   UNL     2      -7.300  10.416  67.492  1.00  0.00    -0.092 C  
HETATM   19  C   UNL     2      -6.922   9.796  68.857  1.00  0.00    -0.062 C  
HETATM   20  C   UNL     2      -6.354  10.793  69.877  1.00  0.00    -0.118 C  
HETATM   21  O   UNL     2      -5.893   8.831  68.612  1.00  0.00    -0.043 OA 
HETATM   22  C   UNL     2      -8.107   9.086  69.449  1.00  0.00    -0.108 C  
HETATM   23  H   UNL     2      -5.661   8.450  69.450  1.00  0.00     0.000 HD 
HETATM   24  C   UNL     2      -9.201   9.640  70.000  1.00  0.00    -0.275 C  
BRANCH  24  25
HETATM   25  C   UNL     2     -10.382   8.876  70.556  1.00  0.00    -0.246 C  
HETATM   26  C   UNL     2     -10.045   7.673  71.468  1.00  0.00    -0.178 C  
HETATM   27  C   UNL     2     -11.390   7.341  72.066  1.00  0.00    -0.295 C  
HETATM   28  O   UNL     2      -9.198   7.970  72.574  1.00  0.00    -0.171 OA 
HETATM   29  H   UNL     2      -8.991   7.232  73.135  1.00  0.00     0.000 HD 
HETATM   30  C   UNL     2     -11.977   8.709  72.411  1.00  0.00    -0.340 C  
HETATM   31  C   UNL     2     -11.394   9.721  71.388  1.00  0.00    -0.407 C  
HETATM   32  O   UNL     2     -13.390   8.588  72.399  1.00  0.00    -0.511 OA 
HETATM   33  H   UNL     2     -13.755   9.439  72.613  1.00  0.00     0.000 HD 
BRANCH  31  34
HETATM   34  C   UNL     2     -12.439  10.452  70.516  1.00  0.00    -0.403 C  
BRANCH  34  35
HETATM   35  C   UNL     2     -12.113  11.904  70.254  1.00  0.00    -0.409 C  
HETATM   36  C   UNL     2     -12.535  12.991  70.919  1.00  0.00    -0.396 C  
BRANCH  36  37
HETATM   37  C   UNL     2     -13.449  13.040  72.110  1.00  0.00    -0.638 C  
BRANCH  37  38
HETATM   38  C   UNL     2     -14.172  14.379  72.264  1.00  0.00    -0.580 C  
BRANCH  38  39
HETATM   39  C   UNL     2     -13.253  15.584  72.403  1.00  0.00    -0.546 C  
HETATM   40  C   UNL     2     -12.586  15.828  73.757  1.00  0.00    -0.610 C  
HETATM   41  O   UNL     2     -12.270  17.032  73.974  1.00  0.00    -0.376 OA 
HETATM   42  O   UNL     2     -12.338  14.843  74.527  1.00  0.00    -0.526 OA 
ENDBRANCH  38  39
ENDBRANCH  37  38
ENDBRANCH  36  37
ENDBRANCH  34  35
ENDBRANCH  31  34
ENDBRANCH  24  25
ENDBRANCH  17  18
ENDBRANCH  16  17
ENDBRANCH   6  16
TORSDOF 9
ENDMDL
MODEL       53
REMARK 921   NORMALIZED FREE ENERGY PREDICTED BY IDOCK:   -6.66 KCAL/MOL
REMARK 922        TOTAL FREE ENERGY PREDICTED BY IDOCK:  -12.09 KCAL/MOL
REMARK 923 INTER-LIGAND FREE ENERGY PREDICTED BY IDOCK:   -8.69 KCAL/MOL
REMARK 924 INTRA-LIGAND FREE ENERGY PREDICTED BY IDOCK:   -3.39 KCAL/MOL
REMARK 927      BINDING AFFINITY PREDICTED BY RF-SCORE:    0.00 PKD
ROOT
HETATM    1  O   UNL     1     -10.305   6.310  70.000  1.00  0.00    -0.179 OA 
HETATM    2  C   UNL     1      -9.239   6.865  69.236  1.00  0.00    -0.139 C  
HETATM    3  H   UNL     1     -10.281   6.603  70.903  1.00  0.00     0.000 HD 
HETATM    4  C   UNL     2     -11.498  13.333  64.029  1.00  0.00    -0.432 C  
HETATM    5  C   UNL     1      -9.279   6.384  67.756  1.00  0.00    -0.112 C  
HETATM    6  C   UNL     2     -11.681  11.866  63.670  1.00  0.00    -0.572 C  
HETATM    7  C   UNL     1     -10.666   6.732  67.147  1.00  0.00    -0.371 C  
HETATM    8  N   UNL     1      -8.211   7.150  67.040  1.00  0.00    -0.116 NA 
HETATM    9  C   UNL     1      -8.897   4.928  67.544  1.00  0.00    -0.103 C  
HETATM   10  H   UNL     1      -7.242   3.889  67.627  1.00  0.00     0.000 HD 
HETATM   11  H   UNL     1     -11.771   8.348  66.874  1.00  0.00     0.000 HD 
HETATM   12  H2  UNL     1      -7.290   7.061  67.470  1.00  0.00     0.000 HD 
HETATM   13  O   UNL     1     -10.924   8.136  67.246  1.00  0.00    -0.154 OA 
HETATM   14  O   UNL     1      -7.481   4.799  67.759  1.00  0.00    -0.076 OA 
HETATM   15  H1  UNL     1      -8.237   6.836  66.070  1.00  0.00     0.000 HD 
ENDROOT
BRANCH   6  16
HETATM   16  C   UNL     2     -10.464  10.997  63.992  1.00  0.00    -0.433 C  
BRANCH  16  17
HETATM   17  C   UNL     2     -10.097  10.920  65.477  1.00  0.00    -0.325 C  
BRANCH  17  18
HETATM   18  C   UNL     2      -8.580  10.869  65.769  1.00  0.00    -0.176 C  
HETATM   19  C   UNL     2      -8.103  11.075  67.225  1.00  0.00    -0.126 C  
HETATM   20  C   UNL     2      -6.604  10.824  67.448  1.00  0.00    -0.071 C  
HETATM   21  O   UNL     2      -8.801  10.123  68.036  1.00  0.00    -0.124 OA 
HETATM   22  C   UNL     2      -8.461  12.456  67.698  1.00  0.00    -0.169 C  
HETATM   23  H   UNL     2      -8.509  10.249  68.930  1.00  0.00     0.000 HD 
HETATM   24  C   UNL     2      -7.885  13.617  67.343  1.00  0.00    -0.162 C  
BRANCH  24  25
HETATM   25  C   UNL     2      -8.306  14.986  67.828  1.00  0.00    -0.158 C  
HETATM   26  C   UNL     2      -7.164  15.997  68.083  1.00  0.00    -0.131 C  
HETATM   27  C   UNL     2      -7.920  17.292  68.256  1.00  0.00    -0.244 C  
HETATM   28  O   UNL     2      -6.286  16.210  66.982  1.00  0.00    -0.267 OA 
HETATM   29  H   UNL     2      -5.585  16.831  67.138  1.00  0.00     0.000 HD 
HETATM   30  C   UNL     2      -8.969  17.246  67.146  1.00  0.00    -0.226 C  
HETATM   31  C   UNL     2      -9.299  15.749  66.900  1.00  0.00    -0.246 C  
HETATM   32  O   UNL     2     -10.067  18.044  67.557  1.00  0.00    -0.320 OA 
HETATM   33  H   UNL     2     -10.719  18.015  66.867  1.00  0.00     0.000 HD 
BRANCH  31  34
HETATM   34  C   UNL     2     -10.775  15.353  67.129  1.00  0.00    -0.314 C  
BRANCH  34  35
HETATM   35  C   UNL     2     -11.079  14.910  68.542  1.00  0.00    -0.275 C  
HETATM   36  C   UNL     2     -11.556  13.729  68.965  1.00  0.00    -0.356 C  
BRANCH  36  37
HETATM   37  C   UNL     2     -11.910  12.531  68.131  1.00  0.00    -0.371 C  
BRANCH  37  38
HETATM   38  C   UNL     2     -11.787  11.208  68.889  1.00  0.00    -0.406 C  
BRANCH  38  39
HETATM   39  C   UNL     2     -12.243  11.263  70.340  1.00  0.00    -0.453 C  
HETATM   40  C   UNL     2     -12.393   9.943  71.098  1.00  0.00    -0.370 C  
HETATM   41  O   UNL     2     -13.211   9.985  72.060  1.00  0.00    -0.433 OA 
HETATM   42  O   UNL     2     -11.673   8.943  70.775  1.00  0.00    -0.280 OA 
ENDBRANCH  38  39
ENDBRANCH  37  38
ENDBRANCH  36  37
ENDBRANCH  34  35
ENDBRANCH  31  34
ENDBRANCH  24  25
ENDBRANCH  17  18
ENDBRANCH  16  17
ENDBRANCH   6  16
TORSDOF 9
ENDMDL
MODEL       54
REMARK 921   NORMALIZED FREE ENERGY PREDICTED BY IDOCK:   -6.65 KCAL/MOL
REMARK 922        TOTAL FREE ENERGY PREDICTED BY IDOCK:  -12.07 KCAL/MOL
REMARK 923 INTER-LIGAND FREE ENERGY PREDICTED BY IDOCK:   -9.58 KCAL/MOL
REMARK 924 INTRA-LIGAND FREE ENERGY PREDICTED BY IDOCK:   -2.49 KCAL/MOL
REMARK 927      BINDING AFFINITY PREDICTED BY RF-SCORE:    0.00 PKD
ROOT
HETATM    1  O   UNL     1     -11.133   7.279  73.508  1.00  0.00    -0.569 OA 
HETATM    2  C   UNL     1     -11.511   6.655  72.285  1.00  0.00    -0.283 C  
HETATM    3  H   UNL     1     -10.807   6.649  74.140  1.00  0.00     0.000 HD 
HETATM    4  C   UNL     2      -5.900   7.624  65.833  1.00  0.00    -0.037 C  
HETATM    5  C   UNL     1     -12.044   7.688  71.250  1.00  0.00    -0.314 C  
HETATM    6  C   UNL     2      -6.928   8.679  66.213  1.00  0.00    -0.077 C  
HETATM    7  C   UNL     1     -10.966   8.785  71.027  1.00  0.00    -0.268 C  
HETATM    8  N   UNL     1     -12.260   6.931  69.978  1.00  0.00    -0.591 NA 
HETATM    9  C   UNL     1     -13.411   8.271  71.572  1.00  0.00    -0.289 C  
HETATM   10  H   UNL     1     -15.252   7.610  71.560  1.00  0.00     0.000 HD 
HETATM   11  H   UNL     1      -9.075   8.872  70.457  1.00  0.00     0.000 HD 
HETATM   12  H2  UNL     1     -12.866   6.117  70.087  1.00  0.00     0.000 HD 
HETATM   13  O   UNL     1      -9.733   8.202  70.593  1.00  0.00    -0.169 OA 
HETATM   14  O   UNL     1     -14.397   7.246  71.359  1.00  0.00    -0.431 OA 
HETATM   15  H1  UNL     1     -12.609   7.608  69.299  1.00  0.00     0.000 HD 
ENDROOT
BRANCH   6  16
HETATM   16  C   UNL     2      -8.325   8.111  66.471  1.00  0.00    -0.113 C  
BRANCH  16  17
HETATM   17  C   UNL     2      -9.483   9.048  66.112  1.00  0.00    -0.318 C  
BRANCH  17  18
HETATM   18  C   UNL     2     -10.354   9.492  67.310  1.00  0.00    -0.319 C  
HETATM   19  C   UNL     2     -10.826  10.962  67.372  1.00  0.00    -0.279 C  
HETATM   20  C   UNL     2     -11.834  11.263  68.491  1.00  0.00    -0.355 C  
HETATM   21  O   UNL     2     -11.493  11.244  66.136  1.00  0.00    -0.217 OA 
HETATM   22  C   UNL     2      -9.644  11.882  67.495  1.00  0.00    -0.175 C  
HETATM   23  H   UNL     2     -11.782  12.147  66.174  1.00  0.00     0.000 HD 
HETATM   24  C   UNL     2      -8.872  12.081  68.577  1.00  0.00    -0.095 C  
BRANCH  24  25
HETATM   25  C   UNL     2      -7.672  12.999  68.636  1.00  0.00    -0.069 C  
HETATM   26  C   UNL     2      -6.392  12.493  67.931  1.00  0.00    -0.103 C  
HETATM   27  C   UNL     2      -5.524  13.727  67.922  1.00  0.00    -0.097 C  
HETATM   28  O   UNL     2      -6.558  12.131  66.563  1.00  0.00    -0.407 OA 
HETATM   29  H   UNL     2      -5.772  11.820  66.129  1.00  0.00     0.000 HD 
HETATM   30  C   UNL     2      -6.492  14.843  67.531  1.00  0.00    -0.077 C  
HETATM   31  C   UNL     2      -7.892  14.430  68.056  1.00  0.00    -0.141 C  
HETATM   32  O   UNL     2      -5.985  16.058  68.061  1.00  0.00    -0.105 OA 
HETATM   33  H   UNL     2      -6.587  16.751  67.818  1.00  0.00     0.000 HD 
BRANCH  31  34
HETATM   34  C   UNL     2      -8.531  15.406  69.070  1.00  0.00    -0.229 C  
BRANCH  34  35
HETATM   35  C   UNL     2     -10.036  15.502  68.965  1.00  0.00    -0.234 C  
HETATM   36  C   UNL     2     -10.773  16.104  68.019  1.00  0.00    -0.321 C  
BRANCH  36  37
HETATM   37  C   UNL     2     -10.284  16.844  66.807  1.00  0.00    -0.306 C  
BRANCH  37  38
HETATM   38  C   UNL     2     -10.549  16.101  65.496  1.00  0.00    -0.394 C  
BRANCH  38  39
HETATM   39  C   UNL     2     -11.164  14.720  65.663  1.00  0.00    -0.343 C  
HETATM   40  C   UNL     2     -12.395  14.373  64.824  1.00  0.00    -0.414 C  
HETATM   41  O   UNL     2     -13.136  13.483  65.328  1.00  0.00    -0.713 OA 
HETATM   42  O   UNL     2     -12.563  14.928  63.690  1.00  0.00    -0.724 OA 
ENDBRANCH  38  39
ENDBRANCH  37  38
ENDBRANCH  36  37
ENDBRANCH  34  35
ENDBRANCH  31  34
ENDBRANCH  24  25
ENDBRANCH  17  18
ENDBRANCH  16  17
ENDBRANCH   6  16
TORSDOF 9
ENDMDL
MODEL       55
REMARK 921   NORMALIZED FREE ENERGY PREDICTED BY IDOCK:   -6.64 KCAL/MOL
REMARK 922        TOTAL FREE ENERGY PREDICTED BY IDOCK:  -12.05 KCAL/MOL
REMARK 923 INTER-LIGAND FREE ENERGY PREDICTED BY IDOCK:  -10.11 KCAL/MOL
REMARK 924 INTRA-LIGAND FREE ENERGY PREDICTED BY IDOCK:   -1.95 KCAL/MOL
REMARK 927      BINDING AFFINITY PREDICTED BY RF-SCORE:    0.00 PKD
ROOT
HETATM    1  O   UNL     1     -12.557   7.780  70.701  1.00  0.00    -0.518 OA 
HETATM    2  C   UNL     1     -11.134   7.829  70.701  1.00  0.00    -0.256 C  
HETATM    3  H   UNL     1     -12.938   8.606  70.977  1.00  0.00     0.000 HD 
HETATM    4  C   UNL     2      -7.537   8.620  62.924  1.00  0.00    -0.110 C  
HETATM    5  C   UNL     1     -10.510   6.477  70.249  1.00  0.00    -0.216 C  
HETATM    6  C   UNL     2      -8.007   7.292  63.497  1.00  0.00    -0.066 C  
HETATM    7  C   UNL     1     -11.073   6.100  68.851  1.00  0.00    -0.345 C  
HETATM    8  N   UNL     1      -9.035   6.710  70.149  1.00  0.00    -0.151 NA 
HETATM    9  C   UNL     1     -10.639   5.344  71.255  1.00  0.00    -0.206 C  
HETATM   10  H   UNL     1      -9.834   4.908  72.983  1.00  0.00     0.000 HD 
HETATM   11  H   UNL     1     -11.152   6.908  67.048  1.00  0.00     0.000 HD 
HETATM   12  H2  UNL     1      -8.624   7.080  71.006  1.00  0.00     0.000 HD 
HETATM   13  O   UNL     1     -10.809   7.138  67.902  1.00  0.00    -0.205 OA 
HETATM   14  O   UNL     1      -9.754   5.616  72.355  1.00  0.00    -0.156 OA 
HETATM   15  H1  UNL     1      -8.626   5.824  69.853  1.00  0.00     0.000 HD 
ENDROOT
BRANCH   6  16
HETATM   16  C   UNL     2      -7.600   7.073  64.955  1.00  0.00    -0.104 C  
BRANCH  16  17
HETATM   17  C   UNL     2      -8.327   7.958  65.972  1.00  0.00    -0.128 C  
BRANCH  17  18
HETATM   18  C   UNL     2      -7.441   9.028  66.652  1.00  0.00    -0.086 C  
HETATM   19  C   UNL     2      -8.079   9.934  67.730  1.00  0.00    -0.109 C  
HETATM   20  C   UNL     2      -7.084  10.835  68.477  1.00  0.00    -0.070 C  
HETATM   21  O   UNL     2      -8.666   9.072  68.712  1.00  0.00    -0.133 OA 
HETATM   22  C   UNL     2      -9.166  10.776  67.124  1.00  0.00    -0.160 C  
HETATM   23  H   UNL     2      -9.058   9.629  69.374  1.00  0.00     0.000 HD 
HETATM   24  C   UNL     2      -9.023  11.837  66.312  1.00  0.00    -0.176 C  
BRANCH  24  25
HETATM   25  C   UNL     2     -10.157  12.632  65.704  1.00  0.00    -0.285 C  
HETATM   26  C   UNL     2     -10.319  12.519  64.171  1.00  0.00    -0.390 C  
HETATM   27  C   UNL     2     -11.666  13.163  63.945  1.00  0.00    -0.515 C  
HETATM   28  O   UNL     2     -10.442  11.191  63.670  1.00  0.00    -0.359 OA 
HETATM   29  H   UNL     2     -10.542  11.122  62.728  1.00  0.00     0.000 HD 
HETATM   30  C   UNL     2     -12.526  12.598  65.075  1.00  0.00    -0.487 C  
HETATM   31  C   UNL     2     -11.575  12.314  66.268  1.00  0.00    -0.446 C  
HETATM   32  O   UNL     2     -13.560  13.533  65.338  1.00  0.00    -0.377 OA 
HETATM   33  H   UNL     2     -14.095  13.181  66.041  1.00  0.00     0.000 HD 
BRANCH  31  34
HETATM   34  C   UNL     2     -11.901  13.084  67.568  1.00  0.00    -0.408 C  
BRANCH  34  35
HETATM   35  C   UNL     2     -12.034  12.201  68.788  1.00  0.00    -0.292 C  
HETATM   36  C   UNL     2     -12.044  12.557  70.082  1.00  0.00    -0.368 C  
BRANCH  36  37
HETATM   37  C   UNL     2     -11.926  13.941  70.654  1.00  0.00    -0.364 C  
BRANCH  37  38
HETATM   38  C   UNL     2     -13.274  14.554  71.037  1.00  0.00    -0.414 C  
BRANCH  38  39
HETATM   39  C   UNL     2     -13.464  14.788  72.529  1.00  0.00    -0.546 C  
HETATM   40  C   UNL     2     -12.464  15.693  73.249  1.00  0.00    -0.498 C  
HETATM   41  O   UNL     2     -12.350  15.464  74.486  1.00  0.00    -0.646 OA 
HETATM   42  O   UNL     2     -11.877  16.624  72.607  1.00  0.00    -0.516 OA 
ENDBRANCH  38  39
ENDBRANCH  37  38
ENDBRANCH  36  37
ENDBRANCH  34  35
ENDBRANCH  31  34
ENDBRANCH  24  25
ENDBRANCH  17  18
ENDBRANCH  16  17
ENDBRANCH   6  16
TORSDOF 9
ENDMDL
MODEL       56
REMARK 921   NORMALIZED FREE ENERGY PREDICTED BY IDOCK:   -6.61 KCAL/MOL
REMARK 922        TOTAL FREE ENERGY PREDICTED BY IDOCK:  -12.01 KCAL/MOL
REMARK 923 INTER-LIGAND FREE ENERGY PREDICTED BY IDOCK:   -9.72 KCAL/MOL
REMARK 924 INTRA-LIGAND FREE ENERGY PREDICTED BY IDOCK:   -2.29 KCAL/MOL
REMARK 927      BINDING AFFINITY PREDICTED BY RF-SCORE:    0.00 PKD
ROOT
HETATM    1  O   UNL     1     -10.845  17.700  67.854  1.00  0.00    -0.374 OA 
HETATM    2  C   UNL     1     -10.118  16.654  68.491  1.00  0.00    -0.266 C  
HETATM    3  H   UNL     1     -10.285  18.436  67.636  1.00  0.00     0.000 HD 
HETATM    4  C   UNL     2      -8.325   9.905  63.462  1.00  0.00    -0.166 C  
HETATM    5  C   UNL     1     -11.035  15.449  68.849  1.00  0.00    -0.261 C  
HETATM    6  C   UNL     2      -9.665  10.099  64.157  1.00  0.00    -0.301 C  
HETATM    7  C   UNL     1     -11.748  14.953  67.560  1.00  0.00    -0.308 C  
HETATM    8  N   UNL     1     -10.130  14.375  69.367  1.00  0.00    -0.433 NA 
HETATM    9  C   UNL     1     -12.006  15.700  69.993  1.00  0.00    -0.368 C  
HETATM   10  H   UNL     1     -11.860  15.907  71.932  1.00  0.00     0.000 HD 
HETATM   11  H   UNL     1     -11.225  14.295  65.770  1.00  0.00     0.000 HD 
HETATM   12  H2  UNL     1      -9.540  14.679  70.142  1.00  0.00     0.000 HD 
HETATM   13  O   UNL     1     -10.790  14.599  66.557  1.00  0.00    -0.303 OA 
HETATM   14  O   UNL     1     -11.254  15.750  71.217  1.00  0.00    -0.366 OA 
HETATM   15  H1  UNL     1     -10.731  13.585  69.601  1.00  0.00     0.000 HD 
ENDROOT
BRANCH   6  16
HETATM   16  C   UNL     2      -9.543  10.531  65.619  1.00  0.00    -0.278 C  
BRANCH  16  17
HETATM   17  C   UNL     2      -9.925   9.461  66.645  1.00  0.00    -0.326 C  
BRANCH  17  18
HETATM   18  C   UNL     2      -9.310   8.065  66.388  1.00  0.00    -0.259 C  
HETATM   19  C   UNL     2      -9.873   6.857  67.172  1.00  0.00    -0.165 C  
HETATM   20  C   UNL     2      -9.332   5.493  66.719  1.00  0.00    -0.136 C  
HETATM   21  O   UNL     2     -11.287   6.831  66.949  1.00  0.00    -0.731 OA 
HETATM   22  C   UNL     2      -9.627   7.034  68.644  1.00  0.00    -0.138 C  
HETATM   23  H   UNL     2     -11.633   6.089  67.431  1.00  0.00     0.000 HD 
HETATM   24  C   UNL     2      -8.459   6.919  69.298  1.00  0.00    -0.129 C  
BRANCH  24  25
HETATM   25  C   UNL     2      -8.262   7.138  70.782  1.00  0.00    -0.120 C  
HETATM   26  C   UNL     2      -7.195   8.185  71.178  1.00  0.00    -0.060 C  
HETATM   27  C   UNL     2      -7.460   8.367  72.653  1.00  0.00    -0.122 C  
HETATM   28  O   UNL     2      -7.366   9.474  70.597  1.00  0.00    -0.126 OA 
HETATM   29  H   UNL     2      -6.710  10.117  70.840  1.00  0.00     0.000 HD 
HETATM   30  C   UNL     2      -8.984   8.429  72.737  1.00  0.00    -0.221 C  
HETATM   31  C   UNL     2      -9.537   7.568  71.570  1.00  0.00    -0.171 C  
HETATM   32  O   UNL     2      -9.362   7.996  74.035  1.00  0.00    -0.329 OA 
HETATM   33  H   UNL     2     -10.310   8.034  74.087  1.00  0.00     0.000 HD 
BRANCH  31  34
HETATM   34  C   UNL     2     -10.422   6.374  71.993  1.00  0.00    -0.236 C  
BRANCH  34  35
HETATM   35  C   UNL     2     -11.843   6.452  71.481  1.00  0.00    -0.355 C  
HETATM   36  C   UNL     2     -12.762   7.404  71.704  1.00  0.00    -0.399 C  
BRANCH  36  37
HETATM   37  C   UNL     2     -12.611   8.651  72.527  1.00  0.00    -0.367 C  
BRANCH  37  38
HETATM   38  C   UNL     2     -12.960   9.929  71.761  1.00  0.00    -0.549 C  
BRANCH  38  39
HETATM   39  C   UNL     2     -12.010  10.264  70.621  1.00  0.00    -0.436 C  
HETATM   40  C   UNL     2     -12.111  11.651  69.984  1.00  0.00    -0.319 C  
HETATM   41  O   UNL     2     -11.700  11.708  68.791  1.00  0.00    -0.281 OA 
HETATM   42  O   UNL     2     -12.524  12.637  70.678  1.00  0.00    -0.318 OA 
ENDBRANCH  38  39
ENDBRANCH  37  38
ENDBRANCH  36  37
ENDBRANCH  34  35
ENDBRANCH  31  34
ENDBRANCH  24  25
ENDBRANCH  17  18
ENDBRANCH  16  17
ENDBRANCH   6  16
TORSDOF 9
ENDMDL
MODEL       57
REMARK 921   NORMALIZED FREE ENERGY PREDICTED BY IDOCK:   -6.58 KCAL/MOL
REMARK 922        TOTAL FREE ENERGY PREDICTED BY IDOCK:  -11.97 KCAL/MOL
REMARK 923 INTER-LIGAND FREE ENERGY PREDICTED BY IDOCK:   -9.89 KCAL/MOL
REMARK 924 INTRA-LIGAND FREE ENERGY PREDICTED BY IDOCK:   -2.08 KCAL/MOL
REMARK 927      BINDING AFFINITY PREDICTED BY RF-SCORE:    0.00 PKD
ROOT
HETATM    1  O   UNL     1      -7.169  18.963  67.400  1.00  0.00    -0.212 OA 
HETATM    2  C   UNL     1      -8.108  18.200  68.151  1.00  0.00    -0.281 C  
HETATM    3  H   UNL     1      -6.273  18.740  67.626  1.00  0.00     0.000 HD 
HETATM    4  C   UNL     2     -11.819  11.752  63.828  1.00  0.00    -0.484 C  
HETATM    5  C   UNL     1      -9.575  18.565  67.782  1.00  0.00    -0.290 C  
HETATM    6  C   UNL     2     -12.285  13.197  63.737  1.00  0.00    -0.528 C  
HETATM    7  C   UNL     1      -9.775  18.379  66.252  1.00  0.00    -0.294 C  
HETATM    8  N   UNL     1     -10.445  17.598  68.522  1.00  0.00    -0.358 NA 
HETATM    9  C   UNL     1     -10.039  19.929  68.270  1.00  0.00    -0.447 C  
HETATM   10  H   UNL     1     -10.491  20.716  70.002  1.00  0.00     0.000 HD 
HETATM   11  H   UNL     1      -9.578  16.927  64.925  1.00  0.00     0.000 HD 
HETATM   12  H2  UNL     1     -10.272  17.583  69.527  1.00  0.00     0.000 HD 
HETATM   13  O   UNL     1      -9.456  17.041  65.859  1.00  0.00    -0.492 OA 
HETATM   14  O   UNL     1     -10.201  19.864  69.697  1.00  0.00    -0.249 OA 
HETATM   15  H1  UNL     1     -11.407  17.836  68.279  1.00  0.00     0.000 HD 
ENDROOT
BRANCH   6  16
HETATM   16  C   UNL     2     -12.377  13.900  65.092  1.00  0.00    -0.471 C  
BRANCH  16  17
HETATM   17  C   UNL     2     -11.985  13.040  66.297  1.00  0.00    -0.477 C  
BRANCH  17  18
HETATM   18  C   UNL     2     -11.012  13.718  67.290  1.00  0.00    -0.302 C  
HETATM   19  C   UNL     2      -9.492  13.545  67.065  1.00  0.00    -0.251 C  
HETATM   20  C   UNL     2      -8.609  14.401  67.985  1.00  0.00    -0.166 C  
HETATM   21  O   UNL     2      -9.214  13.965  65.725  1.00  0.00    -0.489 OA 
HETATM   22  C   UNL     2      -9.109  12.098  67.199  1.00  0.00    -0.189 C  
HETATM   23  H   UNL     2      -8.281  13.859  65.586  1.00  0.00     0.000 HD 
HETATM   24  C   UNL     2      -9.027  11.375  68.329  1.00  0.00    -0.175 C  
BRANCH  24  25
HETATM   25  C   UNL     2      -8.664   9.909  68.404  1.00  0.00    -0.120 C  
HETATM   26  C   UNL     2      -7.702   9.390  67.310  1.00  0.00    -0.091 C  
HETATM   27  C   UNL     2      -7.327   8.026  67.837  1.00  0.00    -0.093 C  
HETATM   28  O   UNL     2      -6.475  10.105  67.194  1.00  0.00    -0.066 OA 
HETATM   29  H   UNL     2      -5.884   9.786  66.522  1.00  0.00     0.000 HD 
HETATM   30  C   UNL     2      -7.091   8.270  69.327  1.00  0.00    -0.060 C  
HETATM   31  C   UNL     2      -8.013   9.447  69.743  1.00  0.00    -0.119 C  
HETATM   32  O   UNL     2      -7.331   7.049  70.007  1.00  0.00    -0.077 OA 
HETATM   33  H   UNL     2      -7.184   7.201  70.934  1.00  0.00     0.000 HD 
BRANCH  31  34
HETATM   34  C   UNL     2      -9.048   9.118  70.842  1.00  0.00    -0.316 C  
BRANCH  34  35
HETATM   35  C   UNL     2     -10.144   8.180  70.392  1.00  0.00    -0.196 C  
HETATM   36  C   UNL     2     -11.349   7.972  70.947  1.00  0.00    -0.291 C  
BRANCH  36  37
HETATM   37  C   UNL     2     -11.921   8.629  72.170  1.00  0.00    -0.449 C  
BRANCH  37  38
HETATM   38  C   UNL     2     -13.216   9.395  71.897  1.00  0.00    -0.507 C  
BRANCH  38  39
HETATM   39  C   UNL     2     -13.042  10.898  71.737  1.00  0.00    -0.564 C  
HETATM   40  C   UNL     2     -12.481  11.422  70.415  1.00  0.00    -0.261 C  
HETATM   41  O   UNL     2     -11.903  12.542  70.501  1.00  0.00    -0.265 OA 
HETATM   42  O   UNL     2     -12.675  10.764  69.341  1.00  0.00    -0.261 OA 
ENDBRANCH  38  39
ENDBRANCH  37  38
ENDBRANCH  36  37
ENDBRANCH  34  35
ENDBRANCH  31  34
ENDBRANCH  24  25
ENDBRANCH  17  18
ENDBRANCH  16  17
ENDBRANCH   6  16
TORSDOF 9
ENDMDL
MODEL       58
REMARK 921   NORMALIZED FREE ENERGY PREDICTED BY IDOCK:   -6.58 KCAL/MOL
REMARK 922        TOTAL FREE ENERGY PREDICTED BY IDOCK:  -11.96 KCAL/MOL
REMARK 923 INTER-LIGAND FREE ENERGY PREDICTED BY IDOCK:  -10.45 KCAL/MOL
REMARK 924 INTRA-LIGAND FREE ENERGY PREDICTED BY IDOCK:   -1.52 KCAL/MOL
REMARK 927      BINDING AFFINITY PREDICTED BY RF-SCORE:    0.00 PKD
ROOT
HETATM    1  O   UNL     1     -11.414   5.911  73.506  1.00  0.00    -0.403 OA 
HETATM    2  C   UNL     1     -11.515   6.120  72.101  1.00  0.00    -0.311 C  
HETATM    3  H   UNL     1     -11.087   5.043  73.710  1.00  0.00     0.000 HD 
HETATM    4  C   UNL     2      -5.269  10.966  68.699  1.00  0.00    -0.040 C  
HETATM    5  C   UNL     1     -12.050   7.543  71.766  1.00  0.00    -0.308 C  
HETATM    6  C   UNL     2      -6.492  11.544  69.396  1.00  0.00    -0.111 C  
HETATM    7  C   UNL     1     -11.134   8.602  72.441  1.00  0.00    -0.258 C  
HETATM    8  N   UNL     1     -11.965   7.682  70.278  1.00  0.00    -0.481 NA 
HETATM    9  C   UNL     1     -13.523   7.763  72.076  1.00  0.00    -0.180 C  
HETATM   10  H   UNL     1     -15.219   7.163  71.308  1.00  0.00     0.000 HD 
HETATM   11  H   UNL     1      -9.218   9.089  72.427  1.00  0.00     0.000 HD 
HETATM   12  H2  UNL     1     -12.447   6.939  69.773  1.00  0.00     0.000 HD 
HETATM   13  O   UNL     1      -9.777   8.442  72.015  1.00  0.00    -0.226 OA 
HETATM   14  O   UNL     1     -14.298   7.026  71.115  1.00  0.00    -0.227 OA 
HETATM   15  H1  UNL     1     -12.315   8.615  70.059  1.00  0.00     0.000 HD 
ENDROOT
BRANCH   6  16
HETATM   16  C   UNL     2      -7.806  10.877  68.987  1.00  0.00    -0.138 C  
BRANCH  16  17
HETATM   17  C   UNL     2      -7.751   9.351  68.870  1.00  0.00    -0.076 C  
BRANCH  17  18
HETATM   18  C   UNL     2      -9.113   8.671  68.600  1.00  0.00    -0.138 C  
HETATM   19  C   UNL     2      -9.467   8.285  67.145  1.00  0.00    -0.160 C  
HETATM   20  C   UNL     2     -10.749   7.452  67.000  1.00  0.00    -0.389 C  
HETATM   21  O   UNL     2      -8.395   7.474  66.651  1.00  0.00    -0.120 OA 
HETATM   22  C   UNL     2      -9.565   9.517  66.291  1.00  0.00    -0.287 C  
HETATM   23  H   UNL     2      -8.613   7.237  65.758  1.00  0.00     0.000 HD 
HETATM   24  C   UNL     2     -10.546  10.436  66.289  1.00  0.00    -0.180 C  
BRANCH  24  25
HETATM   25  C   UNL     2     -10.579  11.677  65.426  1.00  0.00    -0.331 C  
HETATM   26  C   UNL     2     -10.154  11.492  63.951  1.00  0.00    -0.345 C  
HETATM   27  C   UNL     2     -10.576  12.801  63.331  1.00  0.00    -0.014 C  
HETATM   28  O   UNL     2     -10.865  10.484  63.238  1.00  0.00    -0.240 OA 
HETATM   29  H   UNL     2     -10.604  10.370  62.332  1.00  0.00     0.000 HD 
HETATM   30  C   UNL     2     -11.955  13.056  63.938  1.00  0.00    -0.485 C  
HETATM   31  C   UNL     2     -11.959  12.399  65.343  1.00  0.00    -0.457 C  
HETATM   32  O   UNL     2     -12.178  14.457  63.928  1.00  0.00    -0.834 OA 
HETATM   33  H   UNL     2     -13.035  14.616  64.306  1.00  0.00     0.000 HD 
BRANCH  31  34
HETATM   34  C   UNL     2     -12.213  13.365  66.522  1.00  0.00    -0.414 C  
BRANCH  34  35
HETATM   35  C   UNL     2     -11.048  13.488  67.478  1.00  0.00    -0.293 C  
HETATM   36  C   UNL     2     -10.864  14.381  68.463  1.00  0.00    -0.260 C  
BRANCH  36  37
HETATM   37  C   UNL     2     -11.781  15.496  68.874  1.00  0.00    -0.385 C  
BRANCH  37  38
HETATM   38  C   UNL     2     -11.764  15.772  70.379  1.00  0.00    -0.390 C  
BRANCH  38  39
HETATM   39  C   UNL     2     -13.068  15.457  71.096  1.00  0.00    -0.565 C  
HETATM   40  C   UNL     2     -12.993  14.944  72.535  1.00  0.00    -0.383 C  
HETATM   41  O   UNL     2     -13.985  14.250  72.893  1.00  0.00    -0.586 OA 
HETATM   42  O   UNL     2     -12.014  15.283  73.276  1.00  0.00    -0.430 OA 
ENDBRANCH  38  39
ENDBRANCH  37  38
ENDBRANCH  36  37
ENDBRANCH  34  35
ENDBRANCH  31  34
ENDBRANCH  24  25
ENDBRANCH  17  18
ENDBRANCH  16  17
ENDBRANCH   6  16
TORSDOF 9
ENDMDL
MODEL       59
REMARK 921   NORMALIZED FREE ENERGY PREDICTED BY IDOCK:   -6.57 KCAL/MOL
REMARK 922        TOTAL FREE ENERGY PREDICTED BY IDOCK:  -11.96 KCAL/MOL
REMARK 923 INTER-LIGAND FREE ENERGY PREDICTED BY IDOCK:  -10.67 KCAL/MOL
REMARK 924 INTRA-LIGAND FREE ENERGY PREDICTED BY IDOCK:   -1.29 KCAL/MOL
REMARK 927      BINDING AFFINITY PREDICTED BY RF-SCORE:    0.00 PKD
ROOT
HETATM    1  O   UNL     1      -8.335  21.232  66.983  1.00  0.00    -0.557 OA 
HETATM    2  C   UNL     1      -8.884  20.075  66.361  1.00  0.00    -0.316 C  
HETATM    3  H   UNL     1      -8.766  22.027  66.691  1.00  0.00     0.000 HD 
HETATM    4  C   UNL     2     -14.160  15.444  71.338  1.00  0.00    -0.539 C  
HETATM    5  C   UNL     1      -8.179  18.772  66.839  1.00  0.00    -0.265 C  
HETATM    6  C   UNL     2     -12.644  15.330  71.392  1.00  0.00    -0.444 C  
HETATM    7  C   UNL     1      -8.265  18.689  68.388  1.00  0.00    -0.334 C  
HETATM    8  N   UNL     1      -8.942  17.637  66.233  1.00  0.00    -0.444 NA 
HETATM    9  C   UNL     1      -6.761  18.585  66.322  1.00  0.00    -0.224 C  
HETATM   10  H   UNL     1      -5.946  18.154  64.597  1.00  0.00     0.000 HD 
HETATM   11  H   UNL     1      -9.680  18.681  69.769  1.00  0.00     0.000 HD 
HETATM   12  H2  UNL     1      -9.029  17.701  65.218  1.00  0.00     0.000 HD 
HETATM   13  O   UNL     1      -9.627  18.732  68.823  1.00  0.00    -0.358 OA 
HETATM   14  O   UNL     1      -6.832  18.271  64.921  1.00  0.00    -0.258 OA 
HETATM   15  H1  UNL     1      -8.480  16.783  66.547  1.00  0.00     0.000 HD 
ENDROOT
BRANCH   6  16
HETATM   16  C   UNL     2     -11.982  15.265  70.014  1.00  0.00    -0.375 C  
BRANCH  16  17
HETATM   17  C   UNL     2     -10.476  14.991  70.030  1.00  0.00    -0.139 C  
BRANCH  17  18
HETATM   18  C   UNL     2      -9.798  15.010  68.641  1.00  0.00    -0.222 C  
HETATM   19  C   UNL     2     -10.435  14.185  67.499  1.00  0.00    -0.249 C  
HETATM   20  C   UNL     2      -9.803  14.411  66.118  1.00  0.00    -0.340 C  
HETATM   21  O   UNL     2     -11.803  14.596  67.395  1.00  0.00    -0.385 OA 
HETATM   22  C   UNL     2     -10.402  12.721  67.837  1.00  0.00    -0.228 C  
HETATM   23  H   UNL     2     -12.194  14.089  66.694  1.00  0.00     0.000 HD 
HETATM   24  C   UNL     2      -9.335  11.905  67.835  1.00  0.00    -0.187 C  
BRANCH  24  25
HETATM   25  C   UNL     2      -9.354  10.441  68.214  1.00  0.00    -0.150 C  
HETATM   26  C   UNL     2     -10.603   9.954  68.983  1.00  0.00    -0.220 C  
HETATM   27  C   UNL     2     -10.441   8.454  68.936  1.00  0.00    -0.208 C  
HETATM   28  O   UNL     2     -11.849  10.223  68.347  1.00  0.00    -0.709 OA 
HETATM   29  H   UNL     2     -12.617   9.924  68.819  1.00  0.00     0.000 HD 
HETATM   30  C   UNL     2      -9.999   8.186  67.499  1.00  0.00    -0.192 C  
HETATM   31  C   UNL     2      -9.216   9.440  67.026  1.00  0.00    -0.171 C  
HETATM   32  O   UNL     2      -9.257   6.977  67.494  1.00  0.00    -0.124 OA 
HETATM   33  H   UNL     2      -8.982   6.810  66.600  1.00  0.00     0.000 HD 
BRANCH  31  34
HETATM   34  C   UNL     2      -7.749   9.184  66.612  1.00  0.00    -0.097 C  
BRANCH  34  35
HETATM   35  C   UNL     2      -7.268  10.063  65.480  1.00  0.00    -0.133 C  
HETATM   36  C   UNL     2      -7.930  10.443  64.376  1.00  0.00    -0.085 C  
BRANCH  36  37
HETATM   37  C   UNL     2      -9.335  10.090  63.981  1.00  0.00    -0.324 C  
BRANCH  37  38
HETATM   38  C   UNL     2     -10.215  11.312  63.714  1.00  0.00    -0.431 C  
BRANCH  38  39
HETATM   39  C   UNL     2     -11.356  11.501  64.702  1.00  0.00    -0.226 C  
HETATM   40  C   UNL     2     -12.474  12.477  64.335  1.00  0.00    -0.446 C  
HETATM   41  O   UNL     2     -13.086  12.967  65.325  1.00  0.00    -0.682 OA 
HETATM   42  O   UNL     2     -12.755  12.683  63.109  1.00  0.00    -0.605 OA 
ENDBRANCH  38  39
ENDBRANCH  37  38
ENDBRANCH  36  37
ENDBRANCH  34  35
ENDBRANCH  31  34
ENDBRANCH  24  25
ENDBRANCH  17  18
ENDBRANCH  16  17
ENDBRANCH   6  16
TORSDOF 9
ENDMDL
MODEL       60
REMARK 921   NORMALIZED FREE ENERGY PREDICTED BY IDOCK:   -6.57 KCAL/MOL
REMARK 922        TOTAL FREE ENERGY PREDICTED BY IDOCK:  -11.94 KCAL/MOL
REMARK 923 INTER-LIGAND FREE ENERGY PREDICTED BY IDOCK:  -10.30 KCAL/MOL
REMARK 924 INTRA-LIGAND FREE ENERGY PREDICTED BY IDOCK:   -1.65 KCAL/MOL
REMARK 927      BINDING AFFINITY PREDICTED BY RF-SCORE:    0.00 PKD
ROOT
HETATM    1  O   UNL     1     -10.528  17.847  67.008  1.00  0.00    -0.358 OA 
HETATM    2  C   UNL     1      -9.822  16.804  67.673  1.00  0.00    -0.261 C  
HETATM    3  H   UNL     1      -9.955  18.567  66.774  1.00  0.00     0.000 HD 
HETATM    4  C   UNL     2      -8.128   9.906  62.814  1.00  0.00    -0.136 C  
HETATM    5  C   UNL     1     -10.762  15.624  68.056  1.00  0.00    -0.287 C  
HETATM    6  C   UNL     2      -9.467  10.140  63.498  1.00  0.00    -0.310 C  
HETATM    7  C   UNL     1     -11.478  15.109  66.776  1.00  0.00    -0.195 C  
HETATM    8  N   UNL     1      -9.877  14.547  68.603  1.00  0.00    -0.230 NA 
HETATM    9  C   UNL     1     -11.732  15.919  69.189  1.00  0.00    -0.363 C  
HETATM   10  H   UNL     1     -11.589  16.170  71.124  1.00  0.00     0.000 HD 
HETATM   11  H   UNL     1     -10.960  14.400  65.005  1.00  0.00     0.000 HD 
HETATM   12  H2  UNL     1      -9.285  14.860  69.372  1.00  0.00     0.000 HD 
HETATM   13  O   UNL     1     -10.523  14.715  65.786  1.00  0.00    -0.292 OA 
HETATM   14  O   UNL     1     -10.984  15.985  70.415  1.00  0.00    -0.335 OA 
HETATM   15  H1  UNL     1     -10.493  13.773  68.853  1.00  0.00     0.000 HD 
ENDROOT
BRANCH   6  16
HETATM   16  C   UNL     2      -9.343  10.604  64.951  1.00  0.00    -0.271 C  
BRANCH  16  17
HETATM   17  C   UNL     2     -10.100   9.751  65.972  1.00  0.00    -0.322 C  
BRANCH  17  18
HETATM   18  C   UNL     2      -9.238   8.695  66.703  1.00  0.00    -0.227 C  
HETATM   19  C   UNL     2      -9.957   7.551  67.455  1.00  0.00    -0.187 C  
HETATM   20  C   UNL     2      -9.024   6.455  67.990  1.00  0.00    -0.115 C  
HETATM   21  O   UNL     2     -10.836   6.918  66.518  1.00  0.00    -0.509 OA 
HETATM   22  C   UNL     2     -10.781   8.108  68.581  1.00  0.00    -0.065 C  
HETATM   23  H   UNL     2     -11.278   6.216  66.980  1.00  0.00     0.000 HD 
HETATM   24  C   UNL     2     -10.341   8.603  69.750  1.00  0.00    -0.212 C  
BRANCH  24  25
HETATM   25  C   UNL     2     -11.217   9.180  70.839  1.00  0.00    -0.359 C  
HETATM   26  C   UNL     2     -11.879  10.543  70.529  1.00  0.00    -0.347 C  
HETATM   27  C   UNL     2     -12.878  10.674  71.653  1.00  0.00    -0.570 C  
HETATM   28  O   UNL     2     -12.646  10.584  69.329  1.00  0.00    -0.726 OA 
HETATM   29  H   UNL     2     -13.053  11.421  69.138  1.00  0.00     0.000 HD 
HETATM   30  C   UNL     2     -13.490   9.278  71.753  1.00  0.00    -0.415 C  
HETATM   31  C   UNL     2     -12.397   8.272  71.302  1.00  0.00    -0.285 C  
HETATM   32  O   UNL     2     -13.953   9.105  73.083  1.00  0.00    -1.101 OA 
HETATM   33  H   UNL     2     -14.334   8.237  73.145  1.00  0.00     0.000 HD 
BRANCH  31  34
HETATM   34  C   UNL     2     -11.983   7.228  72.362  1.00  0.00    -0.202 C  
BRANCH  34  35
HETATM   35  C   UNL     2     -10.785   7.634  73.189  1.00  0.00    -0.445 C  
HETATM   36  C   UNL     2      -9.539   7.135  73.160  1.00  0.00    -0.213 C  
BRANCH  36  37
HETATM   37  C   UNL     2      -9.012   6.034  72.285  1.00  0.00    -0.141 C  
BRANCH  37  38
HETATM   38  C   UNL     2      -8.552   4.804  73.069  1.00  0.00    -0.114 C  
BRANCH  38  39
HETATM   39  C   UNL     2      -9.177   3.493  72.617  1.00  0.00    -0.140 C  
HETATM   40  C   UNL     2     -10.558   3.128  73.162  1.00  0.00    -0.167 C  
HETATM   41  O   UNL     2     -10.802   1.889  73.178  1.00  0.00    -0.135 OA 
HETATM   42  O   UNL     2     -11.372   4.051  73.492  1.00  0.00    -0.262 OA 
ENDBRANCH  38  39
ENDBRANCH  37  38
ENDBRANCH  36  37
ENDBRANCH  34  35
ENDBRANCH  31  34
ENDBRANCH  24  25
ENDBRANCH  17  18
ENDBRANCH  16  17
ENDBRANCH   6  16
TORSDOF 9
ENDMDL
MODEL       61
REMARK 921   NORMALIZED FREE ENERGY PREDICTED BY IDOCK:   -6.55 KCAL/MOL
REMARK 922        TOTAL FREE ENERGY PREDICTED BY IDOCK:  -11.92 KCAL/MOL
REMARK 923 INTER-LIGAND FREE ENERGY PREDICTED BY IDOCK:  -10.11 KCAL/MOL
REMARK 924 INTRA-LIGAND FREE ENERGY PREDICTED BY IDOCK:   -1.82 KCAL/MOL
REMARK 927      BINDING AFFINITY PREDICTED BY RF-SCORE:    0.00 PKD
ROOT
HETATM    1  O   UNL     1     -10.790   7.225  73.961  1.00  0.00    -0.556 OA 
HETATM    2  C   UNL     1      -9.878   7.795  73.028  1.00  0.00    -0.282 C  
HETATM    3  H   UNL     1     -11.542   7.787  74.107  1.00  0.00     0.000 HD 
HETATM    4  C   UNL     2     -10.158   4.374  65.137  1.00  0.00    -0.193 C  
HETATM    5  C   UNL     1      -8.646   6.874  72.789  1.00  0.00    -0.119 C  
HETATM    6  C   UNL     2      -9.391   3.750  66.293  1.00  0.00    -0.190 C  
HETATM    7  C   UNL     1      -9.140   5.475  72.330  1.00  0.00    -0.142 C  
HETATM    8  N   UNL     1      -7.855   7.512  71.690  1.00  0.00    -0.085 NA 
HETATM    9  C   UNL     1      -7.669   6.796  73.952  1.00  0.00    -0.094 C  
HETATM   10  H   UNL     1      -6.359   8.001  74.764  1.00  0.00     0.000 HD 
HETATM   11  H   UNL     1     -10.246   4.729  70.871  1.00  0.00     0.000 HD 
HETATM   12  H2  UNL     1      -7.604   8.483  71.881  1.00  0.00     0.000 HD 
HETATM   13  O   UNL     1      -9.945   5.584  71.152  1.00  0.00    -0.179 OA 
HETATM   14  O   UNL     1      -6.970   8.049  74.037  1.00  0.00    -0.116 OA 
HETATM   15  H1  UNL     1      -7.047   6.908  71.534  1.00  0.00     0.000 HD 
ENDROOT
BRANCH   6  16
HETATM   16  C   UNL     2      -8.570   4.757  67.101  1.00  0.00    -0.104 C  
BRANCH  16  17
HETATM   17  C   UNL     2      -8.809   6.226  66.742  1.00  0.00    -0.126 C  
BRANCH  17  18
HETATM   18  C   UNL     2      -8.985   7.170  67.955  1.00  0.00    -0.122 C  
HETATM   19  C   UNL     2     -10.282   8.005  68.055  1.00  0.00    -0.210 C  
HETATM   20  C   UNL     2     -10.450   8.768  69.378  1.00  0.00    -0.228 C  
HETATM   21  O   UNL     2     -11.380   7.090  67.970  1.00  0.00    -0.519 OA 
HETATM   22  C   UNL     2     -10.372   8.965  66.903  1.00  0.00    -0.332 C  
HETATM   23  H   UNL     2     -12.177   7.603  68.031  1.00  0.00     0.000 HD 
HETATM   24  C   UNL     2      -9.659  10.089  66.718  1.00  0.00    -0.228 C  
BRANCH  24  25
HETATM   25  C   UNL     2      -9.769  11.006  65.520  1.00  0.00    -0.274 C  
HETATM   26  C   UNL     2      -9.092  10.512  64.221  1.00  0.00    -0.228 C  
HETATM   27  C   UNL     2      -9.629  11.478  63.194  1.00  0.00    -0.381 C  
HETATM   28  O   UNL     2      -9.498   9.220  63.780  1.00  0.00    -0.372 OA 
HETATM   29  H   UNL     2      -9.082   8.915  62.982  1.00  0.00     0.000 HD 
HETATM   30  C   UNL     2     -11.110  11.595  63.554  1.00  0.00    -0.393 C  
HETATM   31  C   UNL     2     -11.222  11.369  65.085  1.00  0.00    -0.146 C  
HETATM   32  O   UNL     2     -11.565  12.860  63.098  1.00  0.00    -0.796 OA 
HETATM   33  H   UNL     2     -12.486  12.932  63.322  1.00  0.00     0.000 HD 
BRANCH  31  34
HETATM   34  C   UNL     2     -11.820  12.549  65.884  1.00  0.00    -0.489 C  
BRANCH  34  35
HETATM   35  C   UNL     2     -10.786  13.422  66.557  1.00  0.00    -0.287 C  
HETATM   36  C   UNL     2     -10.564  13.597  67.869  1.00  0.00    -0.255 C  
BRANCH  36  37
HETATM   37  C   UNL     2     -11.294  12.960  69.017  1.00  0.00    -0.341 C  
BRANCH  37  38
HETATM   38  C   UNL     2     -12.284  13.902  69.703  1.00  0.00    -0.374 C  
BRANCH  38  39
HETATM   39  C   UNL     2     -12.659  13.505  71.123  1.00  0.00    -0.438 C  
HETATM   40  C   UNL     2     -13.458  14.501  71.964  1.00  0.00    -0.384 C  
HETATM   41  O   UNL     2     -13.312  14.367  73.211  1.00  0.00    -0.616 OA 
HETATM   42  O   UNL     2     -14.238  15.330  71.390  1.00  0.00    -0.504 OA 
ENDBRANCH  38  39
ENDBRANCH  37  38
ENDBRANCH  36  37
ENDBRANCH  34  35
ENDBRANCH  31  34
ENDBRANCH  24  25
ENDBRANCH  17  18
ENDBRANCH  16  17
ENDBRANCH   6  16
TORSDOF 9
ENDMDL
MODEL       62
REMARK 921   NORMALIZED FREE ENERGY PREDICTED BY IDOCK:   -6.54 KCAL/MOL
REMARK 922        TOTAL FREE ENERGY PREDICTED BY IDOCK:  -11.91 KCAL/MOL
REMARK 923 INTER-LIGAND FREE ENERGY PREDICTED BY IDOCK:   -9.75 KCAL/MOL
REMARK 924 INTRA-LIGAND FREE ENERGY PREDICTED BY IDOCK:   -2.17 KCAL/MOL
REMARK 927      BINDING AFFINITY PREDICTED BY RF-SCORE:    0.00 PKD
ROOT
HETATM    1  O   UNL     1     -11.179   6.086  70.931  1.00  0.00    -0.299 OA 
HETATM    2  C   UNL     1     -11.784   7.179  70.248  1.00  0.00    -0.182 C  
HETATM    3  H   UNL     1     -11.728   5.311  70.911  1.00  0.00     0.000 HD 
HETATM    4  C   UNL     2      -8.570   8.793  62.430  1.00  0.00    -0.188 C  
HETATM    5  C   UNL     1     -10.885   8.449  70.280  1.00  0.00    -0.239 C  
HETATM    6  C   UNL     2      -7.925   9.283  63.718  1.00  0.00    -0.142 C  
HETATM    7  C   UNL     1      -9.492   8.100  69.686  1.00  0.00    -0.159 C  
HETATM    8  N   UNL     1     -11.561   9.462  69.409  1.00  0.00    -0.367 NA 
HETATM    9  C   UNL     1     -10.787   9.131  71.635  1.00  0.00    -0.372 C  
HETATM   10  H   UNL     1     -11.986  10.197  72.755  1.00  0.00     0.000 HD 
HETATM   11  H   UNL     1      -8.771   7.374  67.994  1.00  0.00     0.000 HD 
HETATM   12  H2  UNL     1     -12.529   9.644  69.674  1.00  0.00     0.000 HD 
HETATM   13  O   UNL     1      -9.622   7.587  68.357  1.00  0.00    -0.147 OA 
HETATM   14  O   UNL     1     -12.046   9.770  71.908  1.00  0.00    -0.375 OA 
HETATM   15  H1  UNL     1     -10.971  10.294  69.430  1.00  0.00     0.000 HD 
ENDROOT
BRANCH   6  16
HETATM   16  C   UNL     2      -8.919   9.877  64.717  1.00  0.00    -0.255 C  
BRANCH  16  17
HETATM   17  C   UNL     2      -9.543  11.211  64.296  1.00  0.00    -0.288 C  
BRANCH  17  18
HETATM   18  C   UNL     2     -10.817  11.607  65.078  1.00  0.00    -0.346 C  
HETATM   19  C   UNL     2     -11.090  13.108  65.328  1.00  0.00    -0.283 C  
HETATM   20  C   UNL     2     -12.462  13.414  65.945  1.00  0.00    -0.468 C  
HETATM   21  O   UNL     2     -11.062  13.759  64.052  1.00  0.00    -0.576 OA 
HETATM   22  C   UNL     2     -10.006  13.697  66.186  1.00  0.00    -0.314 C  
HETATM   23  H   UNL     2     -11.229  14.682  64.205  1.00  0.00     0.000 HD 
HETATM   24  C   UNL     2      -9.814  13.511  67.503  1.00  0.00    -0.227 C  
BRANCH  24  25
HETATM   25  C   UNL     2      -8.685  14.106  68.315  1.00  0.00    -0.181 C  
HETATM   26  C   UNL     2      -7.337  13.352  68.259  1.00  0.00    -0.113 C  
HETATM   27  C   UNL     2      -6.394  14.337  68.904  1.00  0.00    -0.089 C  
HETATM   28  O   UNL     2      -6.821  13.129  66.950  1.00  0.00    -0.411 OA 
HETATM   29  H   UNL     2      -5.992  12.665  66.916  1.00  0.00     0.000 HD 
HETATM   30  C   UNL     2      -6.803  15.677  68.292  1.00  0.00    -0.119 C  
HETATM   31  C   UNL     2      -8.318  15.582  67.969  1.00  0.00    -0.142 C  
HETATM   32  O   UNL     2      -6.447  16.697  69.212  1.00  0.00    -0.181 OA 
HETATM   33  H   UNL     2      -6.701  17.530  68.831  1.00  0.00     0.000 HD 
BRANCH  31  34
HETATM   34  C   UNL     2      -9.212  16.617  68.688  1.00  0.00    -0.248 C  
BRANCH  34  35
HETATM   35  C   UNL     2     -10.373  17.109  67.855  1.00  0.00    -0.350 C  
HETATM   36  C   UNL     2     -10.753  18.373  67.613  1.00  0.00    -0.390 C  
BRANCH  36  37
HETATM   37  C   UNL     2     -10.111  19.636  68.112  1.00  0.00    -0.556 C  
BRANCH  37  38
HETATM   38  C   UNL     2      -9.286  20.359  67.045  1.00  0.00    -0.511 C  
BRANCH  38  39
HETATM   39  C   UNL     2      -7.782  20.305  67.262  1.00  0.00    -0.357 C  
HETATM   40  C   UNL     2      -6.998  19.171  66.600  1.00  0.00    -0.205 C  
HETATM   41  O   UNL     2      -5.917  18.875  67.182  1.00  0.00    -0.160 OA 
HETATM   42  O   UNL     2      -7.427  18.656  65.517  1.00  0.00    -0.505 OA 
ENDBRANCH  38  39
ENDBRANCH  37  38
ENDBRANCH  36  37
ENDBRANCH  34  35
ENDBRANCH  31  34
ENDBRANCH  24  25
ENDBRANCH  17  18
ENDBRANCH  16  17
ENDBRANCH   6  16
TORSDOF 9
ENDMDL
MODEL       63
REMARK 921   NORMALIZED FREE ENERGY PREDICTED BY IDOCK:   -6.54 KCAL/MOL
REMARK 922        TOTAL FREE ENERGY PREDICTED BY IDOCK:  -11.91 KCAL/MOL
REMARK 923 INTER-LIGAND FREE ENERGY PREDICTED BY IDOCK:   -9.47 KCAL/MOL
REMARK 924 INTRA-LIGAND FREE ENERGY PREDICTED BY IDOCK:   -2.43 KCAL/MOL
REMARK 927      BINDING AFFINITY PREDICTED BY RF-SCORE:    0.00 PKD
ROOT
HETATM    1  O   UNL     1     -10.349   4.504  66.339  1.00  0.00    -0.297 OA 
HETATM    2  C   UNL     1     -10.578   5.060  67.630  1.00  0.00     0.081 C  
HETATM    3  H   UNL     1     -11.121   4.561  65.788  1.00  0.00     0.000 HD 
HETATM    4  C   UNL     2      -7.180  12.869  68.868  1.00  0.00    -0.042 C  
HETATM    5  C   UNL     1      -9.312   4.967  68.530  1.00  0.00    -0.127 C  
HETATM    6  C   UNL     2      -6.383  11.579  68.995  1.00  0.00    -0.069 C  
HETATM    7  C   UNL     1      -8.123   5.659  67.808  1.00  0.00    -0.101 C  
HETATM    8  N   UNL     1      -9.638   5.712  69.787  1.00  0.00    -0.153 NA 
HETATM    9  C   UNL     1      -8.968   3.565  69.009  1.00  0.00    -0.124 C  
HETATM   10  H   UNL     1      -9.728   2.298  70.291  1.00  0.00     0.000 HD 
HETATM   11  H   UNL     1      -7.716   7.442  67.057  1.00  0.00     0.000 HD 
HETATM   12  H2  UNL     1     -10.488   5.382  70.246  1.00  0.00     0.000 HD 
HETATM   13  O   UNL     1      -8.442   7.019  67.498  1.00  0.00    -0.121 OA 
HETATM   14  O   UNL     1      -9.942   3.174  69.991  1.00  0.00     0.066 OA 
HETATM   15  H1  UNL     1      -8.809   5.652  70.377  1.00  0.00     0.000 HD 
ENDROOT
BRANCH   6  16
HETATM   16  C   UNL     2      -7.107  10.483  69.779  1.00  0.00    -0.150 C  
BRANCH  16  17
HETATM   17  C   UNL     2      -8.598  10.335  69.461  1.00  0.00    -0.153 C  
BRANCH  17  18
HETATM   18  C   UNL     2      -9.416   9.570  70.527  1.00  0.00    -0.306 C  
HETATM   19  C   UNL     2     -10.894   9.236  70.220  1.00  0.00    -0.246 C  
HETATM   20  C   UNL     2     -11.569   8.319  71.250  1.00  0.00    -0.318 C  
HETATM   21  O   UNL     2     -10.918   8.535  68.972  1.00  0.00    -0.426 OA 
HETATM   22  C   UNL     2     -11.692  10.501  70.070  1.00  0.00    -0.394 C  
HETATM   23  H   UNL     2     -11.826   8.330  68.783  1.00  0.00     0.000 HD 
HETATM   24  C   UNL     2     -12.081  11.343  71.043  1.00  0.00    -0.303 C  
BRANCH  24  25
HETATM   25  C   UNL     2     -12.859  12.622  70.832  1.00  0.00    -0.178 C  
HETATM   26  C   UNL     2     -13.557  13.207  72.082  1.00  0.00    -0.544 C  
HETATM   27  C   UNL     2     -13.967  14.578  71.605  1.00  0.00    -0.527 C  
HETATM   28  O   UNL     2     -12.706  13.430  73.203  1.00  0.00     0.022 OA 
HETATM   29  H   UNL     2     -13.135  13.789  73.971  1.00  0.00     0.000 HD 
HETATM   30  C   UNL     2     -12.742  15.071  70.836  1.00  0.00    -0.375 C  
HETATM   31  C   UNL     2     -12.041  13.816  70.253  1.00  0.00    -0.425 C  
HETATM   32  O   UNL     2     -13.188  16.014  69.874  1.00  0.00    -0.479 OA 
HETATM   33  H   UNL     2     -12.426  16.320  69.396  1.00  0.00     0.000 HD 
BRANCH  31  34
HETATM   34  C   UNL     2     -11.923  13.783  68.712  1.00  0.00    -0.400 C  
BRANCH  34  35
HETATM   35  C   UNL     2     -10.524  14.037  68.198  1.00  0.00    -0.243 C  
HETATM   36  C   UNL     2      -9.856  13.386  67.234  1.00  0.00    -0.233 C  
BRANCH  36  37
HETATM   37  C   UNL     2     -10.333  12.225  66.409  1.00  0.00    -0.250 C  
BRANCH  37  38
HETATM   38  C   UNL     2     -10.554  12.579  64.937  1.00  0.00    -0.330 C  
BRANCH  38  39
HETATM   39  C   UNL     2     -10.740  14.063  64.662  1.00  0.00    -0.416 C  
HETATM   40  C   UNL     2     -12.167  14.608  64.580  1.00  0.00    -0.456 C  
HETATM   41  O   UNL     2     -12.286  15.656  63.886  1.00  0.00    -0.673 OA 
HETATM   42  O   UNL     2     -13.099  14.039  65.236  1.00  0.00    -0.782 OA 
ENDBRANCH  38  39
ENDBRANCH  37  38
ENDBRANCH  36  37
ENDBRANCH  34  35
ENDBRANCH  31  34
ENDBRANCH  24  25
ENDBRANCH  17  18
ENDBRANCH  16  17
ENDBRANCH   6  16
TORSDOF 9
ENDMDL
MODEL       64
REMARK 921   NORMALIZED FREE ENERGY PREDICTED BY IDOCK:   -6.51 KCAL/MOL
REMARK 922        TOTAL FREE ENERGY PREDICTED BY IDOCK:  -11.86 KCAL/MOL
REMARK 923 INTER-LIGAND FREE ENERGY PREDICTED BY IDOCK:   -9.79 KCAL/MOL
REMARK 924 INTRA-LIGAND FREE ENERGY PREDICTED BY IDOCK:   -2.07 KCAL/MOL
REMARK 927      BINDING AFFINITY PREDICTED BY RF-SCORE:    0.00 PKD
ROOT
HETATM    1  O   UNL     1     -10.153  17.812  67.597  1.00  0.00    -0.312 OA 
HETATM    2  C   UNL     1      -9.594  16.660  68.220  1.00  0.00    -0.233 C  
HETATM    3  H   UNL     1      -9.501  18.490  67.460  1.00  0.00     0.000 HD 
HETATM    4  C   UNL     2      -8.184  10.012  62.940  1.00  0.00    -0.153 C  
HETATM    5  C   UNL     1     -10.661  15.550  68.444  1.00  0.00    -0.263 C  
HETATM    6  C   UNL     2      -9.542  10.322  63.552  1.00  0.00    -0.321 C  
HETATM    7  C   UNL     1     -11.327  15.203  67.084  1.00  0.00    -0.290 C  
HETATM    8  N   UNL     1      -9.920  14.356  68.959  1.00  0.00    -0.368 NA 
HETATM    9  C   UNL     1     -11.680  15.851  69.533  1.00  0.00    -0.326 C  
HETATM   10  H   UNL     1     -11.655  15.943  71.486  1.00  0.00     0.000 HD 
HETATM   11  H   UNL     1     -10.749  14.581  65.298  1.00  0.00     0.000 HD 
HETATM   12  H2  UNL     1      -9.359  14.552  69.788  1.00  0.00     0.000 HD 
HETATM   13  O   UNL     1     -10.342  14.793  66.129  1.00  0.00    -0.281 OA 
HETATM   14  O   UNL     1     -11.019  15.755  70.806  1.00  0.00    -0.326 OA 
HETATM   15  H1  UNL     1     -10.619  13.628  69.106  1.00  0.00     0.000 HD 
ENDROOT
BRANCH   6  16
HETATM   16  C   UNL     2      -9.481  10.663  65.042  1.00  0.00    -0.293 C  
BRANCH  16  17
HETATM   17  C   UNL     2     -10.186   9.665  65.966  1.00  0.00    -0.255 C  
BRANCH  17  18
HETATM   18  C   UNL     2      -9.244   8.688  66.707  1.00  0.00    -0.211 C  
HETATM   19  C   UNL     2      -9.872   7.527  67.511  1.00  0.00    -0.162 C  
HETATM   20  C   UNL     2      -8.862   6.507  68.056  1.00  0.00    -0.114 C  
HETATM   21  O   UNL     2     -10.732   6.811  66.616  1.00  0.00    -0.492 OA 
HETATM   22  C   UNL     2     -10.704   8.067  68.640  1.00  0.00    -0.066 C  
HETATM   23  H   UNL     2     -11.118   6.098  67.110  1.00  0.00     0.000 HD 
HETATM   24  C   UNL     2     -10.269   8.626  69.782  1.00  0.00    -0.206 C  
BRANCH  24  25
HETATM   25  C   UNL     2     -11.154   9.183  70.875  1.00  0.00    -0.356 C  
HETATM   26  C   UNL     2     -11.872  10.515  70.556  1.00  0.00    -0.347 C  
HETATM   27  C   UNL     2     -12.862  10.623  71.689  1.00  0.00    -0.570 C  
HETATM   28  O   UNL     2     -12.653  10.512  69.364  1.00  0.00    -0.701 OA 
HETATM   29  H   UNL     2     -13.094  11.330  69.168  1.00  0.00     0.000 HD 
HETATM   30  C   UNL     2     -13.419   9.205  71.814  1.00  0.00    -0.416 C  
HETATM   31  C   UNL     2     -12.294   8.237  71.361  1.00  0.00    -0.326 C  
HETATM   32  O   UNL     2     -13.860   9.031  73.151  1.00  0.00    -1.096 OA 
HETATM   33  H   UNL     2     -14.207   8.150  73.228  1.00  0.00     0.000 HD 
BRANCH  31  34
HETATM   34  C   UNL     2     -11.828   7.222  72.430  1.00  0.00    -0.247 C  
BRANCH  34  35
HETATM   35  C   UNL     2     -10.654   7.695  73.256  1.00  0.00    -0.411 C  
HETATM   36  C   UNL     2      -9.439   7.139  73.379  1.00  0.00    -0.234 C  
BRANCH  36  37
HETATM   37  C   UNL     2      -8.929   5.891  72.717  1.00  0.00    -0.123 C  
BRANCH  37  38
HETATM   38  C   UNL     2      -8.020   6.169  71.518  1.00  0.00    -0.110 C  
BRANCH  38  39
HETATM   39  C   UNL     2      -7.082   7.352  71.694  1.00  0.00    -0.062 C  
HETATM   40  C   UNL     2      -5.870   7.181  72.611  1.00  0.00    -0.041 C  
HETATM   41  O   UNL     2      -5.436   8.257  73.109  1.00  0.00    -0.046 OA 
HETATM   42  O   UNL     2      -5.351   6.027  72.763  1.00  0.00    -0.029 OA 
ENDBRANCH  38  39
ENDBRANCH  37  38
ENDBRANCH  36  37
ENDBRANCH  34  35
ENDBRANCH  31  34
ENDBRANCH  24  25
ENDBRANCH  17  18
ENDBRANCH  16  17
ENDBRANCH   6  16
TORSDOF 9
ENDMDL
MODEL       65
REMARK 921   NORMALIZED FREE ENERGY PREDICTED BY IDOCK:   -6.50 KCAL/MOL
REMARK 922        TOTAL FREE ENERGY PREDICTED BY IDOCK:  -11.85 KCAL/MOL
REMARK 923 INTER-LIGAND FREE ENERGY PREDICTED BY IDOCK:   -9.02 KCAL/MOL
REMARK 924 INTRA-LIGAND FREE ENERGY PREDICTED BY IDOCK:   -2.82 KCAL/MOL
REMARK 927      BINDING AFFINITY PREDICTED BY RF-SCORE:    0.00 PKD
ROOT
HETATM    1  O   UNL     1     -11.584   7.804  72.600  1.00  0.00    -0.405 OA 
HETATM    2  C   UNL     1     -10.381   7.417  71.943  1.00  0.00    -0.192 C  
HETATM    3  H   UNL     1     -11.511   7.723  73.544  1.00  0.00     0.000 HD 
HETATM    4  C   UNL     2      -5.546  13.944  69.100  1.00  0.00    -0.078 C  
HETATM    5  C   UNL     1     -10.500   7.550  70.397  1.00  0.00    -0.223 C  
HETATM    6  C   UNL     2      -6.747  13.399  68.341  1.00  0.00    -0.096 C  
HETATM    7  C   UNL     1     -10.906   9.007  70.042  1.00  0.00    -0.231 C  
HETATM    8  N   UNL     1      -9.137   7.262  69.847  1.00  0.00    -0.142 NA 
HETATM    9  C   UNL     1     -11.394   6.516  69.731  1.00  0.00    -0.393 C  
HETATM   10  H   UNL     1     -11.280   4.599  69.357  1.00  0.00     0.000 HD 
HETATM   11  H   UNL     1     -10.209  10.830  70.357  1.00  0.00     0.000 HD 
HETATM   12  H2  UNL     1      -8.759   6.364  70.149  1.00  0.00     0.000 HD 
HETATM   13  O   UNL     1      -9.960   9.940  70.574  1.00  0.00    -0.244 OA 
HETATM   14  O   UNL     1     -10.721   5.246  69.773  1.00  0.00    -0.286 OA 
HETATM   15  H1  UNL     1      -9.215   7.349  68.834  1.00  0.00     0.000 HD 
ENDROOT
BRANCH   6  16
HETATM   16  C   UNL     2      -6.796  11.871  68.283  1.00  0.00    -0.066 C  
BRANCH  16  17
HETATM   17  C   UNL     2      -6.748  11.272  66.874  1.00  0.00    -0.135 C  
BRANCH  17  18
HETATM   18  C   UNL     2      -7.946  10.363  66.513  1.00  0.00    -0.123 C  
HETATM   19  C   UNL     2      -9.017  10.909  65.542  1.00  0.00    -0.197 C  
HETATM   20  C   UNL     2     -10.064   9.876  65.099  1.00  0.00    -0.177 C  
HETATM   21  O   UNL     2      -8.335  11.333  64.356  1.00  0.00    -0.286 OA 
HETATM   22  C   UNL     2      -9.707  12.100  66.146  1.00  0.00    -0.254 C  
HETATM   23  H   UNL     2      -8.993  11.669  63.760  1.00  0.00     0.000 HD 
HETATM   24  C   UNL     2     -10.606  12.105  67.145  1.00  0.00    -0.254 C  
BRANCH  24  25
HETATM   25  C   UNL     2     -11.248  13.340  67.736  1.00  0.00    -0.308 C  
HETATM   26  C   UNL     2     -12.012  13.138  69.065  1.00  0.00    -0.285 C  
HETATM   27  C   UNL     2     -12.256  14.559  69.511  1.00  0.00    -0.306 C  
HETATM   28  O   UNL     2     -11.259  12.532  70.112  1.00  0.00    -0.461 OA 
HETATM   29  H   UNL     2     -11.728  12.408  70.928  1.00  0.00     0.000 HD 
HETATM   30  C   UNL     2     -10.924  15.254  69.233  1.00  0.00    -0.261 C  
HETATM   31  C   UNL     2     -10.278  14.526  68.024  1.00  0.00    -0.233 C  
HETATM   32  O   UNL     2     -11.192  16.633  69.032  1.00  0.00    -0.271 OA 
HETATM   33  H   UNL     2     -10.364  17.066  68.859  1.00  0.00     0.000 HD 
BRANCH  31  34
HETATM   34  C   UNL     2     -10.014  15.412  66.786  1.00  0.00    -0.256 C  
BRANCH  34  35
HETATM   35  C   UNL     2      -8.549  15.669  66.516  1.00  0.00    -0.335 C  
HETATM   36  C   UNL     2      -7.703  16.468  67.184  1.00  0.00    -0.214 C  
BRANCH  36  37
HETATM   37  C   UNL     2      -7.999  17.318  68.386  1.00  0.00    -0.253 C  
BRANCH  37  38
HETATM   38  C   UNL     2      -8.129  18.807  68.059  1.00  0.00    -0.308 C  
BRANCH  38  39
HETATM   39  C   UNL     2      -8.779  19.106  66.717  1.00  0.00    -0.322 C  
HETATM   40  C   UNL     2     -10.304  19.028  66.621  1.00  0.00    -0.428 C  
HETATM   41  O   UNL     2     -10.742  18.787  65.461  1.00  0.00    -0.569 OA 
HETATM   42  O   UNL     2     -11.014  19.261  67.653  1.00  0.00    -0.431 OA 
ENDBRANCH  38  39
ENDBRANCH  37  38
ENDBRANCH  36  37
ENDBRANCH  34  35
ENDBRANCH  31  34
ENDBRANCH  24  25
ENDBRANCH  17  18
ENDBRANCH  16  17
ENDBRANCH   6  16
TORSDOF 9
ENDMDL
MODEL       66
REMARK 921   NORMALIZED FREE ENERGY PREDICTED BY IDOCK:   -6.50 KCAL/MOL
REMARK 922        TOTAL FREE ENERGY PREDICTED BY IDOCK:  -11.84 KCAL/MOL
REMARK 923 INTER-LIGAND FREE ENERGY PREDICTED BY IDOCK:  -10.57 KCAL/MOL
REMARK 924 INTRA-LIGAND FREE ENERGY PREDICTED BY IDOCK:   -1.27 KCAL/MOL
REMARK 927      BINDING AFFINITY PREDICTED BY RF-SCORE:    0.00 PKD
ROOT
HETATM    1  O   UNL     1      -8.512   8.227  74.498  1.00  0.00    -0.400 OA 
HETATM    2  C   UNL     1      -8.193   7.317  73.449  1.00  0.00    -0.112 C  
HETATM    3  H   UNL     1      -7.842   8.237  75.171  1.00  0.00     0.000 HD 
HETATM    4  C   UNL     2      -5.271  10.986  66.235  1.00  0.00    -0.122 C  
HETATM    5  C   UNL     1      -9.291   7.300  72.346  1.00  0.00    -0.138 C  
HETATM    6  C   UNL     2      -6.748  10.878  66.579  1.00  0.00    -0.133 C  
HETATM    7  C   UNL     1      -9.496   8.745  71.812  1.00  0.00    -0.293 C  
HETATM    8  N   UNL     1      -8.765   6.430  71.248  1.00  0.00    -0.134 NA 
HETATM    9  C   UNL     1     -10.597   6.636  72.752  1.00  0.00    -0.232 C  
HETATM   10  H   UNL     1     -11.190   4.803  73.089  1.00  0.00     0.000 HD 
HETATM   11  H   UNL     1      -8.391  10.163  70.988  1.00  0.00     0.000 HD 
HETATM   12  H2  UNL     1      -8.492   5.498  71.563  1.00  0.00     0.000 HD 
HETATM   13  O   UNL     1      -8.266   9.280  71.314  1.00  0.00    -0.324 OA 
HETATM   14  O   UNL     1     -10.374   5.218  72.835  1.00  0.00    -0.178 OA 
HETATM   15  H1  UNL     1      -9.484   6.419  70.524  1.00  0.00     0.000 HD 
ENDROOT
BRANCH   6  16
HETATM   16  C   UNL     2      -7.158   9.502  67.106  1.00  0.00    -0.086 C  
BRANCH  16  17
HETATM   17  C   UNL     2      -8.653   9.334  67.391  1.00  0.00    -0.122 C  
BRANCH  17  18
HETATM   18  C   UNL     2      -9.220  10.285  68.470  1.00  0.00    -0.144 C  
HETATM   19  C   UNL     2     -10.697  10.727  68.361  1.00  0.00    -0.217 C  
HETATM   20  C   UNL     2     -11.220  11.516  69.570  1.00  0.00    -0.305 C  
HETATM   21  O   UNL     2     -11.488   9.536  68.278  1.00  0.00    -0.449 OA 
HETATM   22  C   UNL     2     -10.908  11.526  67.106  1.00  0.00    -0.314 C  
HETATM   23  H   UNL     2     -12.396   9.806  68.210  1.00  0.00     0.000 HD 
HETATM   24  C   UNL     2     -10.511  12.787  66.862  1.00  0.00    -0.250 C  
BRANCH  24  25
HETATM   25  C   UNL     2     -10.724  13.535  65.566  1.00  0.00    -0.293 C  
HETATM   26  C   UNL     2     -11.709  12.892  64.563  1.00  0.00    -0.365 C  
HETATM   27  C   UNL     2     -11.911  14.000  63.559  1.00  0.00     0.142 C  
HETATM   28  O   UNL     2     -13.004  12.608  65.084  1.00  0.00    -0.754 OA 
HETATM   29  H   UNL     2     -13.610  12.212  64.469  1.00  0.00     0.000 HD 
HETATM   30  C   UNL     2     -12.060  15.248  64.428  1.00  0.00    -0.252 C  
HETATM   31  C   UNL     2     -11.228  15.003  65.715  1.00  0.00    -0.318 C  
HETATM   32  O   UNL     2     -11.653  16.365  63.653  1.00  0.00    -1.514 OA 
HETATM   33  H   UNL     2     -11.746  17.140  64.194  1.00  0.00     0.000 HD 
BRANCH  31  34
HETATM   34  C   UNL     2     -10.088  16.016  65.966  1.00  0.00    -0.362 C  
BRANCH  34  35
HETATM   35  C   UNL     2     -10.220  16.781  67.264  1.00  0.00    -0.292 C  
HETATM   36  C   UNL     2     -10.462  18.088  67.444  1.00  0.00    -0.399 C  
BRANCH  36  37
HETATM   37  C   UNL     2     -10.667  19.138  66.389  1.00  0.00    -0.450 C  
BRANCH  37  38
HETATM   38  C   UNL     2      -9.663  20.289  66.476  1.00  0.00    -0.519 C  
BRANCH  38  39
HETATM   39  C   UNL     2      -8.396  19.968  67.255  1.00  0.00    -0.381 C  
HETATM   40  C   UNL     2      -7.286  19.198  66.539  1.00  0.00    -0.226 C  
HETATM   41  O   UNL     2      -6.527  18.542  67.307  1.00  0.00    -0.190 OA 
HETATM   42  O   UNL     2      -7.154  19.307  65.276  1.00  0.00    -0.446 OA 
ENDBRANCH  38  39
ENDBRANCH  37  38
ENDBRANCH  36  37
ENDBRANCH  34  35
ENDBRANCH  31  34
ENDBRANCH  24  25
ENDBRANCH  17  18
ENDBRANCH  16  17
ENDBRANCH   6  16
TORSDOF 9
ENDMDL
MODEL       67
REMARK 921   NORMALIZED FREE ENERGY PREDICTED BY IDOCK:   -6.50 KCAL/MOL
REMARK 922        TOTAL FREE ENERGY PREDICTED BY IDOCK:  -11.84 KCAL/MOL
REMARK 923 INTER-LIGAND FREE ENERGY PREDICTED BY IDOCK:   -9.63 KCAL/MOL
REMARK 924 INTRA-LIGAND FREE ENERGY PREDICTED BY IDOCK:   -2.22 KCAL/MOL
REMARK 927      BINDING AFFINITY PREDICTED BY RF-SCORE:    0.00 PKD
ROOT
HETATM    1  O   UNL     1     -10.374  20.200  68.948  1.00  0.00    -0.504 OA 
HETATM    2  C   UNL     1     -10.867  19.147  68.125  1.00  0.00     0.018 C  
HETATM    3  H   UNL     1     -10.956  20.379  69.677  1.00  0.00     0.000 HD 
HETATM    4  C   UNL     2      -6.942  11.565  69.198  1.00  0.00    -0.113 C  
HETATM    5  C   UNL     1      -9.914  18.854  66.930  1.00  0.00    -0.345 C  
HETATM    6  C   UNL     2      -6.384  12.681  68.328  1.00  0.00    -0.072 C  
HETATM    7  C   UNL     1      -8.495  18.538  67.480  1.00  0.00    -0.261 C  
HETATM    8  N   UNL     1     -10.466  17.644  66.243  1.00  0.00    -0.330 NA 
HETATM    9  C   UNL     1      -9.896  19.920  65.847  1.00  0.00    -0.352 C  
HETATM   10  H   UNL     1     -11.131  20.521  64.453  1.00  0.00     0.000 HD 
HETATM   11  H   UNL     1      -7.673  17.244  68.729  1.00  0.00     0.000 HD 
HETATM   12  H2  UNL     1     -11.443  17.744  65.967  1.00  0.00     0.000 HD 
HETATM   13  O   UNL     1      -8.539  17.437  68.393  1.00  0.00    -0.255 OA 
HETATM   14  O   UNL     1     -11.141  19.854  65.131  1.00  0.00    -0.329 OA 
HETATM   15  H1  UNL     1      -9.841  17.451  65.461  1.00  0.00     0.000 HD 
ENDROOT
BRANCH   6  16
HETATM   16  C   UNL     2      -7.428  13.338  67.424  1.00  0.00    -0.134 C  
BRANCH  16  17
HETATM   17  C   UNL     2      -8.774  13.629  68.093  1.00  0.00    -0.177 C  
BRANCH  17  18
HETATM   18  C   UNL     2      -9.841  14.251  67.161  1.00  0.00    -0.252 C  
HETATM   19  C   UNL     2     -11.138  13.454  66.891  1.00  0.00    -0.292 C  
HETATM   20  C   UNL     2     -12.211  14.226  66.111  1.00  0.00    -0.430 C  
HETATM   21  O   UNL     2     -11.709  13.135  68.165  1.00  0.00    -0.315 OA 
HETATM   22  C   UNL     2     -10.818  12.171  66.178  1.00  0.00    -0.317 C  
HETATM   23  H   UNL     2     -12.506  12.645  67.999  1.00  0.00     0.000 HD 
HETATM   24  C   UNL     2     -10.453  12.018  64.894  1.00  0.00    -0.325 C  
BRANCH  24  25
HETATM   25  C   UNL     2     -10.113  10.701  64.233  1.00  0.00    -0.411 C  
HETATM   26  C   UNL     2      -9.488  10.790  62.821  1.00  0.00    -0.331 C  
HETATM   27  C   UNL     2      -9.013   9.376  62.593  1.00  0.00    -0.215 C  
HETATM   28  O   UNL     2      -8.322  11.604  62.726  1.00  0.00    -0.556 OA 
HETATM   29  H   UNL     2      -7.938  11.660  61.859  1.00  0.00     0.000 HD 
HETATM   30  C   UNL     2      -8.384   8.989  63.930  1.00  0.00    -0.176 C  
HETATM   31  C   UNL     2      -9.138   9.783  65.031  1.00  0.00    -0.280 C  
HETATM   32  O   UNL     2      -8.458   7.577  64.050  1.00  0.00    -0.367 OA 
HETATM   33  H   UNL     2      -8.067   7.337  64.882  1.00  0.00     0.000 HD 
BRANCH  31  34
HETATM   34  C   UNL     2      -9.849   8.919  66.097  1.00  0.00    -0.326 C  
BRANCH  34  35
HETATM   35  C   UNL     2      -9.114   8.844  67.416  1.00  0.00    -0.147 C  
HETATM   36  C   UNL     2      -9.543   9.206  68.635  1.00  0.00    -0.157 C  
BRANCH  36  37
HETATM   37  C   UNL     2     -10.880   9.782  69.004  1.00  0.00    -0.223 C  
BRANCH  37  38
HETATM   38  C   UNL     2     -10.969  10.219  70.467  1.00  0.00    -0.343 C  
BRANCH  38  39
HETATM   39  C   UNL     2     -11.804   9.306  71.353  1.00  0.00    -0.428 C  
HETATM   40  C   UNL     2     -11.078   8.251  72.187  1.00  0.00    -0.328 C  
HETATM   41  O   UNL     2     -11.783   7.246  72.485  1.00  0.00    -0.270 OA 
HETATM   42  O   UNL     2      -9.882   8.461  72.571  1.00  0.00    -0.282 OA 
ENDBRANCH  38  39
ENDBRANCH  37  38
ENDBRANCH  36  37
ENDBRANCH  34  35
ENDBRANCH  31  34
ENDBRANCH  24  25
ENDBRANCH  17  18
ENDBRANCH  16  17
ENDBRANCH   6  16
TORSDOF 9
ENDMDL
MODEL       68
REMARK 921   NORMALIZED FREE ENERGY PREDICTED BY IDOCK:   -6.49 KCAL/MOL
REMARK 922        TOTAL FREE ENERGY PREDICTED BY IDOCK:  -11.83 KCAL/MOL
REMARK 923 INTER-LIGAND FREE ENERGY PREDICTED BY IDOCK:   -8.98 KCAL/MOL
REMARK 924 INTRA-LIGAND FREE ENERGY PREDICTED BY IDOCK:   -2.85 KCAL/MOL
REMARK 927      BINDING AFFINITY PREDICTED BY RF-SCORE:    0.00 PKD
ROOT
HETATM    1  O   UNL     1     -10.253  19.805  69.105  1.00  0.00    -0.615 OA 
HETATM    2  C   UNL     1     -10.659  18.781  68.202  1.00  0.00    -0.233 C  
HETATM    3  H   UNL     1     -10.905  19.959  69.779  1.00  0.00     0.000 HD 
HETATM    4  C   UNL     2      -6.839  11.164  69.403  1.00  0.00    -0.125 C  
HETATM    5  C   UNL     1      -9.590  18.528  67.099  1.00  0.00    -0.295 C  
HETATM    6  C   UNL     2      -6.200  12.309  68.632  1.00  0.00    -0.067 C  
HETATM    7  C   UNL     1      -8.232  18.193  67.776  1.00  0.00    -0.242 C  
HETATM    8  N   UNL     1     -10.068  17.343  66.320  1.00  0.00    -0.331 NA 
HETATM    9  C   UNL     1      -9.468  19.631  66.060  1.00  0.00    -0.292 C  
HETATM   10  H   UNL     1     -10.560  20.279  64.571  1.00  0.00     0.000 HD 
HETATM   11  H   UNL     1      -7.535  16.857  69.056  1.00  0.00     0.000 HD 
HETATM   12  H2  UNL     1     -11.013  17.453  65.951  1.00  0.00     0.000 HD 
HETATM   13  O   UNL     1      -8.364  17.062  68.643  1.00  0.00    -0.250 OA 
HETATM   14  O   UNL     1     -10.636  19.589  65.221  1.00  0.00    -0.391 OA 
HETATM   15  H1  UNL     1      -9.368  17.176  65.597  1.00  0.00     0.000 HD 
ENDROOT
BRANCH   6  16
HETATM   16  C   UNL     2      -7.151  12.997  67.651  1.00  0.00    -0.156 C  
BRANCH  16  17
HETATM   17  C   UNL     2      -8.403  13.610  68.283  1.00  0.00    -0.165 C  
BRANCH  17  18
HETATM   18  C   UNL     2      -9.722  13.311  67.533  1.00  0.00    -0.224 C  
HETATM   19  C   UNL     2     -11.053  13.414  68.314  1.00  0.00    -0.262 C  
HETATM   20  C   UNL     2     -12.314  13.283  67.448  1.00  0.00    -0.082 C  
HETATM   21  O   UNL     2     -11.096  14.719  68.903  1.00  0.00    -0.231 OA 
HETATM   22  C   UNL     2     -11.088  12.393  69.416  1.00  0.00    -0.149 C  
HETATM   23  H   UNL     2     -11.913  14.782  69.384  1.00  0.00     0.000 HD 
HETATM   24  C   UNL     2     -11.257  11.066  69.296  1.00  0.00    -0.321 C  
BRANCH  24  25
HETATM   25  C   UNL     2     -11.254  10.077  70.440  1.00  0.00    -0.393 C  
HETATM   26  C   UNL     2     -12.552  10.001  71.277  1.00  0.00    -0.393 C  
HETATM   27  C   UNL     2     -12.326   8.759  72.104  1.00  0.00    -0.458 C  
HETATM   28  O   UNL     2     -13.740   9.754  70.532  1.00  0.00    -0.547 OA 
HETATM   29  H   UNL     2     -14.538   9.707  71.045  1.00  0.00     0.000 HD 
HETATM   30  C   UNL     2     -11.736   7.766  71.103  1.00  0.00    -0.284 C  
HETATM   31  C   UNL     2     -10.962   8.597  70.045  1.00  0.00    -0.208 C  
HETATM   32  O   UNL     2     -10.950   6.836  71.831  1.00  0.00    -0.229 OA 
HETATM   33  H   UNL     2     -10.583   6.219  71.209  1.00  0.00     0.000 HD 
BRANCH  31  34
HETATM   34  C   UNL     2      -9.453   8.282  69.936  1.00  0.00    -0.167 C  
BRANCH  34  35
HETATM   35  C   UNL     2      -9.065   7.571  68.659  1.00  0.00    -0.134 C  
HETATM   36  C   UNL     2      -8.728   8.102  67.474  1.00  0.00    -0.129 C  
BRANCH  36  37
HETATM   37  C   UNL     2      -8.646   9.557  67.110  1.00  0.00    -0.133 C  
BRANCH  37  38
HETATM   38  C   UNL     2      -9.687   9.981  66.073  1.00  0.00    -0.301 C  
BRANCH  38  39
HETATM   39  C   UNL     2      -9.108  10.429  64.739  1.00  0.00    -0.247 C  
HETATM   40  C   UNL     2      -9.997  11.253  63.807  1.00  0.00    -0.342 C  
HETATM   41  O   UNL     2      -9.692  11.168  62.585  1.00  0.00    -0.281 OA 
HETATM   42  O   UNL     2     -10.911  11.993  64.297  1.00  0.00    -0.302 OA 
ENDBRANCH  38  39
ENDBRANCH  37  38
ENDBRANCH  36  37
ENDBRANCH  34  35
ENDBRANCH  31  34
ENDBRANCH  24  25
ENDBRANCH  17  18
ENDBRANCH  16  17
ENDBRANCH   6  16
TORSDOF 9
ENDMDL
MODEL       69
REMARK 921   NORMALIZED FREE ENERGY PREDICTED BY IDOCK:   -6.48 KCAL/MOL
REMARK 922        TOTAL FREE ENERGY PREDICTED BY IDOCK:  -11.82 KCAL/MOL
REMARK 923 INTER-LIGAND FREE ENERGY PREDICTED BY IDOCK:   -9.73 KCAL/MOL
REMARK 924 INTRA-LIGAND FREE ENERGY PREDICTED BY IDOCK:   -2.08 KCAL/MOL
REMARK 927      BINDING AFFINITY PREDICTED BY RF-SCORE:    0.00 PKD
ROOT
HETATM    1  O   UNL     1      -8.499  20.389  65.870  1.00  0.00    -0.559 OA 
HETATM    2  C   UNL     1      -7.906  19.146  66.232  1.00  0.00    -0.293 C  
HETATM    3  H   UNL     1      -8.026  20.811  65.162  1.00  0.00     0.000 HD 
HETATM    4  C   UNL     2     -12.046  12.176  63.346  1.00  0.00    -0.608 C  
HETATM    5  C   UNL     1      -8.681  18.453  67.391  1.00  0.00    -0.260 C  
HETATM    6  C   UNL     2     -12.459  12.936  64.597  1.00  0.00    -0.499 C  
HETATM    7  C   UNL     1     -10.168  18.282  66.976  1.00  0.00    -0.378 C  
HETATM    8  N   UNL     1      -8.051  17.107  67.568  1.00  0.00    -0.182 NA 
HETATM    9  C   UNL     1      -8.527  19.116  68.751  1.00  0.00    -0.341 C  
HETATM   10  H   UNL     1      -7.096  19.281  70.074  1.00  0.00     0.000 HD 
HETATM   11  H   UNL     1     -11.180  17.429  65.507  1.00  0.00     0.000 HD 
HETATM   12  H2  UNL     1      -7.043  17.146  67.721  1.00  0.00     0.000 HD 
HETATM   13  O   UNL     1     -10.271  17.534  65.760  1.00  0.00    -0.561 OA 
HETATM   14  O   UNL     1      -7.192  18.866  69.224  1.00  0.00    -0.275 OA 
HETATM   15  H1  UNL     1      -8.559  16.653  68.327  1.00  0.00     0.000 HD 
ENDROOT
BRANCH   6  16
HETATM   16  C   UNL     2     -11.286  13.304  65.508  1.00  0.00    -0.307 C  
BRANCH  16  17
HETATM   17  C   UNL     2     -11.662  14.098  66.762  1.00  0.00    -0.432 C  
BRANCH  17  18
HETATM   18  C   UNL     2     -12.222  13.247  67.926  1.00  0.00    -0.129 C  
HETATM   19  C   UNL     2     -11.342  13.046  69.181  1.00  0.00    -0.273 C  
HETATM   20  C   UNL     2     -12.049  12.348  70.351  1.00  0.00    -0.381 C  
HETATM   21  O   UNL     2     -10.968  14.347  69.646  1.00  0.00    -0.344 OA 
HETATM   22  C   UNL     2     -10.093  12.291  68.822  1.00  0.00    -0.082 C  
HETATM   23  H   UNL     2     -10.427  14.224  70.417  1.00  0.00     0.000 HD 
HETATM   24  C   UNL     2      -9.981  10.984  68.531  1.00  0.00    -0.198 C  
BRANCH  24  25
HETATM   25  C   UNL     2      -8.700  10.280  68.146  1.00  0.00    -0.123 C  
HETATM   26  C   UNL     2      -7.442  10.664  68.961  1.00  0.00    -0.117 C  
HETATM   27  C   UNL     2      -6.454   9.604  68.540  1.00  0.00    -0.051 C  
HETATM   28  O   UNL     2      -7.571  10.528  70.373  1.00  0.00    -0.446 OA 
HETATM   29  H   UNL     2      -6.799  10.764  70.874  1.00  0.00     0.000 HD 
HETATM   30  C   UNL     2      -7.283   8.320  68.548  1.00  0.00    -0.088 C  
HETATM   31  C   UNL     2      -8.744   8.723  68.214  1.00  0.00    -0.135 C  
HETATM   32  O   UNL     2      -6.685   7.416  67.632  1.00  0.00    -0.061 OA 
HETATM   33  H   UNL     2      -7.200   6.618  67.636  1.00  0.00     0.000 HD 
BRANCH  31  34
HETATM   34  C   UNL     2      -9.333   8.074  66.942  1.00  0.00    -0.209 C  
BRANCH  34  35
HETATM   35  C   UNL     2     -10.725   7.515  67.127  1.00  0.00    -0.379 C  
HETATM   36  C   UNL     2     -11.107   6.430  67.819  1.00  0.00    -0.376 C  
BRANCH  36  37
HETATM   37  C   UNL     2     -10.237   5.486  68.599  1.00  0.00    -0.261 C  
BRANCH  37  38
HETATM   38  C   UNL     2     -10.196   5.797  70.097  1.00  0.00    -0.301 C  
BRANCH  38  39
HETATM   39  C   UNL     2     -11.242   6.797  70.566  1.00  0.00    -0.370 C  
HETATM   40  C   UNL     2     -10.778   7.982  71.412  1.00  0.00    -0.229 C  
HETATM   41  O   UNL     2     -11.668   8.467  72.165  1.00  0.00    -0.324 OA 
HETATM   42  O   UNL     2      -9.595   8.434  71.271  1.00  0.00    -0.160 OA 
ENDBRANCH  38  39
ENDBRANCH  37  38
ENDBRANCH  36  37
ENDBRANCH  34  35
ENDBRANCH  31  34
ENDBRANCH  24  25
ENDBRANCH  17  18
ENDBRANCH  16  17
ENDBRANCH   6  16
TORSDOF 9
ENDMDL
MODEL       70
REMARK 921   NORMALIZED FREE ENERGY PREDICTED BY IDOCK:   -6.44 KCAL/MOL
REMARK 922        TOTAL FREE ENERGY PREDICTED BY IDOCK:  -11.75 KCAL/MOL
REMARK 923 INTER-LIGAND FREE ENERGY PREDICTED BY IDOCK:  -10.03 KCAL/MOL
REMARK 924 INTRA-LIGAND FREE ENERGY PREDICTED BY IDOCK:   -1.73 KCAL/MOL
REMARK 927      BINDING AFFINITY PREDICTED BY RF-SCORE:    0.00 PKD
ROOT
HETATM    1  O   UNL     1     -11.334   5.888  73.520  1.00  0.00    -0.442 OA 
HETATM    2  C   UNL     1     -11.684   5.773  72.145  1.00  0.00    -0.163 C  
HETATM    3  H   UNL     1     -11.273   5.037  73.940  1.00  0.00     0.000 HD 
HETATM    4  C   UNL     2      -5.162   6.885  66.642  1.00  0.00    -0.017 C  
HETATM    5  C   UNL     1     -11.783   7.166  71.457  1.00  0.00    -0.290 C  
HETATM    6  C   UNL     2      -5.928   8.037  67.275  1.00  0.00    -0.050 C  
HETATM    7  C   UNL     1     -10.439   7.923  71.648  1.00  0.00    -0.209 C  
HETATM    8  N   UNL     1     -12.004   6.898  70.001  1.00  0.00    -0.644 NA 
HETATM    9  C   UNL     1     -12.986   8.000  71.868  1.00  0.00    -0.312 C  
HETATM   10  H   UNL     1     -14.914   7.928  71.547  1.00  0.00     0.000 HD 
HETATM   11  H   UNL     1      -8.528   7.621  71.239  1.00  0.00     0.000 HD 
HETATM   12  H2  UNL     1     -12.808   6.297  69.816  1.00  0.00     0.000 HD 
HETATM   13  O   UNL     1      -9.349   7.159  71.123  1.00  0.00    -0.157 OA 
HETATM   14  O   UNL     1     -14.162   7.407  71.290  1.00  0.00    -0.407 OA 
HETATM   15  H1  UNL     1     -12.069   7.810  69.550  1.00  0.00     0.000 HD 
ENDROOT
BRANCH   6  16
HETATM   16  C   UNL     2      -7.446   7.845  67.264  1.00  0.00    -0.093 C  
BRANCH  16  17
HETATM   17  C   UNL     2      -8.251   9.072  66.825  1.00  0.00    -0.115 C  
BRANCH  17  18
HETATM   18  C   UNL     2      -9.062   9.754  67.951  1.00  0.00    -0.126 C  
HETATM   19  C   UNL     2     -10.580   9.961  67.744  1.00  0.00    -0.261 C  
HETATM   20  C   UNL     2     -11.330  10.473  68.982  1.00  0.00    -0.319 C  
HETATM   21  O   UNL     2     -11.140   8.681  67.427  1.00  0.00    -0.425 OA 
HETATM   22  C   UNL     2     -10.824  10.886  66.585  1.00  0.00    -0.258 C  
HETATM   23  H   UNL     2     -12.073   8.808  67.299  1.00  0.00     0.000 HD 
HETATM   24  C   UNL     2     -10.635  12.216  66.547  1.00  0.00    -0.269 C  
BRANCH  24  25
HETATM   25  C   UNL     2     -10.869  13.098  65.342  1.00  0.00    -0.299 C  
HETATM   26  C   UNL     2     -11.995  12.652  64.381  1.00  0.00    -0.400 C  
HETATM   27  C   UNL     2     -12.156  13.862  63.494  1.00  0.00    -0.135 C  
HETATM   28  O   UNL     2     -13.268  12.453  64.990  1.00  0.00    -0.607 OA 
HETATM   29  H   UNL     2     -13.960  12.179  64.400  1.00  0.00     0.000 HD 
HETATM   30  C   UNL     2     -12.099  15.034  64.473  1.00  0.00    -0.363 C  
HETATM   31  C   UNL     2     -11.198  14.590  65.656  1.00  0.00    -0.335 C  
HETATM   32  O   UNL     2     -11.637  16.170  63.759  1.00  0.00    -1.390 OA 
HETATM   33  H   UNL     2     -11.602  16.898  64.369  1.00  0.00     0.000 HD 
BRANCH  31  34
HETATM   34  C   UNL     2      -9.938  15.456  65.887  1.00  0.00    -0.374 C  
BRANCH  34  35
HETATM   35  C   UNL     2      -9.942  16.207  67.199  1.00  0.00    -0.251 C  
HETATM   36  C   UNL     2      -8.990  17.002  67.711  1.00  0.00    -0.224 C  
BRANCH  36  37
HETATM   37  C   UNL     2      -7.664  17.356  67.102  1.00  0.00    -0.229 C  
BRANCH  37  38
HETATM   38  C   UNL     2      -6.510  16.496  67.621  1.00  0.00    -0.170 C  
BRANCH  38  39
HETATM   39  C   UNL     2      -6.918  15.422  68.618  1.00  0.00    -0.111 C  
HETATM   40  C   UNL     2      -6.786  13.958  68.195  1.00  0.00    -0.125 C  
HETATM   41  O   UNL     2      -7.563  13.168  68.800  1.00  0.00    -0.110 OA 
HETATM   42  O   UNL     2      -5.898  13.624  67.344  1.00  0.00    -0.352 OA 
ENDBRANCH  38  39
ENDBRANCH  37  38
ENDBRANCH  36  37
ENDBRANCH  34  35
ENDBRANCH  31  34
ENDBRANCH  24  25
ENDBRANCH  17  18
ENDBRANCH  16  17
ENDBRANCH   6  16
TORSDOF 9
ENDMDL
MODEL       71
REMARK 921   NORMALIZED FREE ENERGY PREDICTED BY IDOCK:   -6.43 KCAL/MOL
REMARK 922        TOTAL FREE ENERGY PREDICTED BY IDOCK:  -11.74 KCAL/MOL
REMARK 923 INTER-LIGAND FREE ENERGY PREDICTED BY IDOCK:  -10.71 KCAL/MOL
REMARK 924 INTRA-LIGAND FREE ENERGY PREDICTED BY IDOCK:   -1.03 KCAL/MOL
REMARK 927      BINDING AFFINITY PREDICTED BY RF-SCORE:    0.00 PKD
ROOT
HETATM    1  O   UNL     1      -6.997  21.339  67.335  1.00  0.00    -0.509 OA 
HETATM    2  C   UNL     1      -7.825  20.449  66.594  1.00  0.00    -0.211 C  
HETATM    3  H   UNL     1      -7.305  22.236  67.279  1.00  0.00     0.000 HD 
HETATM    4  C   UNL     2     -13.213  15.708  71.343  1.00  0.00    -0.540 C  
HETATM    5  C   UNL     1      -7.320  18.979  66.687  1.00  0.00    -0.223 C  
HETATM    6  C   UNL     2     -11.750  15.351  71.129  1.00  0.00    -0.418 C  
HETATM    7  C   UNL     1      -7.228  18.568  68.182  1.00  0.00    -0.255 C  
HETATM    8  N   UNL     1      -8.351  18.140  65.999  1.00  0.00    -0.514 NA 
HETATM    9  C   UNL     1      -6.038  18.693  65.922  1.00  0.00    -0.199 C  
HETATM   10  H   UNL     1      -5.538  18.534  64.038  1.00  0.00     0.000 HD 
HETATM   11  H   UNL     1      -8.438  18.475  69.743  1.00  0.00     0.000 HD 
HETATM   12  H2  UNL     1      -8.549  18.441  65.044  1.00  0.00     0.000 HD 
HETATM   13  O   UNL     1      -8.494  18.726  68.830  1.00  0.00    -0.337 OA 
HETATM   14  O   UNL     1      -6.339  18.713  64.516  1.00  0.00    -0.407 OA 
HETATM   15  H1  UNL     1      -8.021  17.177  66.060  1.00  0.00     0.000 HD 
ENDROOT
BRANCH   6  16
HETATM   16  C   UNL     2     -11.288  15.491  69.678  1.00  0.00    -0.319 C  
BRANCH  16  17
HETATM   17  C   UNL     2     -10.009  14.725  69.326  1.00  0.00    -0.146 C  
BRANCH  17  18
HETATM   18  C   UNL     2     -10.175  13.661  68.216  1.00  0.00    -0.243 C  
HETATM   19  C   UNL     2     -11.529  12.925  68.097  1.00  0.00    -0.315 C  
HETATM   20  C   UNL     2     -11.662  12.027  66.859  1.00  0.00    -0.342 C  
HETATM   21  O   UNL     2     -12.545  13.928  67.985  1.00  0.00    -0.335 OA 
HETATM   22  C   UNL     2     -11.792  12.118  69.338  1.00  0.00    -0.370 C  
HETATM   23  H   UNL     2     -13.378  13.476  67.913  1.00  0.00     0.000 HD 
HETATM   24  C   UNL     2     -11.198  10.971  69.708  1.00  0.00    -0.339 C  
BRANCH  24  25
HETATM   25  C   UNL     2     -11.481  10.214  70.987  1.00  0.00    -0.436 C  
HETATM   26  C   UNL     2     -12.960  10.165  71.435  1.00  0.00    -0.429 C  
HETATM   27  C   UNL     2     -12.927   9.124  72.527  1.00  0.00    -0.416 C  
HETATM   28  O   UNL     2     -13.872   9.668  70.461  1.00  0.00    -0.504 OA 
HETATM   29  H   UNL     2     -14.781   9.638  70.736  1.00  0.00     0.000 HD 
HETATM   30  C   UNL     2     -12.032   8.028  71.950  1.00  0.00    -0.314 C  
HETATM   31  C   UNL     2     -11.024   8.723  70.997  1.00  0.00    -0.328 C  
HETATM   32  O   UNL     2     -11.448   7.330  73.038  1.00  0.00    -0.541 OA 
HETATM   33  H   UNL     2     -10.892   6.648  72.679  1.00  0.00     0.000 HD 
BRANCH  31  34
HETATM   34  C   UNL     2      -9.535   8.545  71.369  1.00  0.00    -0.279 C  
BRANCH  34  35
HETATM   35  C   UNL     2      -8.885   7.333  70.739  1.00  0.00    -0.150 C  
HETATM   36  C   UNL     2      -8.446   7.178  69.481  1.00  0.00    -0.134 C  
BRANCH  36  37
HETATM   37  C   UNL     2      -8.487   8.181  68.364  1.00  0.00    -0.126 C  
BRANCH  37  38
HETATM   38  C   UNL     2      -9.398   7.765  67.208  1.00  0.00    -0.175 C  
BRANCH  38  39
HETATM   39  C   UNL     2      -9.851   8.908  66.313  1.00  0.00    -0.355 C  
HETATM   40  C   UNL     2      -8.872   9.431  65.261  1.00  0.00    -0.190 C  
HETATM   41  O   UNL     2      -9.068  10.630  64.915  1.00  0.00    -0.188 OA 
HETATM   42  O   UNL     2      -7.996   8.648  64.768  1.00  0.00    -0.124 OA 
ENDBRANCH  38  39
ENDBRANCH  37  38
ENDBRANCH  36  37
ENDBRANCH  34  35
ENDBRANCH  31  34
ENDBRANCH  24  25
ENDBRANCH  17  18
ENDBRANCH  16  17
ENDBRANCH   6  16
TORSDOF 9
ENDMDL
MODEL       72
REMARK 921   NORMALIZED FREE ENERGY PREDICTED BY IDOCK:   -6.35 KCAL/MOL
REMARK 922        TOTAL FREE ENERGY PREDICTED BY IDOCK:  -11.61 KCAL/MOL
REMARK 923 INTER-LIGAND FREE ENERGY PREDICTED BY IDOCK:   -9.63 KCAL/MOL
REMARK 924 INTRA-LIGAND FREE ENERGY PREDICTED BY IDOCK:   -1.98 KCAL/MOL
REMARK 927      BINDING AFFINITY PREDICTED BY RF-SCORE:    0.00 PKD
ROOT
HETATM    1  O   UNL     1     -11.201   6.659  71.147  1.00  0.00    -0.264 OA 
HETATM    2  C   UNL     1     -11.596   7.654  70.208  1.00  0.00    -0.060 C  
HETATM    3  H   UNL     1     -11.389   5.782  70.831  1.00  0.00     0.000 HD 
HETATM    4  C   UNL     2      -5.147  11.155  65.712  1.00  0.00    -0.087 C  
HETATM    5  C   UNL     1     -11.288   9.089  70.725  1.00  0.00    -0.277 C  
HETATM    6  C   UNL     2      -5.522  11.596  67.119  1.00  0.00    -0.108 C  
HETATM    7  C   UNL     1      -9.776   9.191  71.070  1.00  0.00    -0.289 C  
HETATM    8  N   UNL     1     -11.607  10.017  69.595  1.00  0.00    -0.431 NA 
HETATM    9  C   UNL     1     -12.179   9.567  71.861  1.00  0.00    -0.358 C  
HETATM   10  H   UNL     1     -14.047  10.121  72.036  1.00  0.00     0.000 HD 
HETATM   11  H   UNL     1      -8.051   8.926  70.141  1.00  0.00     0.000 HD 
HETATM   12  H2  UNL     1     -12.557   9.911  69.238  1.00  0.00     0.000 HD 
HETATM   13  O   UNL     1      -8.974   8.864  69.931  1.00  0.00    -0.143 OA 
HETATM   14  O   UNL     1     -13.489   9.823  71.326  1.00  0.00    -0.376 OA 
HETATM   15  H1  UNL     1     -11.405  10.958  69.933  1.00  0.00     0.000 HD 
ENDROOT
BRANCH   6  16
HETATM   16  C   UNL     2      -7.028  11.768  67.329  1.00  0.00    -0.138 C  
BRANCH  16  17
HETATM   17  C   UNL     2      -7.475  13.187  67.689  1.00  0.00    -0.164 C  
BRANCH  17  18
HETATM   18  C   UNL     2      -6.348  14.111  68.208  1.00  0.00    -0.118 C  
HETATM   19  C   UNL     2      -6.648  15.035  69.411  1.00  0.00    -0.143 C  
HETATM   20  C   UNL     2      -5.424  15.774  69.970  1.00  0.00    -0.142 C  
HETATM   21  O   UNL     2      -7.141  14.203  70.468  1.00  0.00    -0.276 OA 
HETATM   22  C   UNL     2      -7.717  16.027  69.049  1.00  0.00    -0.216 C  
HETATM   23  H   UNL     2      -7.326  14.770  71.206  1.00  0.00     0.000 HD 
HETATM   24  C   UNL     2      -7.598  17.101  68.250  1.00  0.00    -0.224 C  
BRANCH  24  25
HETATM   25  C   UNL     2      -8.718  18.054  67.894  1.00  0.00    -0.258 C  
HETATM   26  C   UNL     2      -8.433  19.555  68.127  1.00  0.00    -0.324 C  
HETATM   27  C   UNL     2      -9.590  20.213  67.415  1.00  0.00    -0.551 C  
HETATM   28  O   UNL     2      -7.260  20.055  67.492  1.00  0.00    -0.256 OA 
HETATM   29  H   UNL     2      -7.084  20.977  67.635  1.00  0.00     0.000 HD 
HETATM   30  C   UNL     2      -9.707  19.420  66.115  1.00  0.00    -0.359 C  
HETATM   31  C   UNL     2      -9.217  17.979  66.419  1.00  0.00    -0.256 C  
HETATM   32  O   UNL     2     -11.052  19.517  65.671  1.00  0.00    -0.318 OA 
HETATM   33  H   UNL     2     -11.125  19.023  64.862  1.00  0.00     0.000 HD 
BRANCH  31  34
HETATM   34  C   UNL     2     -10.261  16.864  66.185  1.00  0.00    -0.352 C  
BRANCH  34  35
HETATM   35  C   UNL     2      -9.677  15.579  65.644  1.00  0.00    -0.355 C  
HETATM   36  C   UNL     2     -10.293  14.600  64.964  1.00  0.00    -0.432 C  
BRANCH  36  37
HETATM   37  C   UNL     2     -11.738  14.532  64.560  1.00  0.00    -0.421 C  
BRANCH  37  38
HETATM   38  C   UNL     2     -12.425  13.232  64.983  1.00  0.00    -0.498 C  
BRANCH  38  39
HETATM   39  C   UNL     2     -11.477  12.076  65.264  1.00  0.00    -0.358 C  
HETATM   40  C   UNL     2     -11.198  11.711  66.723  1.00  0.00    -0.308 C  
HETATM   41  O   UNL     2     -10.091  11.135  66.914  1.00  0.00    -0.203 OA 
HETATM   42  O   UNL     2     -12.083  11.938  67.611  1.00  0.00    -0.568 OA 
ENDBRANCH  38  39
ENDBRANCH  37  38
ENDBRANCH  36  37
ENDBRANCH  34  35
ENDBRANCH  31  34
ENDBRANCH  24  25
ENDBRANCH  17  18
ENDBRANCH  16  17
ENDBRANCH   6  16
TORSDOF 9
ENDMDL
MODEL       73
REMARK 921   NORMALIZED FREE ENERGY PREDICTED BY IDOCK:   -6.34 KCAL/MOL
REMARK 922        TOTAL FREE ENERGY PREDICTED BY IDOCK:  -11.60 KCAL/MOL
REMARK 923 INTER-LIGAND FREE ENERGY PREDICTED BY IDOCK:   -8.87 KCAL/MOL
REMARK 924 INTRA-LIGAND FREE ENERGY PREDICTED BY IDOCK:   -2.74 KCAL/MOL
REMARK 927      BINDING AFFINITY PREDICTED BY RF-SCORE:    0.00 PKD
ROOT
HETATM    1  O   UNL     1      -8.648   7.623  63.526  1.00  0.00    -0.363 OA 
HETATM    2  C   UNL     1      -7.831   8.480  64.317  1.00  0.00    -0.142 C  
HETATM    3  H   UNL     1      -8.624   6.727  63.838  1.00  0.00     0.000 HD 
HETATM    4  C   UNL     2     -12.122  13.483  69.850  1.00  0.00    -0.408 C  
HETATM    5  C   UNL     1      -7.871   9.950  63.805  1.00  0.00    -0.147 C  
HETATM    6  C   UNL     2     -11.949  13.821  68.377  1.00  0.00    -0.395 C  
HETATM    7  C   UNL     1      -9.346  10.435  63.768  1.00  0.00    -0.288 C  
HETATM    8  N   UNL     1      -7.102  10.759  64.802  1.00  0.00    -0.349 NA 
HETATM    9  C   UNL     1      -7.144  10.190  62.492  1.00  0.00    -0.133 C  
HETATM   10  H   UNL     1      -5.275  10.252  61.917  1.00  0.00     0.000 HD 
HETATM   11  H   UNL     1     -10.852  10.613  65.037  1.00  0.00     0.000 HD 
HETATM   12  H2  UNL     1      -6.157  10.412  64.965  1.00  0.00     0.000 HD 
HETATM   13  O   UNL     1      -9.951  10.317  65.060  1.00  0.00    -0.306 OA 
HETATM   14  O   UNL     1      -5.730  10.101  62.738  1.00  0.00    -0.102 OA 
HETATM   15  H1  UNL     1      -7.128  11.722  64.467  1.00  0.00     0.000 HD 
ENDROOT
BRANCH   6  16
HETATM   16  C   UNL     2     -10.526  13.605  67.860  1.00  0.00    -0.249 C  
BRANCH  16  17
HETATM   17  C   UNL     2     -10.133  12.143  67.632  1.00  0.00    -0.205 C  
BRANCH  17  18
HETATM   18  C   UNL     2      -8.920  11.660  68.460  1.00  0.00    -0.138 C  
HETATM   19  C   UNL     2      -8.726  10.139  68.663  1.00  0.00    -0.128 C  
HETATM   20  C   UNL     2      -7.402   9.748  69.336  1.00  0.00    -0.087 C  
HETATM   21  O   UNL     2      -8.716   9.538  67.363  1.00  0.00    -0.125 OA 
HETATM   22  C   UNL     2      -9.877   9.569  69.443  1.00  0.00    -0.194 C  
HETATM   23  H   UNL     2      -8.597   8.604  67.488  1.00  0.00     0.000 HD 
HETATM   24  C   UNL     2     -10.128   9.714  70.754  1.00  0.00    -0.293 C  
BRANCH  24  25
HETATM   25  C   UNL     2     -11.322   9.142  71.485  1.00  0.00    -0.439 C  
HETATM   26  C   UNL     2     -12.650   9.921  71.333  1.00  0.00    -0.398 C  
HETATM   27  C   UNL     2     -13.654   8.953  71.910  1.00  0.00    -0.474 C  
HETATM   28  O   UNL     2     -13.068  10.150  69.991  1.00  0.00    -0.550 OA 
HETATM   29  H   UNL     2     -13.883  10.629  69.897  1.00  0.00     0.000 HD 
HETATM   30  C   UNL     2     -13.227   7.606  71.330  1.00  0.00    -0.289 C  
HETATM   31  C   UNL     2     -11.692   7.673  71.115  1.00  0.00    -0.311 C  
HETATM   32  O   UNL     2     -13.666   6.594  72.223  1.00  0.00    -0.532 OA 
HETATM   33  H   UNL     2     -13.400   5.756  71.862  1.00  0.00     0.000 HD 
BRANCH  31  34
HETATM   34  C   UNL     2     -10.870   6.623  71.896  1.00  0.00    -0.267 C  
BRANCH  34  35
HETATM   35  C   UNL     2     -10.566   5.369  71.107  1.00  0.00    -0.276 C  
HETATM   36  C   UNL     2      -9.723   5.214  70.075  1.00  0.00    -0.275 C  
BRANCH  36  37
HETATM   37  C   UNL     2      -8.854   6.258  69.434  1.00  0.00    -0.127 C  
BRANCH  37  38
HETATM   38  C   UNL     2      -7.944   5.700  68.338  1.00  0.00    -0.100 C  
BRANCH  38  39
HETATM   39  C   UNL     2      -8.677   5.034  67.183  1.00  0.00    -0.103 C  
HETATM   40  C   UNL     2      -9.910   5.735  66.612  1.00  0.00    -0.165 C  
HETATM   41  O   UNL     2     -10.736   4.963  66.049  1.00  0.00    -0.316 OA 
HETATM   42  O   UNL     2     -10.001   7.004  66.675  1.00  0.00    -0.194 OA 
ENDBRANCH  38  39
ENDBRANCH  37  38
ENDBRANCH  36  37
ENDBRANCH  34  35
ENDBRANCH  31  34
ENDBRANCH  24  25
ENDBRANCH  17  18
ENDBRANCH  16  17
ENDBRANCH   6  16
TORSDOF 9
ENDMDL
MODEL       74
REMARK 921   NORMALIZED FREE ENERGY PREDICTED BY IDOCK:   -6.32 KCAL/MOL
REMARK 922        TOTAL FREE ENERGY PREDICTED BY IDOCK:  -11.58 KCAL/MOL
REMARK 923 INTER-LIGAND FREE ENERGY PREDICTED BY IDOCK:   -9.92 KCAL/MOL
REMARK 924 INTRA-LIGAND FREE ENERGY PREDICTED BY IDOCK:   -1.66 KCAL/MOL
REMARK 927      BINDING AFFINITY PREDICTED BY RF-SCORE:    0.00 PKD
ROOT
HETATM    1  O   UNL     1     -11.427   5.927  73.235  1.00  0.00    -0.477 OA 
HETATM    2  C   UNL     1     -11.503   6.246  71.849  1.00  0.00    -0.309 C  
HETATM    3  H   UNL     1     -11.117   5.040  73.376  1.00  0.00     0.000 HD 
HETATM    4  C   UNL     2      -5.129  11.233  68.924  1.00  0.00    -0.040 C  
HETATM    5  C   UNL     1     -12.010   7.699  71.618  1.00  0.00    -0.299 C  
HETATM    6  C   UNL     2      -6.353  11.776  69.646  1.00  0.00    -0.129 C  
HETATM    7  C   UNL     1     -11.088   8.687  72.386  1.00  0.00    -0.258 C  
HETATM    8  N   UNL     1     -11.899   7.951  70.147  1.00  0.00    -0.441 NA 
HETATM    9  C   UNL     1     -13.484   7.920  71.922  1.00  0.00    -0.286 C  
HETATM   10  H   UNL     1     -15.177   7.410  71.087  1.00  0.00     0.000 HD 
HETATM   11  H   UNL     1      -9.165   9.141  72.438  1.00  0.00     0.000 HD 
HETATM   12  H2  UNL     1     -12.385   7.257  69.578  1.00  0.00     0.000 HD 
HETATM   13  O   UNL     1      -9.728   8.537  71.969  1.00  0.00    -0.250 OA 
HETATM   14  O   UNL     1     -14.256   7.272  70.897  1.00  0.00    -0.113 OA 
HETATM   15  H1  UNL     1     -12.231   8.904  69.996  1.00  0.00     0.000 HD 
ENDROOT
BRANCH   6  16
HETATM   16  C   UNL     2      -7.671  11.165  69.168  1.00  0.00    -0.076 C  
BRANCH  16  17
HETATM   17  C   UNL     2      -7.553   9.768  68.552  1.00  0.00    -0.080 C  
BRANCH  17  18
HETATM   18  C   UNL     2      -8.896   9.023  68.370  1.00  0.00    -0.134 C  
HETATM   19  C   UNL     2      -9.342   8.650  66.937  1.00  0.00    -0.170 C  
HETATM   20  C   UNL     2     -10.588   7.755  66.869  1.00  0.00    -0.347 C  
HETATM   21  O   UNL     2      -8.272   7.906  66.343  1.00  0.00    -0.112 OA 
HETATM   22  C   UNL     2      -9.566   9.892  66.123  1.00  0.00    -0.275 C  
HETATM   23  H   UNL     2      -8.545   7.677  65.463  1.00  0.00     0.000 HD 
HETATM   24  C   UNL     2     -10.589  10.759  66.218  1.00  0.00    -0.257 C  
BRANCH  24  25
HETATM   25  C   UNL     2     -10.751  12.015  65.391  1.00  0.00    -0.330 C  
HETATM   26  C   UNL     2     -10.245  11.937  63.932  1.00  0.00    -0.389 C  
HETATM   27  C   UNL     2     -10.811  13.201  63.331  1.00  0.00     0.347 C  
HETATM   28  O   UNL     2     -10.787  10.871  63.158  1.00  0.00    -0.733 OA 
HETATM   29  H   UNL     2     -10.477  10.823  62.262  1.00  0.00     0.000 HD 
HETATM   30  C   UNL     2     -12.235  13.253  63.882  1.00  0.00    -0.425 C  
HETATM   31  C   UNL     2     -12.209  12.552  65.267  1.00  0.00    -0.493 C  
HETATM   32  O   UNL     2     -12.640  14.612  63.904  1.00  0.00    -0.931 OA 
HETATM   33  H   UNL     2     -13.526  14.644  64.247  1.00  0.00     0.000 HD 
BRANCH  31  34
HETATM   34  C   UNL     2     -12.637  13.435  66.461  1.00  0.00    -0.101 C  
BRANCH  34  35
HETATM   35  C   UNL     2     -11.537  13.677  67.470  1.00  0.00    -0.384 C  
HETATM   36  C   UNL     2     -10.636  14.671  67.504  1.00  0.00    -0.257 C  
BRANCH  36  37
HETATM   37  C   UNL     2     -10.490  15.811  66.537  1.00  0.00    -0.304 C  
BRANCH  37  38
HETATM   38  C   UNL     2      -9.428  16.830  66.957  1.00  0.00    -0.240 C  
BRANCH  38  39
HETATM   39  C   UNL     2      -9.945  17.961  67.833  1.00  0.00    -0.329 C  
HETATM   40  C   UNL     2     -10.215  19.315  67.176  1.00  0.00    -0.402 C  
HETATM   41  O   UNL     2     -10.147  20.300  67.964  1.00  0.00    -0.397 OA 
HETATM   42  O   UNL     2     -10.540  19.367  65.945  1.00  0.00    -0.497 OA 
ENDBRANCH  38  39
ENDBRANCH  37  38
ENDBRANCH  36  37
ENDBRANCH  34  35
ENDBRANCH  31  34
ENDBRANCH  24  25
ENDBRANCH  17  18
ENDBRANCH  16  17
ENDBRANCH   6  16
TORSDOF 9
ENDMDL
MODEL       75
REMARK 921   NORMALIZED FREE ENERGY PREDICTED BY IDOCK:   -6.31 KCAL/MOL
REMARK 922        TOTAL FREE ENERGY PREDICTED BY IDOCK:  -11.56 KCAL/MOL
REMARK 923 INTER-LIGAND FREE ENERGY PREDICTED BY IDOCK:   -9.54 KCAL/MOL
REMARK 924 INTRA-LIGAND FREE ENERGY PREDICTED BY IDOCK:   -2.02 KCAL/MOL
REMARK 927      BINDING AFFINITY PREDICTED BY RF-SCORE:    0.00 PKD
ROOT
HETATM    1  O   UNL     1      -7.168  18.740  67.779  1.00  0.00    -0.228 OA 
HETATM    2  C   UNL     1      -8.341  18.157  68.337  1.00  0.00    -0.299 C  
HETATM    3  H   UNL     1      -6.381  18.432  68.214  1.00  0.00     0.000 HD 
HETATM    4  C   UNL     2     -11.845  11.856  63.638  1.00  0.00    -0.573 C  
HETATM    5  C   UNL     1      -9.630  18.661  67.624  1.00  0.00    -0.300 C  
HETATM    6  C   UNL     2     -12.082  13.334  63.366  1.00  0.00    -0.508 C  
HETATM    7  C   UNL     1      -9.513  18.374  66.102  1.00  0.00    -0.156 C  
HETATM    8  N   UNL     1     -10.762  17.867  68.199  1.00  0.00    -0.332 NA 
HETATM    9  C   UNL     1     -10.003  20.105  67.919  1.00  0.00    -0.398 C  
HETATM   10  H   UNL     1     -10.713  21.081  69.459  1.00  0.00     0.000 HD 
HETATM   11  H   UNL     1      -9.227  16.804  64.934  1.00  0.00     0.000 HD 
HETATM   12  H2  UNL     1     -10.816  17.915  69.216  1.00  0.00     0.000 HD 
HETATM   13  O   UNL     1      -9.298  16.979  65.864  1.00  0.00    -0.498 OA 
HETATM   14  O   UNL     1     -10.480  20.179  69.274  1.00  0.00    -0.218 OA 
HETATM   15  H1  UNL     1     -11.606  18.197  67.731  1.00  0.00     0.000 HD 
ENDROOT
BRANCH   6  16
HETATM   16  C   UNL     2     -12.373  14.152  64.625  1.00  0.00    -0.432 C  
BRANCH  16  17
HETATM   17  C   UNL     2     -11.351  13.993  65.754  1.00  0.00    -0.312 C  
BRANCH  17  18
HETATM   18  C   UNL     2     -11.934  14.119  67.181  1.00  0.00    -0.460 C  
HETATM   19  C   UNL     2     -10.956  14.120  68.378  1.00  0.00    -0.254 C  
HETATM   20  C   UNL     2     -11.606  14.435  69.733  1.00  0.00    -0.352 C  
HETATM   21  O   UNL     2      -9.995  15.154  68.137  1.00  0.00    -0.218 OA 
HETATM   22  C   UNL     2     -10.232  12.806  68.458  1.00  0.00    -0.206 C  
HETATM   23  H   UNL     2      -9.394  15.155  68.872  1.00  0.00     0.000 HD 
HETATM   24  C   UNL     2     -10.725  11.623  68.859  1.00  0.00    -0.244 C  
BRANCH  24  25
HETATM   25  C   UNL     2      -9.958  10.320  68.890  1.00  0.00    -0.209 C  
HETATM   26  C   UNL     2      -8.431  10.426  68.665  1.00  0.00    -0.129 C  
HETATM   27  C   UNL     2      -7.957   9.044  69.046  1.00  0.00    -0.102 C  
HETATM   28  O   UNL     2      -7.750  11.319  69.542  1.00  0.00    -0.362 OA 
HETATM   29  H   UNL     2      -6.812  11.384  69.404  1.00  0.00     0.000 HD 
HETATM   30  C   UNL     2      -8.750   8.731  70.314  1.00  0.00    -0.161 C  
HETATM   31  C   UNL     2     -10.099   9.491  70.203  1.00  0.00    -0.293 C  
HETATM   32  O   UNL     2      -8.861   7.320  70.416  1.00  0.00    -0.148 OA 
HETATM   33  H   UNL     2      -9.355   7.126  71.204  1.00  0.00     0.000 HD 
BRANCH  31  34
HETATM   34  C   UNL     2     -11.362   8.601  70.228  1.00  0.00    -0.146 C  
BRANCH  34  35
HETATM   35  C   UNL     2     -12.244   8.821  71.435  1.00  0.00    -0.359 C  
HETATM   36  C   UNL     2     -12.151   8.267  72.654  1.00  0.00    -0.326 C  
BRANCH  36  37
HETATM   37  C   UNL     2     -11.131   7.275  73.135  1.00  0.00    -0.336 C  
BRANCH  37  38
HETATM   38  C   UNL     2     -11.498   5.824  72.816  1.00  0.00    -0.304 C  
BRANCH  38  39
HETATM   39  C   UNL     2     -10.724   4.784  73.610  1.00  0.00    -0.350 C  
HETATM   40  C   UNL     2      -9.495   4.147  72.959  1.00  0.00    -0.117 C  
HETATM   41  O   UNL     2      -9.205   3.001  73.401  1.00  0.00    -0.085 OA 
HETATM   42  O   UNL     2      -8.828   4.803  72.094  1.00  0.00    -0.122 OA 
ENDBRANCH  38  39
ENDBRANCH  37  38
ENDBRANCH  36  37
ENDBRANCH  34  35
ENDBRANCH  31  34
ENDBRANCH  24  25
ENDBRANCH  17  18
ENDBRANCH  16  17
ENDBRANCH   6  16
TORSDOF 9
ENDMDL
MODEL       76
REMARK 921   NORMALIZED FREE ENERGY PREDICTED BY IDOCK:   -6.30 KCAL/MOL
REMARK 922        TOTAL FREE ENERGY PREDICTED BY IDOCK:  -11.54 KCAL/MOL
REMARK 923 INTER-LIGAND FREE ENERGY PREDICTED BY IDOCK:   -9.12 KCAL/MOL
REMARK 924 INTRA-LIGAND FREE ENERGY PREDICTED BY IDOCK:   -2.42 KCAL/MOL
REMARK 927      BINDING AFFINITY PREDICTED BY RF-SCORE:    0.00 PKD
ROOT
HETATM    1  O   UNL     1      -5.623  10.584  70.041  1.00  0.00    -0.044 OA 
HETATM    2  C   UNL     1      -5.222  11.225  68.834  1.00  0.00    -0.040 C  
HETATM    3  H   UNL     1      -4.883  10.418  70.613  1.00  0.00     0.000 HD 
HETATM    4  C   UNL     2      -6.914  19.655  68.471  1.00  0.00    -0.345 C  
HETATM    5  C   UNL     1      -6.435  11.498  67.896  1.00  0.00    -0.056 C  
HETATM    6  C   UNL     2      -7.947  18.580  68.167  1.00  0.00    -0.308 C  
HETATM    7  C   UNL     1      -7.495  12.333  68.666  1.00  0.00    -0.100 C  
HETATM    8  N   UNL     1      -5.903  12.298  66.749  1.00  0.00    -0.493 NA 
HETATM    9  C   UNL     1      -7.029  10.261  67.241  1.00  0.00    -0.086 C  
HETATM   10  H   UNL     1      -6.477   9.019  65.834  1.00  0.00     0.000 HD 
HETATM   11  H   UNL     1      -7.572  14.063  69.619  1.00  0.00     0.000 HD 
HETATM   12  H2  UNL     1      -5.115  11.856  66.275  1.00  0.00     0.000 HD 
HETATM   13  O   UNL     1      -6.924  13.553  69.149  1.00  0.00    -0.106 OA 
HETATM   14  O   UNL     1      -6.105   9.792  66.244  1.00  0.00    -0.061 OA 
HETATM   15  H1  UNL     1      -6.697  12.478  66.134  1.00  0.00     0.000 HD 
ENDROOT
BRANCH   6  16
HETATM   16  C   UNL     2      -7.420  17.455  67.274  1.00  0.00    -0.211 C  
BRANCH  16  17
HETATM   17  C   UNL     2      -8.496  16.654  66.536  1.00  0.00    -0.327 C  
BRANCH  17  18
HETATM   18  C   UNL     2      -9.916  16.767  67.137  1.00  0.00    -0.274 C  
HETATM   19  C   UNL     2     -10.383  15.680  68.132  1.00  0.00    -0.246 C  
HETATM   20  C   UNL     2     -11.727  15.973  68.815  1.00  0.00    -0.302 C  
HETATM   21  O   UNL     2      -9.402  15.612  69.173  1.00  0.00    -0.216 OA 
HETATM   22  C   UNL     2     -10.444  14.343  67.448  1.00  0.00    -0.261 C  
HETATM   23  H   UNL     2      -9.688  14.944  69.784  1.00  0.00     0.000 HD 
HETATM   24  C   UNL     2     -11.356  13.922  66.556  1.00  0.00    -0.340 C  
BRANCH  24  25
HETATM   25  C   UNL     2     -11.353  12.572  65.874  1.00  0.00    -0.380 C  
HETATM   26  C   UNL     2     -10.972  12.569  64.375  1.00  0.00    -0.340 C  
HETATM   27  C   UNL     2     -10.780  11.097  64.099  1.00  0.00    -0.415 C  
HETATM   28  O   UNL     2      -9.723  13.181  64.067  1.00  0.00    -0.671 OA 
HETATM   29  H   UNL     2      -9.488  13.180  63.146  1.00  0.00     0.000 HD 
HETATM   30  C   UNL     2     -10.003  10.602  65.317  1.00  0.00    -0.294 C  
HETATM   31  C   UNL     2     -10.418  11.500  66.513  1.00  0.00    -0.284 C  
HETATM   32  O   UNL     2     -10.285   9.221  65.476  1.00  0.00    -0.319 OA 
HETATM   33  H   UNL     2      -9.801   8.913  66.234  1.00  0.00     0.000 HD 
BRANCH  31  34
HETATM   34  C   UNL     2     -11.068  10.757  67.702  1.00  0.00    -0.384 C  
BRANCH  34  35
HETATM   35  C   UNL     2     -11.295  11.624  68.919  1.00  0.00    -0.328 C  
HETATM   36  C   UNL     2     -11.639  11.251  70.161  1.00  0.00    -0.393 C  
BRANCH  36  37
HETATM   37  C   UNL     2     -11.884   9.858  70.666  1.00  0.00    -0.386 C  
BRANCH  37  38
HETATM   38  C   UNL     2     -10.850   9.394  71.693  1.00  0.00    -0.348 C  
BRANCH  38  39
HETATM   39  C   UNL     2      -9.927   8.287  71.209  1.00  0.00    -0.243 C  
HETATM   40  C   UNL     2      -8.578   8.684  70.608  1.00  0.00    -0.163 C  
HETATM   41  O   UNL     2      -8.098   7.840  69.800  1.00  0.00    -0.113 OA 
HETATM   42  O   UNL     2      -8.011   9.761  70.985  1.00  0.00    -0.242 OA 
ENDBRANCH  38  39
ENDBRANCH  37  38
ENDBRANCH  36  37
ENDBRANCH  34  35
ENDBRANCH  31  34
ENDBRANCH  24  25
ENDBRANCH  17  18
ENDBRANCH  16  17
ENDBRANCH   6  16
TORSDOF 9
ENDMDL
MODEL       77
REMARK 921   NORMALIZED FREE ENERGY PREDICTED BY IDOCK:   -6.28 KCAL/MOL
REMARK 922        TOTAL FREE ENERGY PREDICTED BY IDOCK:  -11.52 KCAL/MOL
REMARK 923 INTER-LIGAND FREE ENERGY PREDICTED BY IDOCK:   -9.68 KCAL/MOL
REMARK 924 INTRA-LIGAND FREE ENERGY PREDICTED BY IDOCK:   -1.84 KCAL/MOL
REMARK 927      BINDING AFFINITY PREDICTED BY RF-SCORE:    0.00 PKD
ROOT
HETATM    1  O   UNL     1     -12.024  11.469  66.236  1.00  0.00    -0.294 OA 
HETATM    2  C   UNL     1     -10.804  12.130  65.919  1.00  0.00    -0.278 C  
HETATM    3  H   UNL     1     -11.912  10.842  66.941  1.00  0.00     0.000 HD 
HETATM    4  C   UNL     2     -10.161  20.174  68.908  1.00  0.00    -0.292 C  
HETATM    5  C   UNL     1     -10.987  13.157  64.764  1.00  0.00    -0.336 C  
HETATM    6  C   UNL     2     -10.899  19.813  67.628  1.00  0.00    -0.361 C  
HETATM    7  C   UNL     1     -12.103  14.165  65.153  1.00  0.00    -0.414 C  
HETATM    8  N   UNL     1      -9.682  13.879  64.636  1.00  0.00    -0.475 NA 
HETATM    9  C   UNL     1     -11.207  12.543  63.390  1.00  0.00    -0.397 C  
HETATM   10  H   UNL     1     -10.102  11.583  62.092  1.00  0.00     0.000 HD 
HETATM   11  H   UNL     1     -12.470  15.435  66.623  1.00  0.00     0.000 HD 
HETATM   12  H2  UNL     1      -8.884  13.257  64.503  1.00  0.00     0.000 HD 
HETATM   13  O   UNL     1     -11.788  14.819  66.386  1.00  0.00    -0.330 OA 
HETATM   14  O   UNL     1      -9.965  11.967  62.951  1.00  0.00    -0.300 OA 
HETATM   15  H1  UNL     1      -9.802  14.552  63.880  1.00  0.00     0.000 HD 
ENDROOT
BRANCH   6  16
HETATM   16  C   UNL     2     -10.136  18.836  66.732  1.00  0.00    -0.409 C  
BRANCH  16  17
HETATM   17  C   UNL     2      -8.917  19.427  66.017  1.00  0.00    -0.180 C  
BRANCH  17  18
HETATM   18  C   UNL     2      -7.615  19.433  66.851  1.00  0.00    -0.261 C  
HETATM   19  C   UNL     2      -6.435  18.553  66.380  1.00  0.00    -0.196 C  
HETATM   20  C   UNL     2      -5.129  18.765  67.159  1.00  0.00    -0.137 C  
HETATM   21  O   UNL     2      -6.161  18.909  65.020  1.00  0.00    -0.257 OA 
HETATM   22  C   UNL     2      -6.820  17.101  66.424  1.00  0.00    -0.284 C  
HETATM   23  H   UNL     2      -5.436  18.368  64.730  1.00  0.00     0.000 HD 
HETATM   24  C   UNL     2      -6.967  16.327  67.512  1.00  0.00    -0.184 C  
BRANCH  24  25
HETATM   25  C   UNL     2      -7.388  14.874  67.500  1.00  0.00    -0.229 C  
HETATM   26  C   UNL     2      -6.251  13.838  67.341  1.00  0.00     0.151 C  
HETATM   27  C   UNL     2      -6.954  12.542  67.663  1.00  0.00    -0.139 C  
HETATM   28  O   UNL     2      -5.196  13.947  68.292  1.00  0.00    -0.095 OA 
HETATM   29  H   UNL     2      -4.497  13.311  68.195  1.00  0.00     0.000 HD 
HETATM   30  C   UNL     2      -7.810  12.891  68.879  1.00  0.00     0.139 C  
HETATM   31  C   UNL     2      -8.175  14.395  68.758  1.00  0.00    -0.126 C  
HETATM   32  O   UNL     2      -8.916  12.003  68.897  1.00  0.00    -0.381 OA 
HETATM   33  H   UNL     2      -9.448  12.221  69.654  1.00  0.00     0.000 HD 
BRANCH  31  34
HETATM   34  C   UNL     2      -9.687  14.702  68.685  1.00  0.00    -0.220 C  
BRANCH  34  35
HETATM   35  C   UNL     2     -10.144  15.773  69.650  1.00  0.00    -0.289 C  
HETATM   36  C   UNL     2     -11.347  15.923  70.225  1.00  0.00    -0.381 C  
BRANCH  36  37
HETATM   37  C   UNL     2     -12.560  15.054  70.057  1.00  0.00    -0.257 C  
BRANCH  37  38
HETATM   38  C   UNL     2     -13.625  15.285  71.131  1.00  0.00    -0.540 C  
BRANCH  38  39
HETATM   39  C   UNL     2     -13.318  14.645  72.476  1.00  0.00    -0.542 C  
HETATM   40  C   UNL     2     -12.719  15.526  73.573  1.00  0.00    -0.553 C  
HETATM   41  O   UNL     2     -12.042  14.899  74.435  1.00  0.00    -0.546 OA 
HETATM   42  O   UNL     2     -12.976  16.774  73.592  1.00  0.00    -0.287 OA 
ENDBRANCH  38  39
ENDBRANCH  37  38
ENDBRANCH  36  37
ENDBRANCH  34  35
ENDBRANCH  31  34
ENDBRANCH  24  25
ENDBRANCH  17  18
ENDBRANCH  16  17
ENDBRANCH   6  16
TORSDOF 9
ENDMDL
MODEL       78
REMARK 921   NORMALIZED FREE ENERGY PREDICTED BY IDOCK:   -6.27 KCAL/MOL
REMARK 922        TOTAL FREE ENERGY PREDICTED BY IDOCK:  -11.50 KCAL/MOL
REMARK 923 INTER-LIGAND FREE ENERGY PREDICTED BY IDOCK:   -8.89 KCAL/MOL
REMARK 924 INTRA-LIGAND FREE ENERGY PREDICTED BY IDOCK:   -2.61 KCAL/MOL
REMARK 927      BINDING AFFINITY PREDICTED BY RF-SCORE:    0.00 PKD
ROOT
HETATM    1  O   UNL     1     -10.178   7.740  71.601  1.00  0.00    -0.183 OA 
HETATM    2  C   UNL     1      -9.062   8.261  70.887  1.00  0.00    -0.152 C  
HETATM    3  H   UNL     1     -10.329   8.211  72.412  1.00  0.00     0.000 HD 
HETATM    4  C   UNL     2     -11.068  13.185  64.120  1.00  0.00    -0.426 C  
HETATM    5  C   UNL     1      -8.815   7.489  69.558  1.00  0.00    -0.137 C  
HETATM    6  C   UNL     2     -11.047  11.665  64.072  1.00  0.00    -0.458 C  
HETATM    7  C   UNL     1     -10.111   7.522  68.703  1.00  0.00    -0.184 C  
HETATM    8  N   UNL     1      -7.724   8.225  68.844  1.00  0.00    -0.100 NA 
HETATM    9  C   UNL     1      -8.263   6.082  69.728  1.00  0.00    -0.118 C  
HETATM   10  H   UNL     1      -6.550   5.306  70.265  1.00  0.00     0.000 HD 
HETATM   11  H   UNL     1     -11.310   8.891  67.930  1.00  0.00     0.000 HD 
HETATM   12  H2  UNL     1      -6.881   8.346  69.406  1.00  0.00     0.000 HD 
HETATM   13  O   UNL     1     -10.518   8.871  68.453  1.00  0.00    -0.210 OA 
HETATM   14  O   UNL     1      -6.895   6.185  70.159  1.00  0.00    -0.053 OA 
HETATM   15  H1  UNL     1      -7.562   7.719  67.974  1.00  0.00     0.000 HD 
ENDROOT
BRANCH   6  16
HETATM   16  C   UNL     2      -9.819  11.045  64.743  1.00  0.00    -0.329 C  
BRANCH  16  17
HETATM   17  C   UNL     2      -9.768  11.193  66.266  1.00  0.00    -0.244 C  
BRANCH  17  18
HETATM   18  C   UNL     2      -8.346  11.179  66.873  1.00  0.00    -0.147 C  
HETATM   19  C   UNL     2      -8.127  11.839  68.253  1.00  0.00    -0.154 C  
HETATM   20  C   UNL     2      -6.733  11.615  68.856  1.00  0.00    -0.088 C  
HETATM   21  O   UNL     2      -9.064  11.244  69.158  1.00  0.00    -0.394 OA 
HETATM   22  C   UNL     2      -8.413  13.313  68.174  1.00  0.00    -0.173 C  
HETATM   23  H   UNL     2      -8.930  11.650  70.006  1.00  0.00     0.000 HD 
HETATM   24  C   UNL     2      -7.657  14.262  67.597  1.00  0.00    -0.191 C  
BRANCH  24  25
HETATM   25  C   UNL     2      -8.008  15.731  67.520  1.00  0.00    -0.171 C  
HETATM   26  C   UNL     2      -6.815  16.714  67.474  1.00  0.00    -0.151 C  
HETATM   27  C   UNL     2      -7.487  18.014  67.108  1.00  0.00    -0.221 C  
HETATM   28  O   UNL     2      -5.868  16.468  66.437  1.00  0.00    -0.245 OA 
HETATM   29  H   UNL     2      -5.135  17.071  66.408  1.00  0.00     0.000 HD 
HETATM   30  C   UNL     2      -8.478  17.611  66.018  1.00  0.00    -0.043 C  
HETATM   31  C   UNL     2      -8.897  16.145  66.308  1.00  0.00    -0.371 C  
HETATM   32  O   UNL     2      -9.539  18.553  66.029  1.00  0.00    -0.487 OA 
HETATM   33  H   UNL     2     -10.155  18.302  65.351  1.00  0.00     0.000 HD 
BRANCH  31  34
HETATM   34  C   UNL     2     -10.406  15.927  66.557  1.00  0.00    -0.304 C  
BRANCH  34  35
HETATM   35  C   UNL     2     -10.884  16.418  67.905  1.00  0.00    -0.328 C  
HETATM   36  C   UNL     2     -11.450  15.717  68.899  1.00  0.00    -0.381 C  
BRANCH  36  37
HETATM   37  C   UNL     2     -11.756  14.247  68.926  1.00  0.00    -0.363 C  
BRANCH  37  38
HETATM   38  C   UNL     2     -12.422  13.791  70.226  1.00  0.00    -0.357 C  
BRANCH  38  39
HETATM   39  C   UNL     2     -13.088  14.903  71.021  1.00  0.00    -0.456 C  
HETATM   40  C   UNL     2     -12.433  15.345  72.331  1.00  0.00    -0.379 C  
HETATM   41  O   UNL     2     -13.229  15.864  73.163  1.00  0.00    -0.525 OA 
HETATM   42  O   UNL     2     -11.173  15.229  72.477  1.00  0.00    -0.367 OA 
ENDBRANCH  38  39
ENDBRANCH  37  38
ENDBRANCH  36  37
ENDBRANCH  34  35
ENDBRANCH  31  34
ENDBRANCH  24  25
ENDBRANCH  17  18
ENDBRANCH  16  17
ENDBRANCH   6  16
TORSDOF 9
ENDMDL
MODEL       79
REMARK 921   NORMALIZED FREE ENERGY PREDICTED BY IDOCK:   -6.22 KCAL/MOL
REMARK 922        TOTAL FREE ENERGY PREDICTED BY IDOCK:  -11.42 KCAL/MOL
REMARK 923 INTER-LIGAND FREE ENERGY PREDICTED BY IDOCK:   -8.92 KCAL/MOL
REMARK 924 INTRA-LIGAND FREE ENERGY PREDICTED BY IDOCK:   -2.50 KCAL/MOL
REMARK 927      BINDING AFFINITY PREDICTED BY RF-SCORE:    0.00 PKD
ROOT
HETATM    1  O   UNL     1     -11.777  14.190  63.796  1.00  0.00    -0.647 OA 
HETATM    2  C   UNL     1     -10.709  13.815  64.659  1.00  0.00    -0.414 C  
HETATM    3  H   UNL     1     -11.763  13.696  62.984  1.00  0.00     0.000 HD 
HETATM    4  C   UNL     2     -12.972   8.740  71.230  1.00  0.00    -0.229 C  
HETATM    5  C   UNL     1     -10.732  14.623  65.990  1.00  0.00    -0.312 C  
HETATM    6  C   UNL     2     -13.141  10.252  71.244  1.00  0.00    -0.492 C  
HETATM    7  C   UNL     1     -12.116  14.438  66.672  1.00  0.00    -0.367 C  
HETATM    8  N   UNL     1      -9.664  14.033  66.855  1.00  0.00    -0.262 NA 
HETATM    9  C   UNL     1     -10.337  16.086  65.858  1.00  0.00    -0.368 C  
HETATM   10  H   UNL     1      -8.675  17.062  65.527  1.00  0.00     0.000 HD 
HETATM   11  H   UNL     1     -13.232  12.939  67.317  1.00  0.00     0.000 HD 
HETATM   12  H2  UNL     1      -8.746  14.011  66.410  1.00  0.00     0.000 HD 
HETATM   13  O   UNL     1     -12.386  13.052  66.900  1.00  0.00    -0.351 OA 
HETATM   14  O   UNL     1      -8.922  16.148  65.610  1.00  0.00    -0.370 OA 
HETATM   15  H1  UNL     1      -9.679  14.562  67.727  1.00  0.00     0.000 HD 
ENDROOT
BRANCH   6  16
HETATM   16  C   UNL     2     -11.920  11.011  70.722  1.00  0.00    -0.436 C  
BRANCH  16  17
HETATM   17  C   UNL     2     -10.702  10.140  70.402  1.00  0.00    -0.329 C  
BRANCH  17  18
HETATM   18  C   UNL     2     -10.000  10.472  69.064  1.00  0.00    -0.223 C  
HETATM   19  C   UNL     2     -10.683  10.037  67.747  1.00  0.00    -0.280 C  
HETATM   20  C   UNL     2     -10.010  10.568  66.473  1.00  0.00    -0.266 C  
HETATM   21  O   UNL     2     -12.010  10.574  67.763  1.00  0.00    -0.611 OA 
HETATM   22  C   UNL     2     -10.777   8.538  67.682  1.00  0.00    -0.189 C  
HETATM   23  H   UNL     2     -12.430  10.307  66.954  1.00  0.00     0.000 HD 
HETATM   24  C   UNL     2      -9.780   7.665  67.456  1.00  0.00    -0.197 C  
BRANCH  24  25
HETATM   25  C   UNL     2      -9.926   6.160  67.431  1.00  0.00    -0.166 C  
HETATM   26  C   UNL     2      -9.298   5.437  66.217  1.00  0.00    -0.154 C  
HETATM   27  C   UNL     2      -9.357   3.990  66.643  1.00  0.00    -0.197 C  
HETATM   28  O   UNL     2      -7.919   5.714  65.993  1.00  0.00    -0.102 OA 
HETATM   29  H   UNL     2      -7.533   5.270  65.248  1.00  0.00     0.000 HD 
HETATM   30  C   UNL     2      -8.916   4.030  68.106  1.00  0.00    -0.121 C  
HETATM   31  C   UNL     2      -9.347   5.410  68.670  1.00  0.00    -0.147 C  
HETATM   32  O   UNL     2      -9.489   2.908  68.759  1.00  0.00    -0.177 OA 
HETATM   33  H   UNL     2      -9.215   2.933  69.668  1.00  0.00     0.000 HD 
BRANCH  31  34
HETATM   34  C   UNL     2     -10.327   5.358  69.863  1.00  0.00    -0.377 C  
BRANCH  34  35
HETATM   35  C   UNL     2     -10.166   6.501  70.840  1.00  0.00    -0.220 C  
HETATM   36  C   UNL     2      -9.035   7.073  71.280  1.00  0.00    -0.137 C  
BRANCH  36  37
HETATM   37  C   UNL     2      -7.623   6.721  70.907  1.00  0.00    -0.088 C  
BRANCH  37  38
HETATM   38  C   UNL     2      -6.885   7.854  70.191  1.00  0.00    -0.045 C  
BRANCH  38  39
HETATM   39  C   UNL     2      -7.037   9.221  70.842  1.00  0.00    -0.110 C  
HETATM   40  C   UNL     2      -6.595  10.450  70.047  1.00  0.00    -0.137 C  
HETATM   41  O   UNL     2      -6.272  11.442  70.758  1.00  0.00    -0.343 OA 
HETATM   42  O   UNL     2      -6.636  10.428  68.774  1.00  0.00    -0.051 OA 
ENDBRANCH  38  39
ENDBRANCH  37  38
ENDBRANCH  36  37
ENDBRANCH  34  35
ENDBRANCH  31  34
ENDBRANCH  24  25
ENDBRANCH  17  18
ENDBRANCH  16  17
ENDBRANCH   6  16
TORSDOF 9
ENDMDL
MODEL       80
REMARK 921   NORMALIZED FREE ENERGY PREDICTED BY IDOCK:   -6.21 KCAL/MOL
REMARK 922        TOTAL FREE ENERGY PREDICTED BY IDOCK:  -11.40 KCAL/MOL
REMARK 923 INTER-LIGAND FREE ENERGY PREDICTED BY IDOCK:   -9.51 KCAL/MOL
REMARK 924 INTRA-LIGAND FREE ENERGY PREDICTED BY IDOCK:   -1.89 KCAL/MOL
REMARK 927      BINDING AFFINITY PREDICTED BY RF-SCORE:    0.00 PKD
ROOT
HETATM    1  O   UNL     1      -9.191   6.102  69.146  1.00  0.00    -0.127 OA 
HETATM    2  C   UNL     1      -8.353   6.773  68.210  1.00  0.00    -0.118 C  
HETATM    3  H   UNL     1      -8.961   6.318  70.042  1.00  0.00     0.000 HD 
HETATM    4  C   UNL     2     -11.968  13.540  64.313  1.00  0.00    -0.479 C  
HETATM    5  C   UNL     1      -8.728   6.419  66.742  1.00  0.00    -0.119 C  
HETATM    6  C   UNL     2     -12.189  12.102  63.868  1.00  0.00    -0.587 C  
HETATM    7  C   UNL     1     -10.229   6.747  66.509  1.00  0.00    -0.054 C  
HETATM    8  N   UNL     1      -7.883   7.296  65.872  1.00  0.00    -0.100 NA 
HETATM    9  C   UNL     1      -8.365   5.007  66.310  1.00  0.00    -0.112 C  
HETATM   10  H   UNL     1      -6.708   4.050  65.905  1.00  0.00     0.000 HD 
HETATM   11  H   UNL     1     -11.415   8.323  66.656  1.00  0.00     0.000 HD 
HETATM   12  H2  UNL     1      -6.884   7.218  66.065  1.00  0.00     0.000 HD 
HETATM   13  O   UNL     1     -10.498   8.123  66.798  1.00  0.00    -0.326 OA 
HETATM   14  O   UNL     1      -6.936   4.932  66.175  1.00  0.00    -0.066 OA 
HETATM   15  H1  UNL     1      -8.129   7.065  64.910  1.00  0.00     0.000 HD 
ENDROOT
BRANCH   6  16
HETATM   16  C   UNL     2     -10.906  11.271  63.814  1.00  0.00    -0.424 C  
BRANCH  16  17
HETATM   17  C   UNL     2     -10.297  10.927  65.177  1.00  0.00    -0.344 C  
BRANCH  17  18
HETATM   18  C   UNL     2      -8.759  11.066  65.255  1.00  0.00    -0.099 C  
HETATM   19  C   UNL     2      -8.095  11.120  66.650  1.00  0.00    -0.159 C  
HETATM   20  C   UNL     2      -6.560  11.071  66.630  1.00  0.00    -0.128 C  
HETATM   21  O   UNL     2      -8.530   9.960  67.369  1.00  0.00    -0.118 OA 
HETATM   22  C   UNL     2      -8.553  12.341  67.396  1.00  0.00    -0.178 C  
HETATM   23  H   UNL     2      -8.123   9.993  68.226  1.00  0.00     0.000 HD 
HETATM   24  C   UNL     2      -8.195  13.617  67.174  1.00  0.00    -0.123 C  
BRANCH  24  25
HETATM   25  C   UNL     2      -8.711  14.816  67.938  1.00  0.00    -0.167 C  
HETATM   26  C   UNL     2      -7.687  15.943  68.207  1.00  0.00    -0.137 C  
HETATM   27  C   UNL     2      -8.570  17.064  68.698  1.00  0.00    -0.265 C  
HETATM   28  O   UNL     2      -7.030  16.453  67.050  1.00  0.00    -0.186 OA 
HETATM   29  H   UNL     2      -6.401  17.145  67.215  1.00  0.00     0.000 HD 
HETATM   30  C   UNL     2      -9.766  17.021  67.748  1.00  0.00    -0.258 C  
HETATM   31  C   UNL     2      -9.930  15.545  67.296  1.00  0.00    -0.238 C  
HETATM   32  O   UNL     2     -10.881  17.568  68.434  1.00  0.00    -0.314 OA 
HETATM   33  H   UNL     2     -11.625  17.540  67.842  1.00  0.00     0.000 HD 
BRANCH  31  34
HETATM   34  C   UNL     2     -11.286  14.894  67.651  1.00  0.00    -0.348 C  
BRANCH  34  35
HETATM   35  C   UNL     2     -11.164  13.633  68.475  1.00  0.00    -0.310 C  
HETATM   36  C   UNL     2     -11.702  13.361  69.675  1.00  0.00    -0.375 C  
BRANCH  36  37
HETATM   37  C   UNL     2     -12.574  14.252  70.512  1.00  0.00    -0.418 C  
BRANCH  37  38
HETATM   38  C   UNL     2     -11.837  15.471  71.071  1.00  0.00    -0.427 C  
BRANCH  38  39
HETATM   39  C   UNL     2     -11.712  15.497  72.587  1.00  0.00    -0.564 C  
HETATM   40  C   UNL     2     -12.874  16.077  73.395  1.00  0.00    -0.562 C  
HETATM   41  O   UNL     2     -12.547  16.530  74.527  1.00  0.00    -0.750 OA 
HETATM   42  O   UNL     2     -14.059  16.015  72.931  1.00  0.00    -0.530 OA 
ENDBRANCH  38  39
ENDBRANCH  37  38
ENDBRANCH  36  37
ENDBRANCH  34  35
ENDBRANCH  31  34
ENDBRANCH  24  25
ENDBRANCH  17  18
ENDBRANCH  16  17
ENDBRANCH   6  16
TORSDOF 9
ENDMDL
MODEL       81
REMARK 921   NORMALIZED FREE ENERGY PREDICTED BY IDOCK:   -6.18 KCAL/MOL
REMARK 922        TOTAL FREE ENERGY PREDICTED BY IDOCK:  -11.35 KCAL/MOL
REMARK 923 INTER-LIGAND FREE ENERGY PREDICTED BY IDOCK:   -9.04 KCAL/MOL
REMARK 924 INTRA-LIGAND FREE ENERGY PREDICTED BY IDOCK:   -2.32 KCAL/MOL
REMARK 927      BINDING AFFINITY PREDICTED BY RF-SCORE:    0.00 PKD
ROOT
HETATM    1  O   UNL     1     -11.800  14.058  63.944  1.00  0.00    -0.638 OA 
HETATM    2  C   UNL     1     -10.725  13.685  64.800  1.00  0.00    -0.410 C  
HETATM    3  H   UNL     1     -11.797  13.558  63.137  1.00  0.00     0.000 HD 
HETATM    4  C   UNL     2     -12.948   8.680  71.438  1.00  0.00    -0.285 C  
HETATM    5  C   UNL     1     -10.730  14.505  66.123  1.00  0.00    -0.310 C  
HETATM    6  C   UNL     2     -13.108  10.192  71.440  1.00  0.00    -0.512 C  
HETATM    7  C   UNL     1     -12.108  14.334  66.821  1.00  0.00    -0.417 C  
HETATM    8  N   UNL     1      -9.656  13.916  66.983  1.00  0.00    -0.245 NA 
HETATM    9  C   UNL     1     -10.328  15.964  65.975  1.00  0.00    -0.348 C  
HETATM   10  H   UNL     1      -8.664  16.929  65.618  1.00  0.00     0.000 HD 
HETATM   11  H   UNL     1     -13.225  12.846  67.491  1.00  0.00     0.000 HD 
HETATM   12  H2  UNL     1      -8.743  13.886  66.529  1.00  0.00     0.000 HD 
HETATM   13  O   UNL     1     -12.383  12.951  67.065  1.00  0.00    -0.360 OA 
HETATM   14  O   UNL     1      -8.916  16.017  65.711  1.00  0.00    -0.335 OA 
HETATM   15  H1  UNL     1      -9.659  14.453  67.851  1.00  0.00     0.000 HD 
ENDROOT
BRANCH   6  16
HETATM   16  C   UNL     2     -11.888  10.941  70.899  1.00  0.00    -0.363 C  
BRANCH  16  17
HETATM   17  C   UNL     2     -10.693  10.056  70.534  1.00  0.00    -0.352 C  
BRANCH  17  18
HETATM   18  C   UNL     2     -10.015  10.402  69.188  1.00  0.00    -0.237 C  
HETATM   19  C   UNL     2     -10.683   9.916  67.881  1.00  0.00    -0.265 C  
HETATM   20  C   UNL     2     -10.044  10.461  66.596  1.00  0.00    -0.279 C  
HETATM   21  O   UNL     2     -12.035  10.389  67.898  1.00  0.00    -0.627 OA 
HETATM   22  C   UNL     2     -10.705   8.414  67.837  1.00  0.00    -0.141 C  
HETATM   23  H   UNL     2     -12.446  10.090  67.096  1.00  0.00     0.000 HD 
HETATM   24  C   UNL     2      -9.669   7.587  67.618  1.00  0.00    -0.182 C  
BRANCH  24  25
HETATM   25  C   UNL     2      -9.742   6.076  67.614  1.00  0.00    -0.120 C  
HETATM   26  C   UNL     2      -9.746   5.399  66.224  1.00  0.00    -0.162 C  
HETATM   27  C   UNL     2      -9.528   3.948  66.576  1.00  0.00    -0.211 C  
HETATM   28  O   UNL     2      -8.659   5.755  65.374  1.00  0.00    -0.149 OA 
HETATM   29  H   UNL     2      -8.661   5.339  64.520  1.00  0.00     0.000 HD 
HETATM   30  C   UNL     2      -8.439   4.000  67.647  1.00  0.00    -0.098 C  
HETATM   31  C   UNL     2      -8.605   5.349  68.395  1.00  0.00    -0.095 C  
HETATM   32  O   UNL     2      -8.576   2.842  68.456  1.00  0.00    -0.072 OA 
HETATM   33  H   UNL     2      -7.899   2.875  69.122  1.00  0.00     0.000 HD 
BRANCH  31  34
HETATM   34  C   UNL     2      -8.885   5.233  69.911  1.00  0.00    -0.132 C  
BRANCH  34  35
HETATM   35  C   UNL     2     -10.343   5.389  70.280  1.00  0.00    -0.357 C  
HETATM   36  C   UNL     2     -10.874   5.972  71.366  1.00  0.00    -0.328 C  
BRANCH  36  37
HETATM   37  C   UNL     2     -10.146   6.627  72.504  1.00  0.00    -0.189 C  
BRANCH  37  38
HETATM   38  C   UNL     2     -10.423   5.972  73.858  1.00  0.00    -0.286 C  
BRANCH  38  39
HETATM   39  C   UNL     2     -10.383   4.451  73.847  1.00  0.00    -0.266 C  
HETATM   40  C   UNL     2      -9.050   3.768  73.537  1.00  0.00    -0.094 C  
HETATM   41  O   UNL     2      -9.159   2.605  73.057  1.00  0.00    -0.083 OA 
HETATM   42  O   UNL     2      -7.957   4.356  73.826  1.00  0.00    -0.088 OA 
ENDBRANCH  38  39
ENDBRANCH  37  38
ENDBRANCH  36  37
ENDBRANCH  34  35
ENDBRANCH  31  34
ENDBRANCH  24  25
ENDBRANCH  17  18
ENDBRANCH  16  17
ENDBRANCH   6  16
TORSDOF 9
ENDMDL
MODEL       82
REMARK 921   NORMALIZED FREE ENERGY PREDICTED BY IDOCK:   -6.17 KCAL/MOL
REMARK 922        TOTAL FREE ENERGY PREDICTED BY IDOCK:  -11.34 KCAL/MOL
REMARK 923 INTER-LIGAND FREE ENERGY PREDICTED BY IDOCK:   -9.07 KCAL/MOL
REMARK 924 INTRA-LIGAND FREE ENERGY PREDICTED BY IDOCK:   -2.27 KCAL/MOL
REMARK 927      BINDING AFFINITY PREDICTED BY RF-SCORE:    0.00 PKD
ROOT
HETATM    1  O   UNL     1     -12.042   7.448  72.694  1.00  0.00    -0.528 OA 
HETATM    2  C   UNL     1     -10.677   7.121  72.455  1.00  0.00    -0.241 C  
HETATM    3  H   UNL     1     -12.197   7.669  73.604  1.00  0.00     0.000 HD 
HETATM    4  C   UNL     2      -6.095  13.298  68.595  1.00  0.00    -0.085 C  
HETATM    5  C   UNL     1     -10.423   6.759  70.962  1.00  0.00    -0.212 C  
HETATM    6  C   UNL     2      -6.996  12.331  67.842  1.00  0.00    -0.104 C  
HETATM    7  C   UNL     1     -10.898   7.936  70.067  1.00  0.00    -0.238 C  
HETATM    8  N   UNL     1      -8.942   6.587  70.821  1.00  0.00    -0.144 NA 
HETATM    9  C   UNL     1     -10.995   5.421  70.521  1.00  0.00    -0.031 C  
HETATM   10  H   UNL     1     -10.566   3.540  70.842  1.00  0.00     0.000 HD 
HETATM   11  H   UNL     1     -10.521   9.869  69.882  1.00  0.00     0.000 HD 
HETATM   12  H2  UNL     1      -8.548   5.911  71.475  1.00  0.00     0.000 HD 
HETATM   13  O   UNL     1     -10.231   9.149  70.429  1.00  0.00    -0.193 OA 
HETATM   14  O   UNL     1     -10.208   4.377  71.118  1.00  0.00    -0.157 OA 
HETATM   15  H1  UNL     1      -8.776   6.350  69.843  1.00  0.00     0.000 HD 
ENDROOT
BRANCH   6  16
HETATM   16  C   UNL     2      -6.849  10.876  68.293  1.00  0.00    -0.067 C  
BRANCH  16  17
HETATM   17  C   UNL     2      -6.144   9.955  67.292  1.00  0.00    -0.059 C  
BRANCH  17  18
HETATM   18  C   UNL     2      -7.060   8.907  66.619  1.00  0.00    -0.084 C  
HETATM   19  C   UNL     2      -7.444   9.110  65.135  1.00  0.00    -0.097 C  
HETATM   20  C   UNL     2      -8.198   7.930  64.503  1.00  0.00    -0.073 C  
HETATM   21  O   UNL     2      -6.224   9.256  64.400  1.00  0.00    -0.074 OA 
HETATM   22  C   UNL     2      -8.249  10.368  64.975  1.00  0.00    -0.152 C  
HETATM   23  H   UNL     2      -6.460   9.381  63.488  1.00  0.00     0.000 HD 
HETATM   24  C   UNL     2      -9.527  10.573  65.337  1.00  0.00    -0.273 C  
BRANCH  24  25
HETATM   25  C   UNL     2     -10.282  11.874  65.181  1.00  0.00    -0.314 C  
HETATM   26  C   UNL     2     -10.728  12.232  63.744  1.00  0.00    -0.449 C  
HETATM   27  C   UNL     2     -11.674  13.384  63.982  1.00  0.00    -0.465 C  
HETATM   28  O   UNL     2     -11.499  11.234  63.082  1.00  0.00    -0.850 OA 
HETATM   29  H   UNL     2     -11.772  11.454  62.199  1.00  0.00     0.000 HD 
HETATM   30  C   UNL     2     -12.496  12.928  65.186  1.00  0.00    -0.501 C  
HETATM   31  C   UNL     2     -11.583  12.000  66.031  1.00  0.00    -0.371 C  
HETATM   32  O   UNL     2     -12.958  14.090  65.857  1.00  0.00    -0.472 OA 
HETATM   33  H   UNL     2     -13.469  13.806  66.606  1.00  0.00     0.000 HD 
BRANCH  31  34
HETATM   34  C   UNL     2     -11.320  12.474  67.479  1.00  0.00    -0.368 C  
BRANCH  34  35
HETATM   35  C   UNL     2     -11.948  11.594  68.536  1.00  0.00    -0.284 C  
HETATM   36  C   UNL     2     -12.160  11.865  69.833  1.00  0.00    -0.344 C  
BRANCH  36  37
HETATM   37  C   UNL     2     -11.827  13.129  70.573  1.00  0.00    -0.184 C  
BRANCH  37  38
HETATM   38  C   UNL     2     -12.843  14.250  70.345  1.00  0.00    -0.276 C  
BRANCH  38  39
HETATM   39  C   UNL     2     -12.259  15.654  70.387  1.00  0.00    -0.429 C  
HETATM   40  C   UNL     2     -11.469  16.142  69.171  1.00  0.00    -0.311 C  
HETATM   41  O   UNL     2     -10.621  17.041  69.428  1.00  0.00    -0.335 OA 
HETATM   42  O   UNL     2     -11.742  15.683  68.015  1.00  0.00    -0.306 OA 
ENDBRANCH  38  39
ENDBRANCH  37  38
ENDBRANCH  36  37
ENDBRANCH  34  35
ENDBRANCH  31  34
ENDBRANCH  24  25
ENDBRANCH  17  18
ENDBRANCH  16  17
ENDBRANCH   6  16
TORSDOF 9
ENDMDL
MODEL       83
REMARK 921   NORMALIZED FREE ENERGY PREDICTED BY IDOCK:   -6.13 KCAL/MOL
REMARK 922        TOTAL FREE ENERGY PREDICTED BY IDOCK:  -11.27 KCAL/MOL
REMARK 923 INTER-LIGAND FREE ENERGY PREDICTED BY IDOCK:   -9.00 KCAL/MOL
REMARK 924 INTRA-LIGAND FREE ENERGY PREDICTED BY IDOCK:   -2.28 KCAL/MOL
REMARK 927      BINDING AFFINITY PREDICTED BY RF-SCORE:    0.00 PKD
ROOT
HETATM    1  O   UNL     1     -10.545   4.236  63.381  1.00  0.00    -0.426 OA 
HETATM    2  C   UNL     1      -9.913   3.711  64.544  1.00  0.00    -0.190 C  
HETATM    3  H   UNL     1     -11.488   4.120  63.409  1.00  0.00     0.000 HD 
HETATM    4  C   UNL     2      -7.436   9.612  70.297  1.00  0.00    -0.165 C  
HETATM    5  C   UNL     1      -8.369   3.903  64.498  1.00  0.00    -0.098 C  
HETATM    6  C   UNL     2      -6.623   9.254  69.063  1.00  0.00    -0.047 C  
HETATM    7  C   UNL     1      -8.050   5.411  64.301  1.00  0.00    -0.123 C  
HETATM    8  N   UNL     1      -7.853   3.451  65.829  1.00  0.00    -0.085 NA 
HETATM    9  C   UNL     1      -7.643   3.017  63.498  1.00  0.00    -0.063 C  
HETATM   10  H   UNL     1      -7.210   1.114  63.370  1.00  0.00     0.000 HD 
HETATM   11  H   UNL     1      -8.446   7.115  65.223  1.00  0.00     0.000 HD 
HETATM   12  H2  UNL     1      -8.137   2.502  66.074  1.00  0.00     0.000 HD 
HETATM   13  O   UNL     1      -8.641   6.193  65.343  1.00  0.00    -0.149 OA 
HETATM   14  O   UNL     1      -7.664   1.668  63.995  1.00  0.00    -0.058 OA 
HETATM   15  H1  UNL     1      -6.841   3.577  65.799  1.00  0.00     0.000 HD 
ENDROOT
BRANCH   6  16
HETATM   16  C   UNL     2      -6.514   7.749  68.813  1.00  0.00    -0.044 C  
BRANCH  16  17
HETATM   17  C   UNL     2      -7.835   7.049  68.483  1.00  0.00    -0.122 C  
BRANCH  17  18
HETATM   18  C   UNL     2      -8.183   5.852  69.399  1.00  0.00    -0.113 C  
HETATM   19  C   UNL     2      -9.542   5.143  69.200  1.00  0.00    -0.146 C  
HETATM   20  C   UNL     2      -9.720   3.859  70.023  1.00  0.00    -0.242 C  
HETATM   21  O   UNL     2      -9.619   4.758  67.822  1.00  0.00    -0.140 OA 
HETATM   22  C   UNL     2     -10.670   6.092  69.492  1.00  0.00    -0.405 C  
HETATM   23  H   UNL     2     -10.454   4.323  67.700  1.00  0.00     0.000 HD 
HETATM   24  C   UNL     2     -11.075   6.535  70.695  1.00  0.00    -0.364 C  
BRANCH  24  25
HETATM   25  C   UNL     2     -12.201   7.517  70.931  1.00  0.00    -0.224 C  
HETATM   26  C   UNL     2     -13.522   6.919  71.468  1.00  0.00    -0.198 C  
HETATM   27  C   UNL     2     -14.294   8.155  71.861  1.00  0.00    -0.566 C  
HETATM   28  O   UNL     2     -13.398   6.150  72.661  1.00  0.00    -0.253 OA 
HETATM   29  H   UNL     2     -14.210   5.783  72.991  1.00  0.00     0.000 HD 
HETATM   30  C   UNL     2     -13.247   9.024  72.557  1.00  0.00    -0.406 C  
HETATM   31  C   UNL     2     -11.877   8.684  71.913  1.00  0.00    -0.420 C  
HETATM   32  O   UNL     2     -13.654  10.377  72.426  1.00  0.00    -0.593 OA 
HETATM   33  H   UNL     2     -13.003  10.917  72.859  1.00  0.00     0.000 HD 
BRANCH  31  34
HETATM   34  C   UNL     2     -11.155   9.869  71.233  1.00  0.00    -0.302 C  
BRANCH  34  35
HETATM   35  C   UNL     2     -11.176   9.816  69.722  1.00  0.00    -0.242 C  
HETATM   36  C   UNL     2     -11.546  10.772  68.856  1.00  0.00    -0.361 C  
BRANCH  36  37
HETATM   37  C   UNL     2     -12.038  12.156  69.171  1.00  0.00    -0.224 C  
BRANCH  37  38
HETATM   38  C   UNL     2     -11.556  13.212  68.175  1.00  0.00    -0.375 C  
BRANCH  38  39
HETATM   39  C   UNL     2     -12.011  12.986  66.741  1.00  0.00    -0.434 C  
HETATM   40  C   UNL     2     -11.988  14.176  65.781  1.00  0.00    -0.402 C  
HETATM   41  O   UNL     2     -12.802  14.087  64.820  1.00  0.00    -0.681 OA 
HETATM   42  O   UNL     2     -11.146  15.116  65.960  1.00  0.00    -0.338 OA 
ENDBRANCH  38  39
ENDBRANCH  37  38
ENDBRANCH  36  37
ENDBRANCH  34  35
ENDBRANCH  31  34
ENDBRANCH  24  25
ENDBRANCH  17  18
ENDBRANCH  16  17
ENDBRANCH   6  16
TORSDOF 9
ENDMDL
MODEL       84
REMARK 921   NORMALIZED FREE ENERGY PREDICTED BY IDOCK:   -6.12 KCAL/MOL
REMARK 922        TOTAL FREE ENERGY PREDICTED BY IDOCK:  -11.27 KCAL/MOL
REMARK 923 INTER-LIGAND FREE ENERGY PREDICTED BY IDOCK:   -8.70 KCAL/MOL
REMARK 924 INTRA-LIGAND FREE ENERGY PREDICTED BY IDOCK:   -2.56 KCAL/MOL
REMARK 927      BINDING AFFINITY PREDICTED BY RF-SCORE:    0.00 PKD
ROOT
HETATM    1  O   UNL     1     -10.374   4.858  70.768  1.00  0.00    -0.222 OA 
HETATM    2  C   UNL     1     -11.134   5.902  70.167  1.00  0.00    -0.325 C  
HETATM    3  H   UNL     1     -10.809   4.017  70.692  1.00  0.00     0.000 HD 
HETATM    4  C   UNL     2      -8.259   8.514  62.488  1.00  0.00    -0.189 C  
HETATM    5  C   UNL     1     -10.421   7.280  70.292  1.00  0.00    -0.219 C  
HETATM    6  C   UNL     2      -7.675   8.996  63.808  1.00  0.00    -0.125 C  
HETATM    7  C   UNL     1      -8.999   7.174  69.674  1.00  0.00    -0.141 C  
HETATM    8  N   UNL     1     -11.241   8.248  69.498  1.00  0.00    -0.439 NA 
HETATM    9  C   UNL     1     -10.406   7.869  71.694  1.00  0.00    -0.204 C  
HETATM   10  H   UNL     1     -11.731   8.671  72.889  1.00  0.00     0.000 HD 
HETATM   11  H   UNL     1      -8.202   6.682  67.933  1.00  0.00     0.000 HD 
HETATM   12  H2  UNL     1     -12.223   8.272  69.776  1.00  0.00     0.000 HD 
HETATM   13  O   UNL     1      -9.070   6.746  68.311  1.00  0.00    -0.126 OA 
HETATM   14  O   UNL     1     -11.739   8.303  72.013  1.00  0.00    -0.300 OA 
HETATM   15  H1  UNL     1     -10.774   9.151  69.579  1.00  0.00     0.000 HD 
ENDROOT
BRANCH   6  16
HETATM   16  C   UNL     2      -8.733   9.370  64.848  1.00  0.00    -0.220 C  
BRANCH  16  17
HETATM   17  C   UNL     2      -9.163  10.840  64.837  1.00  0.00    -0.243 C  
BRANCH  17  18
HETATM   18  C   UNL     2     -10.692  11.069  64.841  1.00  0.00    -0.278 C  
HETATM   19  C   UNL     2     -11.242  12.374  64.221  1.00  0.00    -0.353 C  
HETATM   20  C   UNL     2     -12.772  12.431  64.103  1.00  0.00    -0.446 C  
HETATM   21  O   UNL     2     -10.726  12.458  62.888  1.00  0.00    -0.547 OA 
HETATM   22  C   UNL     2     -10.751  13.564  64.997  1.00  0.00    -0.366 C  
HETATM   23  H   UNL     2     -11.064  13.260  62.507  1.00  0.00     0.000 HD 
HETATM   24  C   UNL     2     -11.151  13.970  66.213  1.00  0.00    -0.307 C  
BRANCH  24  25
HETATM   25  C   UNL     2     -10.600  15.162  66.963  1.00  0.00    -0.300 C  
HETATM   26  C   UNL     2     -11.591  15.897  67.895  1.00  0.00    -0.109 C  
HETATM   27  C   UNL     2     -10.676  16.803  68.681  1.00  0.00    -0.352 C  
HETATM   28  O   UNL     2     -12.237  15.074  68.862  1.00  0.00    -0.553 OA 
HETATM   29  H   UNL     2     -12.846  15.525  69.434  1.00  0.00     0.000 HD 
HETATM   30  C   UNL     2      -9.485  15.907  69.016  1.00  0.00    -0.247 C  
HETATM   31  C   UNL     2      -9.363  14.871  67.866  1.00  0.00    -0.191 C  
HETATM   32  O   UNL     2      -8.352  16.743  69.194  1.00  0.00    -0.203 OA 
HETATM   33  H   UNL     2      -7.612  16.185  69.402  1.00  0.00     0.000 HD 
BRANCH  31  34
HETATM   34  C   UNL     2      -8.024  14.897  67.094  1.00  0.00    -0.227 C  
BRANCH  34  35
HETATM   35  C   UNL     2      -6.877  14.247  67.833  1.00  0.00    -0.174 C  
HETATM   36  C   UNL     2      -6.714  12.955  68.157  1.00  0.00    -0.096 C  
BRANCH  36  37
HETATM   37  C   UNL     2      -7.642  11.811  67.862  1.00  0.00    -0.121 C  
BRANCH  37  38
HETATM   38  C   UNL     2      -8.817  11.718  68.837  1.00  0.00     0.123 C  
BRANCH  38  39
HETATM   39  C   UNL     2     -10.146  11.349  68.195  1.00  0.00    -0.200 C  
HETATM   40  C   UNL     2     -11.426  11.602  68.992  1.00  0.00    -0.294 C  
HETATM   41  O   UNL     2     -12.397  10.861  68.671  1.00  0.00    -0.501 OA 
HETATM   42  O   UNL     2     -11.461  12.544  69.850  1.00  0.00    -0.207 OA 
ENDBRANCH  38  39
ENDBRANCH  37  38
ENDBRANCH  36  37
ENDBRANCH  34  35
ENDBRANCH  31  34
ENDBRANCH  24  25
ENDBRANCH  17  18
ENDBRANCH  16  17
ENDBRANCH   6  16
TORSDOF 9
ENDMDL
MODEL       85
REMARK 921   NORMALIZED FREE ENERGY PREDICTED BY IDOCK:   -6.11 KCAL/MOL
REMARK 922        TOTAL FREE ENERGY PREDICTED BY IDOCK:  -11.25 KCAL/MOL
REMARK 923 INTER-LIGAND FREE ENERGY PREDICTED BY IDOCK:   -8.65 KCAL/MOL
REMARK 924 INTRA-LIGAND FREE ENERGY PREDICTED BY IDOCK:   -2.60 KCAL/MOL
REMARK 927      BINDING AFFINITY PREDICTED BY RF-SCORE:    0.00 PKD
ROOT
HETATM    1  O   UNL     1     -10.550   5.480  69.468  1.00  0.00    -0.290 OA 
HETATM    2  C   UNL     1      -9.439   6.237  68.999  1.00  0.00    -0.128 C  
HETATM    3  H   UNL     1     -10.736   5.657  70.383  1.00  0.00     0.000 HD 
HETATM    4  C   UNL     2     -11.479  13.039  64.140  1.00  0.00    -0.452 C  
HETATM    5  C   UNL     1      -9.135   5.946  67.500  1.00  0.00    -0.106 C  
HETATM    6  C   UNL     2     -11.400  11.619  63.601  1.00  0.00    -0.485 C  
HETATM    7  C   UNL     1     -10.413   6.221  66.661  1.00  0.00    -0.186 C  
HETATM    8  N   UNL     1      -8.057   6.905  67.100  1.00  0.00    -0.116 NA 
HETATM    9  C   UNL     1      -8.536   4.577  67.222  1.00  0.00    -0.104 C  
HETATM   10  H   UNL     1      -6.807   3.716  67.532  1.00  0.00     0.000 HD 
HETATM   11  H   UNL     1     -11.645   7.733  66.337  1.00  0.00     0.000 HD 
HETATM   12  H2  UNL     1      -7.231   6.860  67.697  1.00  0.00     0.000 HD 
HETATM   13  O   UNL     1     -10.864   7.566  66.850  1.00  0.00    -0.345 OA 
HETATM   14  O   UNL     1      -7.182   4.572  67.706  1.00  0.00    -0.064 OA 
HETATM   15  H1  UNL     1      -7.858   6.715  66.118  1.00  0.00     0.000 HD 
ENDROOT
BRANCH   6  16
HETATM   16  C   UNL     2     -10.165  10.849  64.072  1.00  0.00    -0.422 C  
BRANCH  16  17
HETATM   17  C   UNL     2     -10.100  10.588  65.580  1.00  0.00    -0.333 C  
BRANCH  17  18
HETATM   18  C   UNL     2      -8.697  10.754  66.208  1.00  0.00    -0.175 C  
HETATM   19  C   UNL     2      -8.572  10.727  67.749  1.00  0.00    -0.127 C  
HETATM   20  C   UNL     2      -7.128  10.713  68.272  1.00  0.00    -0.081 C  
HETATM   21  O   UNL     2      -9.182   9.512  68.199  1.00  0.00    -0.130 OA 
HETATM   22  C   UNL     2      -9.316  11.885  68.350  1.00  0.00    -0.184 C  
HETATM   23  H   UNL     2      -9.105   9.495  69.146  1.00  0.00     0.000 HD 
HETATM   24  C   UNL     2      -8.959  13.180  68.342  1.00  0.00    -0.128 C  
BRANCH  24  25
HETATM   25  C   UNL     2      -9.764  14.313  68.939  1.00  0.00    -0.118 C  
HETATM   26  C   UNL     2      -9.147  15.725  68.813  1.00  0.00    -0.213 C  
HETATM   27  C   UNL     2     -10.297  16.613  69.222  1.00  0.00    -0.318 C  
HETATM   28  O   UNL     2      -8.809  16.123  67.488  1.00  0.00    -0.186 OA 
HETATM   29  H   UNL     2      -8.430  16.991  67.411  1.00  0.00     0.000 HD 
HETATM   30  C   UNL     2     -11.498  15.992  68.510  1.00  0.00    -0.357 C  
HETATM   31  C   UNL     2     -11.212  14.472  68.381  1.00  0.00    -0.290 C  
HETATM   32  O   UNL     2     -12.660  16.324  69.254  1.00  0.00    -0.335 OA 
HETATM   33  H   UNL     2     -13.407  15.938  68.811  1.00  0.00     0.000 HD 
BRANCH  31  34
HETATM   34  C   UNL     2     -12.237  13.547  69.074  1.00  0.00    -0.224 C  
BRANCH  34  35
HETATM   35  C   UNL     2     -11.976  13.335  70.548  1.00  0.00    -0.319 C  
HETATM   36  C   UNL     2     -12.310  12.286  71.315  1.00  0.00    -0.161 C  
BRANCH  36  37
HETATM   37  C   UNL     2     -13.035  11.038  70.899  1.00  0.00    -0.314 C  
BRANCH  37  38
HETATM   38  C   UNL     2     -13.254  10.053  72.048  1.00  0.00    -0.545 C  
BRANCH  38  39
HETATM   39  C   UNL     2     -13.512   8.618  71.613  1.00  0.00    -0.392 C  
HETATM   40  C   UNL     2     -12.384   7.600  71.780  1.00  0.00    -0.319 C  
HETATM   41  O   UNL     2     -12.446   6.618  70.989  1.00  0.00    -0.328 OA 
HETATM   42  O   UNL     2     -11.523   7.757  72.706  1.00  0.00    -0.374 OA 
ENDBRANCH  38  39
ENDBRANCH  37  38
ENDBRANCH  36  37
ENDBRANCH  34  35
ENDBRANCH  31  34
ENDBRANCH  24  25
ENDBRANCH  17  18
ENDBRANCH  16  17
ENDBRANCH   6  16
TORSDOF 9
ENDMDL
MODEL       86
REMARK 921   NORMALIZED FREE ENERGY PREDICTED BY IDOCK:   -6.09 KCAL/MOL
REMARK 922        TOTAL FREE ENERGY PREDICTED BY IDOCK:  -11.22 KCAL/MOL
REMARK 923 INTER-LIGAND FREE ENERGY PREDICTED BY IDOCK:   -8.73 KCAL/MOL
REMARK 924 INTRA-LIGAND FREE ENERGY PREDICTED BY IDOCK:   -2.50 KCAL/MOL
REMARK 927      BINDING AFFINITY PREDICTED BY RF-SCORE:    0.00 PKD
ROOT
HETATM    1  O   UNL     1     -12.303  14.946  67.086  1.00  0.00    -0.383 OA 
HETATM    2  C   UNL     1     -11.039  14.360  67.382  1.00  0.00    -0.308 C  
HETATM    3  H   UNL     1     -12.447  15.019  66.150  1.00  0.00     0.000 HD 
HETATM    4  C   UNL     2     -11.348   6.119  69.839  1.00  0.00    -0.454 C  
HETATM    5  C   UNL     1     -10.803  14.240  68.916  1.00  0.00    -0.257 C  
HETATM    6  C   UNL     2     -11.610   7.284  70.782  1.00  0.00    -0.334 C  
HETATM    7  C   UNL     1     -11.972  13.434  69.547  1.00  0.00    -0.319 C  
HETATM    8  N   UNL     1      -9.524  13.481  69.083  1.00  0.00    -0.254 NA 
HETATM    9  C   UNL     1     -10.549  15.558  69.631  1.00  0.00    -0.282 C  
HETATM   10  H   UNL     1      -9.081  16.848  69.709  1.00  0.00     0.000 HD 
HETATM   11  H   UNL     1     -12.802  11.654  69.321  1.00  0.00     0.000 HD 
HETATM   12  H2  UNL     1      -8.737  13.897  68.584  1.00  0.00     0.000 HD 
HETATM   13  O   UNL     1     -12.088  12.146  68.935  1.00  0.00    -0.267 OA 
HETATM   14  O   UNL     1      -9.240  16.024  69.263  1.00  0.00    -0.247 OA 
HETATM   15  H1  UNL     1      -9.370  13.402  70.088  1.00  0.00     0.000 HD 
ENDROOT
BRANCH   6  16
HETATM   16  C   UNL     2     -10.600   8.425  70.646  1.00  0.00    -0.234 C  
BRANCH  16  17
HETATM   17  C   UNL     2      -9.795   8.733  71.911  1.00  0.00    -0.395 C  
BRANCH  17  18
HETATM   18  C   UNL     2      -8.839   7.605  72.364  1.00  0.00    -0.176 C  
HETATM   19  C   UNL     2      -7.374   7.640  71.870  1.00  0.00    -0.070 C  
HETATM   20  C   UNL     2      -6.457   6.591  72.515  1.00  0.00    -0.059 C  
HETATM   21  O   UNL     2      -6.840   8.921  72.223  1.00  0.00    -0.272 OA 
HETATM   22  C   UNL     2      -7.327   7.501  70.374  1.00  0.00    -0.072 C  
HETATM   23  H   UNL     2      -5.941   8.943  71.919  1.00  0.00     0.000 HD 
HETATM   24  C   UNL     2      -7.548   6.392  69.648  1.00  0.00    -0.094 C  
BRANCH  24  25
HETATM   25  C   UNL     2      -7.518   6.315  68.138  1.00  0.00    -0.090 C  
HETATM   26  C   UNL     2      -7.315   4.907  67.534  1.00  0.00    -0.078 C  
HETATM   27  C   UNL     2      -7.626   5.139  66.075  1.00  0.00    -0.087 C  
HETATM   28  O   UNL     2      -8.245   3.920  67.971  1.00  0.00    -0.090 OA 
HETATM   29  H   UNL     2      -8.120   3.055  67.600  1.00  0.00     0.000 HD 
HETATM   30  C   UNL     2      -8.867   6.029  66.111  1.00  0.00    -0.148 C  
HETATM   31  C   UNL     2      -8.783   6.869  67.414  1.00  0.00    -0.119 C  
HETATM   32  O   UNL     2      -8.892   6.784  64.910  1.00  0.00    -0.348 OA 
HETATM   33  H   UNL     2      -9.664   7.337  64.933  1.00  0.00     0.000 HD 
BRANCH  31  34
HETATM   34  C   UNL     2      -8.747   8.400  67.210  1.00  0.00    -0.130 C  
BRANCH  34  35
HETATM   35  C   UNL     2     -10.108   9.023  66.998  1.00  0.00    -0.318 C  
HETATM   36  C   UNL     2     -10.479   9.933  66.084  1.00  0.00    -0.144 C  
BRANCH  36  37
HETATM   37  C   UNL     2      -9.626  10.571  65.025  1.00  0.00    -0.331 C  
BRANCH  37  38
HETATM   38  C   UNL     2     -10.117  11.958  64.605  1.00  0.00    -0.301 C  
BRANCH  38  39
HETATM   39  C   UNL     2     -11.173  11.952  63.509  1.00  0.00    -0.501 C  
HETATM   40  C   UNL     2     -12.636  12.122  63.918  1.00  0.00    -0.438 C  
HETATM   41  O   UNL     2     -13.466  11.627  63.105  1.00  0.00    -0.313 OA 
HETATM   42  O   UNL     2     -12.926  12.778  64.971  1.00  0.00    -0.811 OA 
ENDBRANCH  38  39
ENDBRANCH  37  38
ENDBRANCH  36  37
ENDBRANCH  34  35
ENDBRANCH  31  34
ENDBRANCH  24  25
ENDBRANCH  17  18
ENDBRANCH  16  17
ENDBRANCH   6  16
TORSDOF 9
ENDMDL
MODEL       87
REMARK 921   NORMALIZED FREE ENERGY PREDICTED BY IDOCK:   -6.09 KCAL/MOL
REMARK 922        TOTAL FREE ENERGY PREDICTED BY IDOCK:  -11.21 KCAL/MOL
REMARK 923 INTER-LIGAND FREE ENERGY PREDICTED BY IDOCK:  -10.16 KCAL/MOL
REMARK 924 INTRA-LIGAND FREE ENERGY PREDICTED BY IDOCK:   -1.05 KCAL/MOL
REMARK 927      BINDING AFFINITY PREDICTED BY RF-SCORE:    0.00 PKD
ROOT
HETATM    1  O   UNL     1      -7.467   8.718  73.832  1.00  0.00    -0.402 OA 
HETATM    2  C   UNL     1      -7.540   7.631  72.916  1.00  0.00    -0.098 C  
HETATM    3  H   UNL     1      -6.680   8.680  74.363  1.00  0.00     0.000 HD 
HETATM    4  C   UNL     2      -5.589   9.615  64.773  1.00  0.00    -0.068 C  
HETATM    5  C   UNL     1      -8.829   7.694  72.047  1.00  0.00    -0.117 C  
HETATM    6  C   UNL     2      -6.957   9.863  65.390  1.00  0.00    -0.113 C  
HETATM    7  C   UNL     1      -8.883   9.066  71.318  1.00  0.00    -0.189 C  
HETATM    8  N   UNL     1      -8.708   6.595  71.038  1.00  0.00    -0.137 NA 
HETATM    9  C   UNL     1     -10.119   7.376  72.788  1.00  0.00    -0.224 C  
HETATM   10  H   UNL     1     -10.943   5.768  73.536  1.00  0.00     0.000 HD 
HETATM   11  H   UNL     1      -7.742  10.100  70.078  1.00  0.00     0.000 HD 
HETATM   12  H2  UNL     1      -8.544   5.678  71.455  1.00  0.00     0.000 HD 
HETATM   13  O   UNL     1      -7.709   9.263  70.524  1.00  0.00    -0.115 OA 
HETATM   14  O   UNL     1     -10.138   5.967  73.073  1.00  0.00    -0.173 OA 
HETATM   15  H1  UNL     1      -9.553   6.637  70.468  1.00  0.00     0.000 HD 
ENDROOT
BRANCH   6  16
HETATM   16  C   UNL     2      -7.485   8.685  66.211  1.00  0.00    -0.090 C  
BRANCH  16  17
HETATM   17  C   UNL     2      -8.936   8.819  66.681  1.00  0.00    -0.168 C  
BRANCH  17  18
HETATM   18  C   UNL     2      -9.147   9.783  67.871  1.00  0.00    -0.126 C  
HETATM   19  C   UNL     2     -10.536  10.437  68.052  1.00  0.00    -0.196 C  
HETATM   20  C   UNL     2     -10.705  11.228  69.357  1.00  0.00    -0.188 C  
HETATM   21  O   UNL     2     -11.499   9.378  68.088  1.00  0.00    -0.360 OA 
HETATM   22  C   UNL     2     -10.848  11.324  66.879  1.00  0.00    -0.333 C  
HETATM   23  H   UNL     2     -12.352   9.780  68.199  1.00  0.00     0.000 HD 
HETATM   24  C   UNL     2     -10.316  12.525  66.597  1.00  0.00    -0.244 C  
BRANCH  24  25
HETATM   25  C   UNL     2     -10.645  13.364  65.383  1.00  0.00    -0.310 C  
HETATM   26  C   UNL     2     -11.658  12.751  64.388  1.00  0.00    -0.361 C  
HETATM   27  C   UNL     2     -11.975  13.925  63.494  1.00  0.00    -0.082 C  
HETATM   28  O   UNL     2     -12.902  12.355  64.956  1.00  0.00    -0.673 OA 
HETATM   29  H   UNL     2     -13.524  11.979  64.345  1.00  0.00     0.000 HD 
HETATM   30  C   UNL     2     -12.132  15.088  64.472  1.00  0.00    -0.363 C  
HETATM   31  C   UNL     2     -11.211  14.785  65.684  1.00  0.00    -0.343 C  
HETATM   32  O   UNL     2     -11.831  16.284  63.772  1.00  0.00    -1.445 OA 
HETATM   33  H   UNL     2     -11.928  17.007  64.381  1.00  0.00     0.000 HD 
BRANCH  31  34
HETATM   34  C   UNL     2     -10.110  15.835  65.954  1.00  0.00    -0.381 C  
BRANCH  34  35
HETATM   35  C   UNL     2      -9.478  15.724  67.323  1.00  0.00    -0.217 C  
HETATM   36  C   UNL     2     -10.073  15.753  68.525  1.00  0.00    -0.215 C  
BRANCH  36  37
HETATM   37  C   UNL     2     -11.538  15.902  68.821  1.00  0.00    -0.389 C  
BRANCH  37  38
HETATM   38  C   UNL     2     -11.913  15.496  70.247  1.00  0.00    -0.401 C  
BRANCH  38  39
HETATM   39  C   UNL     2     -12.408  14.065  70.390  1.00  0.00    -0.429 C  
HETATM   40  C   UNL     2     -13.148  13.683  71.672  1.00  0.00    -0.372 C  
HETATM   41  O   UNL     2     -13.089  12.455  71.963  1.00  0.00    -0.430 OA 
HETATM   42  O   UNL     2     -13.805  14.569  72.311  1.00  0.00    -0.410 OA 
ENDBRANCH  38  39
ENDBRANCH  37  38
ENDBRANCH  36  37
ENDBRANCH  34  35
ENDBRANCH  31  34
ENDBRANCH  24  25
ENDBRANCH  17  18
ENDBRANCH  16  17
ENDBRANCH   6  16
TORSDOF 9
ENDMDL
MODEL       88
REMARK 921   NORMALIZED FREE ENERGY PREDICTED BY IDOCK:   -6.08 KCAL/MOL
REMARK 922        TOTAL FREE ENERGY PREDICTED BY IDOCK:  -11.21 KCAL/MOL
REMARK 923 INTER-LIGAND FREE ENERGY PREDICTED BY IDOCK:   -9.29 KCAL/MOL
REMARK 924 INTRA-LIGAND FREE ENERGY PREDICTED BY IDOCK:   -1.92 KCAL/MOL
REMARK 927      BINDING AFFINITY PREDICTED BY RF-SCORE:    0.00 PKD
ROOT
HETATM    1  O   UNL     1      -8.752   6.194  64.712  1.00  0.00    -0.347 OA 
HETATM    2  C   UNL     1      -8.096   6.701  65.869  1.00  0.00    -0.126 C  
HETATM    3  H   UNL     1      -8.766   5.244  64.702  1.00  0.00     0.000 HD 
HETATM    4  C   UNL     2     -13.349   9.729  71.976  1.00  0.00    -0.547 C  
HETATM    5  C   UNL     1      -8.074   8.257  65.884  1.00  0.00    -0.105 C  
HETATM    6  C   UNL     2     -12.935  10.534  70.753  1.00  0.00    -0.413 C  
HETATM    7  C   UNL     1      -9.530   8.787  65.770  1.00  0.00    -0.169 C  
HETATM    8  N   UNL     1      -7.499   8.654  67.209  1.00  0.00    -0.088 NA 
HETATM    9  C   UNL     1      -7.139   8.895  64.869  1.00  0.00    -0.083 C  
HETATM   10  H   UNL     1      -5.201   9.069  64.666  1.00  0.00     0.000 HD 
HETATM   11  H   UNL     1     -11.232   8.591  66.757  1.00  0.00     0.000 HD 
HETATM   12  H2  UNL     1      -6.589   8.233  67.399  1.00  0.00     0.000 HD 
HETATM   13  O   UNL     1     -10.342   8.267  66.827  1.00  0.00    -0.310 OA 
HETATM   14  O   UNL     1      -5.786   8.671  65.300  1.00  0.00    -0.046 OA 
HETATM   15  H1  UNL     1      -7.485   9.673  67.219  1.00  0.00     0.000 HD 
ENDROOT
BRANCH   6  16
HETATM   16  C   UNL     2     -11.441  10.446  70.437  1.00  0.00    -0.420 C  
BRANCH  16  17
HETATM   17  C   UNL     2     -10.921  11.507  69.461  1.00  0.00    -0.186 C  
BRANCH  17  18
HETATM   18  C   UNL     2      -9.577  11.159  68.780  1.00  0.00    -0.180 C  
HETATM   19  C   UNL     2      -8.717  12.314  68.216  1.00  0.00    -0.178 C  
HETATM   20  C   UNL     2      -7.324  11.893  67.728  1.00  0.00    -0.109 C  
HETATM   21  O   UNL     2      -8.512  13.247  69.283  1.00  0.00    -0.111 OA 
HETATM   22  C   UNL     2      -9.452  13.014  67.107  1.00  0.00    -0.230 C  
HETATM   23  H   UNL     2      -7.984  13.956  68.937  1.00  0.00     0.000 HD 
HETATM   24  C   UNL     2      -9.671  12.564  65.860  1.00  0.00    -0.226 C  
BRANCH  24  25
HETATM   25  C   UNL     2     -10.445  13.300  64.790  1.00  0.00    -0.402 C  
HETATM   26  C   UNL     2     -11.571  12.499  64.094  1.00  0.00    -0.389 C  
HETATM   27  C   UNL     2     -12.304  13.577  63.333  1.00  0.00    -0.264 C  
HETATM   28  O   UNL     2     -12.536  11.925  64.969  1.00  0.00    -0.289 OA 
HETATM   29  H   UNL     2     -13.227  11.433  64.542  1.00  0.00     0.000 HD 
HETATM   30  C   UNL     2     -12.384  14.729  64.333  1.00  0.00    -0.368 C  
HETATM   31  C   UNL     2     -11.137  14.619  65.250  1.00  0.00    -0.363 C  
HETATM   32  O   UNL     2     -12.482  15.936  63.593  1.00  0.00    -0.949 OA 
HETATM   33  H   UNL     2     -12.532  16.652  64.215  1.00  0.00     0.000 HD 
BRANCH  31  34
HETATM   34  C   UNL     2     -10.193  15.842  65.229  1.00  0.00    -0.323 C  
BRANCH  34  35
HETATM   35  C   UNL     2     -10.171  16.623  66.522  1.00  0.00    -0.314 C  
HETATM   36  C   UNL     2      -9.143  16.826  67.361  1.00  0.00    -0.221 C  
BRANCH  36  37
HETATM   37  C   UNL     2      -7.734  16.323  67.225  1.00  0.00    -0.210 C  
BRANCH  37  38
HETATM   38  C   UNL     2      -6.768  17.371  66.668  1.00  0.00    -0.264 C  
BRANCH  38  39
HETATM   39  C   UNL     2      -7.158  18.812  66.961  1.00  0.00    -0.213 C  
HETATM   40  C   UNL     2      -6.688  19.896  65.991  1.00  0.00    -0.242 C  
HETATM   41  O   UNL     2      -6.590  21.047  66.502  1.00  0.00    -0.278 OA 
HETATM   42  O   UNL     2      -6.494  19.607  64.765  1.00  0.00    -0.325 OA 
ENDBRANCH  38  39
ENDBRANCH  37  38
ENDBRANCH  36  37
ENDBRANCH  34  35
ENDBRANCH  31  34
ENDBRANCH  24  25
ENDBRANCH  17  18
ENDBRANCH  16  17
ENDBRANCH   6  16
TORSDOF 9
ENDMDL
MODEL       89
REMARK 921   NORMALIZED FREE ENERGY PREDICTED BY IDOCK:   -6.07 KCAL/MOL
REMARK 922        TOTAL FREE ENERGY PREDICTED BY IDOCK:  -11.19 KCAL/MOL
REMARK 923 INTER-LIGAND FREE ENERGY PREDICTED BY IDOCK:   -8.21 KCAL/MOL
REMARK 924 INTRA-LIGAND FREE ENERGY PREDICTED BY IDOCK:   -2.98 KCAL/MOL
REMARK 927      BINDING AFFINITY PREDICTED BY RF-SCORE:    0.00 PKD
ROOT
HETATM    1  O   UNL     1     -12.414  14.462  63.909  1.00  0.00    -0.911 OA 
HETATM    2  C   UNL     1     -11.203  14.535  64.655  1.00  0.00    -0.353 C  
HETATM    3  H   UNL     1     -12.350  14.937  63.088  1.00  0.00     0.000 HD 
HETATM    4  C   UNL     2      -6.360   7.427  64.405  1.00  0.00    -0.041 C  
HETATM    5  C   UNL     1     -11.307  13.758  66.000  1.00  0.00    -0.314 C  
HETATM    6  C   UNL     2      -7.551   7.595  65.336  1.00  0.00    -0.094 C  
HETATM    7  C   UNL     1     -11.714  12.287  65.705  1.00  0.00    -0.385 C  
HETATM    8  N   UNL     1      -9.939  13.787  66.605  1.00  0.00    -0.272 NA 
HETATM    9  C   UNL     1     -12.192  14.410  67.050  1.00  0.00    -0.239 C  
HETATM   10  H   UNL     1     -12.068  15.985  68.202  1.00  0.00     0.000 HD 
HETATM   11  H   UNL     1     -11.025  10.772  64.638  1.00  0.00     0.000 HD 
HETATM   12  H2  UNL     1      -9.561  14.729  66.710  1.00  0.00     0.000 HD 
HETATM   13  O   UNL     1     -10.777  11.670  64.818  1.00  0.00    -0.285 OA 
HETATM   14  O   UNL     1     -11.516  15.578  67.546  1.00  0.00    -0.297 OA 
HETATM   15  H1  UNL     1     -10.006  13.277  67.486  1.00  0.00     0.000 HD 
ENDROOT
BRANCH   6  16
HETATM   16  C   UNL     2      -7.596   8.954  66.038  1.00  0.00    -0.094 C  
BRANCH  16  17
HETATM   17  C   UNL     2      -8.035   8.913  67.504  1.00  0.00    -0.101 C  
BRANCH  17  18
HETATM   18  C   UNL     2      -9.420   9.543  67.785  1.00  0.00    -0.151 C  
HETATM   19  C   UNL     2      -9.573  10.463  69.018  1.00  0.00    -0.204 C  
HETATM   20  C   UNL     2     -10.925  11.186  69.111  1.00  0.00    -0.295 C  
HETATM   21  O   UNL     2      -8.572  11.481  68.911  1.00  0.00    -0.332 OA 
HETATM   22  C   UNL     2      -9.328   9.685  70.280  1.00  0.00    -0.292 C  
HETATM   23  H   UNL     2      -8.666  12.047  69.668  1.00  0.00     0.000 HD 
HETATM   24  C   UNL     2     -10.138   8.779  70.853  1.00  0.00    -0.276 C  
BRANCH  24  25
HETATM   25  C   UNL     2      -9.827   8.001  72.112  1.00  0.00    -0.286 C  
HETATM   26  C   UNL     2     -11.045   7.548  72.949  1.00  0.00    -0.375 C  
HETATM   27  C   UNL     2     -10.420   6.582  73.925  1.00  0.00    -0.329 C  
HETATM   28  O   UNL     2     -12.023   6.795  72.238  1.00  0.00    -0.396 OA 
HETATM   29  H   UNL     2     -12.772   6.516  72.752  1.00  0.00     0.000 HD 
HETATM   30  C   UNL     2      -9.460   5.769  73.057  1.00  0.00    -0.150 C  
HETATM   31  C   UNL     2      -8.994   6.699  71.906  1.00  0.00    -0.136 C  
HETATM   32  O   UNL     2      -8.423   5.286  73.897  1.00  0.00    -0.113 OA 
HETATM   33  H   UNL     2      -7.826   4.781  73.358  1.00  0.00     0.000 HD 
BRANCH  31  34
HETATM   34  C   UNL     2      -7.471   6.954  71.839  1.00  0.00    -0.088 C  
BRANCH  34  35
HETATM   35  C   UNL     2      -6.903   6.912  70.439  1.00  0.00    -0.058 C  
HETATM   36  C   UNL     2      -6.952   5.912  69.545  1.00  0.00    -0.063 C  
BRANCH  36  37
HETATM   37  C   UNL     2      -7.595   4.565  69.709  1.00  0.00    -0.054 C  
BRANCH  37  38
HETATM   38  C   UNL     2      -8.702   4.293  68.689  1.00  0.00    -0.122 C  
BRANCH  38  39
HETATM   39  C   UNL     2      -9.241   5.534  67.993  1.00  0.00    -0.114 C  
HETATM   40  C   UNL     2     -10.662   5.989  68.330  1.00  0.00    -0.280 C  
HETATM   41  O   UNL     2     -11.224   6.661  67.420  1.00  0.00    -0.344 OA 
HETATM   42  O   UNL     2     -11.151   5.734  69.479  1.00  0.00    -0.366 OA 
ENDBRANCH  38  39
ENDBRANCH  37  38
ENDBRANCH  36  37
ENDBRANCH  34  35
ENDBRANCH  31  34
ENDBRANCH  24  25
ENDBRANCH  17  18
ENDBRANCH  16  17
ENDBRANCH   6  16
TORSDOF 9
ENDMDL
MODEL       90
REMARK 921   NORMALIZED FREE ENERGY PREDICTED BY IDOCK:   -6.05 KCAL/MOL
REMARK 922        TOTAL FREE ENERGY PREDICTED BY IDOCK:  -11.15 KCAL/MOL
REMARK 923 INTER-LIGAND FREE ENERGY PREDICTED BY IDOCK:   -9.18 KCAL/MOL
REMARK 924 INTRA-LIGAND FREE ENERGY PREDICTED BY IDOCK:   -1.98 KCAL/MOL
REMARK 927      BINDING AFFINITY PREDICTED BY RF-SCORE:    0.00 PKD
ROOT
HETATM    1  O   UNL     1      -5.795  12.951  71.406  1.00  0.00    -0.530 OA 
HETATM    2  C   UNL     1      -5.226  12.974  70.101  1.00  0.00    -0.100 C  
HETATM    3  H   UNL     1      -5.126  12.946  72.082  1.00  0.00     0.000 HD 
HETATM    4  C   UNL     2      -5.480  20.625  66.171  1.00  0.00    -0.222 C  
HETATM    5  C   UNL     1      -6.321  12.982  68.995  1.00  0.00    -0.099 C  
HETATM    6  C   UNL     2      -6.657  19.662  66.204  1.00  0.00    -0.223 C  
HETATM    7  C   UNL     1      -7.271  14.189  69.230  1.00  0.00    -0.049 C  
HETATM    8  N   UNL     1      -5.600  13.157  67.695  1.00  0.00    -0.252 NA 
HETATM    9  C   UNL     1      -7.073  11.671  68.828  1.00  0.00    -0.106 C  
HETATM   10  H   UNL     1      -6.654   9.897  68.118  1.00  0.00     0.000 HD 
HETATM   11  H   UNL     1      -7.116  16.154  69.387  1.00  0.00     0.000 HD 
HETATM   12  H2  UNL     1      -4.871  12.461  67.538  1.00  0.00     0.000 HD 
HETATM   13  O   UNL     1      -6.535  15.416  69.244  1.00  0.00    -0.121 OA 
HETATM   14  O   UNL     1      -6.184  10.717  68.223  1.00  0.00    -0.050 OA 
HETATM   15  H1  UNL     1      -6.317  13.163  66.970  1.00  0.00     0.000 HD 
ENDROOT
BRANCH   6  16
HETATM   16  C   UNL     2      -6.273  18.210  65.911  1.00  0.00    -0.280 C  
BRANCH  16  17
HETATM   17  C   UNL     2      -7.398  17.190  66.103  1.00  0.00    -0.281 C  
BRANCH  17  18
HETATM   18  C   UNL     2      -8.795  17.803  66.355  1.00  0.00    -0.256 C  
HETATM   19  C   UNL     2      -9.621  17.285  67.554  1.00  0.00    -0.259 C  
HETATM   20  C   UNL     2     -10.907  18.077  67.834  1.00  0.00    -0.227 C  
HETATM   21  O   UNL     2      -8.800  17.416  68.720  1.00  0.00    -0.274 OA 
HETATM   22  C   UNL     2      -9.953  15.831  67.367  1.00  0.00    -0.237 C  
HETATM   23  H   UNL     2      -9.307  17.097  69.457  1.00  0.00     0.000 HD 
HETATM   24  C   UNL     2     -10.848  15.300  66.517  1.00  0.00    -0.311 C  
BRANCH  24  25
HETATM   25  C   UNL     2     -11.122  13.822  66.347  1.00  0.00    -0.309 C  
HETATM   26  C   UNL     2     -11.179  13.305  64.891  1.00  0.00    -0.318 C  
HETATM   27  C   UNL     2     -11.166  11.808  65.084  1.00  0.00    -0.311 C  
HETATM   28  O   UNL     2     -10.033  13.598  64.098  1.00  0.00    -0.746 OA 
HETATM   29  H   UNL     2     -10.067  13.281  63.204  1.00  0.00     0.000 HD 
HETATM   30  C   UNL     2     -10.109  11.597  66.167  1.00  0.00    -0.224 C  
HETATM   31  C   UNL     2     -10.114  12.868  67.057  1.00  0.00    -0.245 C  
HETATM   32  O   UNL     2     -10.420  10.389  66.843  1.00  0.00    -0.233 OA 
HETATM   33  H   UNL     2      -9.763  10.257  67.517  1.00  0.00     0.000 HD 
BRANCH  31  34
HETATM   34  C   UNL     2     -10.447  12.629  68.547  1.00  0.00    -0.249 C  
BRANCH  34  35
HETATM   35  C   UNL     2     -11.876  12.204  68.796  1.00  0.00    -0.356 C  
HETATM   36  C   UNL     2     -12.346  11.352  69.720  1.00  0.00    -0.250 C  
BRANCH  36  37
HETATM   37  C   UNL     2     -11.564  10.597  70.756  1.00  0.00    -0.388 C  
BRANCH  37  38
HETATM   38  C   UNL     2     -11.124   9.208  70.290  1.00  0.00    -0.272 C  
BRANCH  38  39
HETATM   39  C   UNL     2     -11.082   8.155  71.387  1.00  0.00    -0.291 C  
HETATM   40  C   UNL     2     -11.637   6.765  71.073  1.00  0.00    -0.339 C  
HETATM   41  O   UNL     2     -12.036   6.122  72.084  1.00  0.00    -0.331 OA 
HETATM   42  O   UNL     2     -11.608   6.329  69.876  1.00  0.00    -0.435 OA 
ENDBRANCH  38  39
ENDBRANCH  37  38
ENDBRANCH  36  37
ENDBRANCH  34  35
ENDBRANCH  31  34
ENDBRANCH  24  25
ENDBRANCH  17  18
ENDBRANCH  16  17
ENDBRANCH   6  16
TORSDOF 9
ENDMDL
MODEL       91
REMARK 921   NORMALIZED FREE ENERGY PREDICTED BY IDOCK:   -6.05 KCAL/MOL
REMARK 922        TOTAL FREE ENERGY PREDICTED BY IDOCK:  -11.15 KCAL/MOL
REMARK 923 INTER-LIGAND FREE ENERGY PREDICTED BY IDOCK:   -8.46 KCAL/MOL
REMARK 924 INTRA-LIGAND FREE ENERGY PREDICTED BY IDOCK:   -2.69 KCAL/MOL
REMARK 927      BINDING AFFINITY PREDICTED BY RF-SCORE:    0.00 PKD
ROOT
HETATM    1  O   UNL     1     -11.324   6.438  71.665  1.00  0.00    -0.264 OA 
HETATM    2  C   UNL     1     -11.801   7.303  70.639  1.00  0.00    -0.252 C  
HETATM    3  H   UNL     1     -11.376   5.525  71.409  1.00  0.00     0.000 HD 
HETATM    4  C   UNL     2      -5.663  11.341  66.159  1.00  0.00    -0.085 C  
HETATM    5  C   UNL     1     -11.715   8.799  71.059  1.00  0.00    -0.282 C  
HETATM    6  C   UNL     2      -6.165  11.821  67.512  1.00  0.00    -0.092 C  
HETATM    7  C   UNL     1     -10.250   9.131  71.456  1.00  0.00    -0.333 C  
HETATM    8  N   UNL     1     -12.099   9.594  69.850  1.00  0.00    -0.413 NA 
HETATM    9  C   UNL     1     -12.719   9.226  72.118  1.00  0.00    -0.390 C  
HETATM   10  H   UNL     1     -14.650   9.528  72.176  1.00  0.00     0.000 HD 
HETATM   11  H   UNL     1      -8.460   9.044  70.621  1.00  0.00     0.000 HD 
HETATM   12  H2  UNL     1     -13.007   9.333  69.464  1.00  0.00     0.000 HD 
HETATM   13  O   UNL     1      -9.355   8.841  70.378  1.00  0.00    -0.161 OA 
HETATM   14  O   UNL     1     -14.023   9.262  71.514  1.00  0.00    -0.321 OA 
HETATM   15  H1  UNL     1     -12.043  10.575  70.125  1.00  0.00     0.000 HD 
ENDROOT
BRANCH   6  16
HETATM   16  C   UNL     2      -7.688  11.798  67.647  1.00  0.00    -0.137 C  
BRANCH  16  17
HETATM   17  C   UNL     2      -8.447  12.569  66.564  1.00  0.00     0.081 C  
BRANCH  17  18
HETATM   18  C   UNL     2      -9.907  12.930  66.925  1.00  0.00    -0.235 C  
HETATM   19  C   UNL     2     -10.772  13.648  65.864  1.00  0.00    -0.281 C  
HETATM   20  C   UNL     2     -12.253  13.798  66.242  1.00  0.00    -0.489 C  
HETATM   21  O   UNL     2     -10.733  12.848  64.677  1.00  0.00    -0.314 OA 
HETATM   22  C   UNL     2     -10.192  14.997  65.548  1.00  0.00    -0.406 C  
HETATM   23  H   UNL     2     -11.264  13.289  64.025  1.00  0.00     0.000 HD 
HETATM   24  C   UNL     2     -10.217  16.099  66.317  1.00  0.00    -0.333 C  
BRANCH  24  25
HETATM   25  C   UNL     2      -9.588  17.428  65.961  1.00  0.00    -0.141 C  
HETATM   26  C   UNL     2     -10.492  18.672  66.121  1.00  0.00    -0.430 C  
HETATM   27  C   UNL     2      -9.504  19.804  65.981  1.00  0.00    -0.393 C  
HETATM   28  O   UNL     2     -11.079  18.833  67.409  1.00  0.00    -0.332 OA 
HETATM   29  H   UNL     2     -11.634  19.597  67.507  1.00  0.00     0.000 HD 
HETATM   30  C   UNL     2      -8.308  19.338  66.810  1.00  0.00    -0.296 C  
HETATM   31  C   UNL     2      -8.292  17.788  66.750  1.00  0.00    -0.271 C  
HETATM   32  O   UNL     2      -7.150  19.973  66.290  1.00  0.00    -0.237 OA 
HETATM   33  H   UNL     2      -6.406  19.683  66.805  1.00  0.00     0.000 HD 
BRANCH  31  34
HETATM   34  C   UNL     2      -7.015  17.165  66.141  1.00  0.00    -0.185 C  
BRANCH  34  35
HETATM   35  C   UNL     2      -5.916  16.911  67.147  1.00  0.00    -0.208 C  
HETATM   36  C   UNL     2      -5.915  16.069  68.192  1.00  0.00    -0.124 C  
BRANCH  36  37
HETATM   37  C   UNL     2      -7.019  15.151  68.632  1.00  0.00    -0.113 C  
BRANCH  37  38
HETATM   38  C   UNL     2      -8.025  15.819  69.571  1.00  0.00    -0.145 C  
BRANCH  38  39
HETATM   39  C   UNL     2      -9.430  15.239  69.513  1.00  0.00    -0.204 C  
HETATM   40  C   UNL     2     -10.601  16.144  69.897  1.00  0.00    -0.302 C  
HETATM   41  O   UNL     2     -11.623  15.529  70.311  1.00  0.00    -0.278 OA 
HETATM   42  O   UNL     2     -10.507  17.404  69.727  1.00  0.00    -0.096 OA 
ENDBRANCH  38  39
ENDBRANCH  37  38
ENDBRANCH  36  37
ENDBRANCH  34  35
ENDBRANCH  31  34
ENDBRANCH  24  25
ENDBRANCH  17  18
ENDBRANCH  16  17
ENDBRANCH   6  16
TORSDOF 9
ENDMDL
MODEL       92
REMARK 921   NORMALIZED FREE ENERGY PREDICTED BY IDOCK:   -6.05 KCAL/MOL
REMARK 922        TOTAL FREE ENERGY PREDICTED BY IDOCK:  -11.15 KCAL/MOL
REMARK 923 INTER-LIGAND FREE ENERGY PREDICTED BY IDOCK:   -8.98 KCAL/MOL
REMARK 924 INTRA-LIGAND FREE ENERGY PREDICTED BY IDOCK:   -2.17 KCAL/MOL
REMARK 927      BINDING AFFINITY PREDICTED BY RF-SCORE:    0.00 PKD
ROOT
HETATM    1  O   UNL     1     -10.139  19.035  69.296  1.00  0.00    -0.496 OA 
HETATM    2  C   UNL     1     -10.484  17.926  68.471  1.00  0.00    -0.305 C  
HETATM    3  H   UNL     1     -10.825  19.234  69.923  1.00  0.00     0.000 HD 
HETATM    4  C   UNL     2      -6.581  10.536  70.522  1.00  0.00    -0.038 C  
HETATM    5  C   UNL     1      -9.360  17.600  67.444  1.00  0.00    -0.247 C  
HETATM    6  C   UNL     2      -5.928  11.622  69.680  1.00  0.00    -0.106 C  
HETATM    7  C   UNL     1      -8.029  17.358  68.208  1.00  0.00    -0.253 C  
HETATM    8  N   UNL     1      -9.779  16.339  66.754  1.00  0.00    -0.232 NA 
HETATM    9  C   UNL     1      -9.211  18.609  66.316  1.00  0.00    -0.234 C  
HETATM   10  H   UNL     1     -10.244  19.096  64.729  1.00  0.00     0.000 HD 
HETATM   11  H   UNL     1      -7.367  16.158  69.633  1.00  0.00     0.000 HD 
HETATM   12  H2  UNL     1     -10.708  16.395  66.335  1.00  0.00     0.000 HD 
HETATM   13  O   UNL     1      -8.180  16.306  69.167  1.00  0.00    -0.241 OA 
HETATM   14  O   UNL     1     -10.337  18.466  65.434  1.00  0.00    -0.493 OA 
HETATM   15  H1  UNL     1      -9.043  16.125  66.082  1.00  0.00     0.000 HD 
ENDROOT
BRANCH   6  16
HETATM   16  C   UNL     2      -6.845  12.197  68.599  1.00  0.00    -0.089 C  
BRANCH  16  17
HETATM   17  C   UNL     2      -8.123  11.394  68.337  1.00  0.00    -0.145 C  
BRANCH  17  18
HETATM   18  C   UNL     2      -8.529  11.288  66.849  1.00  0.00    -0.152 C  
HETATM   19  C   UNL     2      -9.991  10.915  66.510  1.00  0.00    -0.211 C  
HETATM   20  C   UNL     2     -10.346  11.015  65.020  1.00  0.00    -0.360 C  
HETATM   21  O   UNL     2     -10.834  11.850  67.194  1.00  0.00    -0.232 OA 
HETATM   22  C   UNL     2     -10.305   9.535  67.014  1.00  0.00    -0.319 C  
HETATM   23  H   UNL     2     -11.732  11.621  66.986  1.00  0.00     0.000 HD 
HETATM   24  C   UNL     2      -9.886   8.364  66.505  1.00  0.00    -0.338 C  
BRANCH  24  25
HETATM   25  C   UNL     2     -10.208   6.999  67.072  1.00  0.00    -0.330 C  
HETATM   26  C   UNL     2      -9.790   5.788  66.207  1.00  0.00    -0.098 C  
HETATM   27  C   UNL     2      -9.975   4.635  67.162  1.00  0.00    -0.215 C  
HETATM   28  O   UNL     2      -8.416   5.756  65.832  1.00  0.00    -0.127 OA 
HETATM   29  H   UNL     2      -8.158   5.012  65.300  1.00  0.00     0.000 HD 
HETATM   30  C   UNL     2      -9.394   5.160  68.474  1.00  0.00    -0.125 C  
HETATM   31  C   UNL     2      -9.603   6.698  68.477  1.00  0.00    -0.125 C  
HETATM   32  O   UNL     2     -10.028   4.464  69.536  1.00  0.00    -0.211 OA 
HETATM   33  H   UNL     2      -9.666   4.791  70.351  1.00  0.00     0.000 HD 
BRANCH  31  34
HETATM   34  C   UNL     2     -10.462   7.244  69.640  1.00  0.00    -0.239 C  
BRANCH  34  35
HETATM   35  C   UNL     2      -9.835   8.407  70.373  1.00  0.00    -0.194 C  
HETATM   36  C   UNL     2     -10.257   9.018  71.491  1.00  0.00    -0.414 C  
BRANCH  36  37
HETATM   37  C   UNL     2     -11.474   8.696  72.310  1.00  0.00    -0.423 C  
BRANCH  37  38
HETATM   38  C   UNL     2     -12.773   9.224  71.699  1.00  0.00    -0.442 C  
BRANCH  38  39
HETATM   39  C   UNL     2     -12.882  10.741  71.653  1.00  0.00    -0.562 C  
HETATM   40  C   UNL     2     -12.503  11.451  70.353  1.00  0.00    -0.261 C  
HETATM   41  O   UNL     2     -12.131  12.649  70.503  1.00  0.00    -0.363 OA 
HETATM   42  O   UNL     2     -12.637  10.847  69.240  1.00  0.00    -0.356 OA 
ENDBRANCH  38  39
ENDBRANCH  37  38
ENDBRANCH  36  37
ENDBRANCH  34  35
ENDBRANCH  31  34
ENDBRANCH  24  25
ENDBRANCH  17  18
ENDBRANCH  16  17
ENDBRANCH   6  16
TORSDOF 9
ENDMDL
MODEL       93
REMARK 921   NORMALIZED FREE ENERGY PREDICTED BY IDOCK:   -6.04 KCAL/MOL
REMARK 922        TOTAL FREE ENERGY PREDICTED BY IDOCK:  -11.14 KCAL/MOL
REMARK 923 INTER-LIGAND FREE ENERGY PREDICTED BY IDOCK:   -8.81 KCAL/MOL
REMARK 924 INTRA-LIGAND FREE ENERGY PREDICTED BY IDOCK:   -2.33 KCAL/MOL
REMARK 927      BINDING AFFINITY PREDICTED BY RF-SCORE:    0.00 PKD
ROOT
HETATM    1  O   UNL     1     -12.008   6.664  71.753  1.00  0.00    -0.318 OA 
HETATM    2  C   UNL     1     -12.365   7.688  70.830  1.00  0.00    -0.130 C  
HETATM    3  H   UNL     1     -12.310   5.811  71.467  1.00  0.00     0.000 HD 
HETATM    4  C   UNL     2      -5.942  10.443  65.810  1.00  0.00    -0.117 C  
HETATM    5  C   UNL     1     -11.869   9.087  71.299  1.00  0.00    -0.312 C  
HETATM    6  C   UNL     2      -6.161  10.933  67.233  1.00  0.00    -0.062 C  
HETATM    7  C   UNL     1     -10.333   9.030  71.529  1.00  0.00    -0.342 C  
HETATM    8  N   UNL     1     -12.173  10.034  70.181  1.00  0.00    -0.488 NA 
HETATM    9  C   UNL     1     -12.616   9.666  72.490  1.00  0.00     0.028 C  
HETATM   10  H   UNL     1     -14.396  10.418  72.795  1.00  0.00     0.000 HD 
HETATM   11  H   UNL     1      -8.720   8.575  70.479  1.00  0.00     0.000 HD 
HETATM   12  H2  UNL     1     -13.153  10.026  69.897  1.00  0.00     0.000 HD 
HETATM   13  O   UNL     1      -9.658   8.609  70.339  1.00  0.00    -0.163 OA 
HETATM   14  O   UNL     1     -13.928  10.056  72.051  1.00  0.00    -0.142 OA 
HETATM   15  H1  UNL     1     -11.848  10.951  70.488  1.00  0.00     0.000 HD 
ENDROOT
BRANCH   6  16
HETATM   16  C   UNL     2      -7.619  11.267  67.552  1.00  0.00    -0.110 C  
BRANCH  16  17
HETATM   17  C   UNL     2      -7.837  12.594  68.284  1.00  0.00    -0.144 C  
BRANCH  17  18
HETATM   18  C   UNL     2      -6.593  13.511  68.348  1.00  0.00    -0.095 C  
HETATM   19  C   UNL     2      -6.539  14.602  69.443  1.00  0.00    -0.138 C  
HETATM   20  C   UNL     2      -5.194  15.336  69.546  1.00  0.00    -0.093 C  
HETATM   21  O   UNL     2      -6.745  13.948  70.700  1.00  0.00    -0.395 OA 
HETATM   22  C   UNL     2      -7.645  15.598  69.238  1.00  0.00    -0.222 C  
HETATM   23  H   UNL     2      -6.712  14.618  71.372  1.00  0.00     0.000 HD 
HETATM   24  C   UNL     2      -7.725  16.548  68.291  1.00  0.00    -0.176 C  
BRANCH  24  25
HETATM   25  C   UNL     2      -8.879  17.508  68.111  1.00  0.00    -0.263 C  
HETATM   26  C   UNL     2      -8.737  18.881  68.808  1.00  0.00    -0.296 C  
HETATM   27  C   UNL     2      -9.873  19.667  68.200  1.00  0.00    -0.524 C  
HETATM   28  O   UNL     2      -7.554  19.605  68.484  1.00  0.00    -0.330 OA 
HETATM   29  H   UNL     2      -7.466  20.449  68.913  1.00  0.00     0.000 HD 
HETATM   30  C   UNL     2      -9.808  19.299  66.718  1.00  0.00    -0.352 C  
HETATM   31  C   UNL     2      -9.234  17.860  66.634  1.00  0.00    -0.288 C  
HETATM   32  O   UNL     2     -11.109  19.461  66.176  1.00  0.00    -0.214 OA 
HETATM   33  H   UNL     2     -11.068  19.232  65.255  1.00  0.00     0.000 HD 
BRANCH  31  34
HETATM   34  C   UNL     2     -10.161  16.819  65.966  1.00  0.00    -0.350 C  
BRANCH  34  35
HETATM   35  C   UNL     2      -9.570  15.430  65.890  1.00  0.00    -0.386 C  
HETATM   36  C   UNL     2     -10.150  14.256  66.183  1.00  0.00    -0.325 C  
BRANCH  36  37
HETATM   37  C   UNL     2     -11.554  14.020  66.663  1.00  0.00    -0.400 C  
BRANCH  37  38
HETATM   38  C   UNL     2     -11.632  13.638  68.142  1.00  0.00    -0.367 C  
BRANCH  38  39
HETATM   39  C   UNL     2     -10.908  14.590  69.082  1.00  0.00    -0.278 C  
HETATM   40  C   UNL     2     -11.751  15.475  70.001  1.00  0.00    -0.346 C  
HETATM   41  O   UNL     2     -11.182  16.542  70.364  1.00  0.00    -0.336 OA 
HETATM   42  O   UNL     2     -12.900  15.076  70.383  1.00  0.00    -0.341 OA 
ENDBRANCH  38  39
ENDBRANCH  37  38
ENDBRANCH  36  37
ENDBRANCH  34  35
ENDBRANCH  31  34
ENDBRANCH  24  25
ENDBRANCH  17  18
ENDBRANCH  16  17
ENDBRANCH   6  16
TORSDOF 9
ENDMDL
MODEL       94
REMARK 921   NORMALIZED FREE ENERGY PREDICTED BY IDOCK:   -5.99 KCAL/MOL
REMARK 922        TOTAL FREE ENERGY PREDICTED BY IDOCK:  -11.06 KCAL/MOL
REMARK 923 INTER-LIGAND FREE ENERGY PREDICTED BY IDOCK:   -9.56 KCAL/MOL
REMARK 924 INTRA-LIGAND FREE ENERGY PREDICTED BY IDOCK:   -1.50 KCAL/MOL
REMARK 927      BINDING AFFINITY PREDICTED BY RF-SCORE:    0.00 PKD
ROOT
HETATM    1  O   UNL     1     -14.390   8.722  73.297  1.00  0.00    -1.125 OA 
HETATM    2  C   UNL     1     -14.028   8.606  71.925  1.00  0.00    -0.442 C  
HETATM    3  H   UNL     1     -15.301   8.497  73.442  1.00  0.00     0.000 HD 
HETATM    4  C   UNL     2      -9.466   1.579  69.960  1.00  0.00    -0.145 C  
HETATM    5  C   UNL     1     -12.535   8.975  71.688  1.00  0.00    -0.351 C  
HETATM    6  C   UNL     2      -8.850   2.839  70.551  1.00  0.00    -0.148 C  
HETATM    7  C   UNL     1     -11.642   8.083  72.596  1.00  0.00    -0.387 C  
HETATM    8  N   UNL     1     -12.252   8.668  70.251  1.00  0.00    -0.243 NA 
HETATM    9  C   UNL     1     -12.211  10.454  71.823  1.00  0.00    -0.126 C  
HETATM   10  H   UNL     1     -12.566  12.066  70.774  1.00  0.00     0.000 HD 
HETATM   11  H   UNL     1     -11.338   6.152  72.892  1.00  0.00     0.000 HD 
HETATM   12  H2  UNL     1     -12.891   9.131  69.604  1.00  0.00     0.000 HD 
HETATM   13  O   UNL     1     -11.884   6.697  72.338  1.00  0.00    -0.266 OA 
HETATM   14  O   UNL     1     -12.769  11.142  70.690  1.00  0.00    -0.313 OA 
HETATM   15  H1  UNL     1     -11.273   8.910  70.096  1.00  0.00     0.000 HD 
ENDROOT
BRANCH   6  16
HETATM   16  C   UNL     2      -9.345   4.130  69.898  1.00  0.00    -0.235 C  
BRANCH  16  17
HETATM   17  C   UNL     2      -8.678   4.480  68.564  1.00  0.00    -0.117 C  
BRANCH  17  18
HETATM   18  C   UNL     2      -9.585   4.317  67.322  1.00  0.00    -0.224 C  
HETATM   19  C   UNL     2      -8.946   4.459  65.921  1.00  0.00    -0.124 C  
HETATM   20  C   UNL     2      -9.879   4.100  64.755  1.00  0.00    -0.195 C  
HETATM   21  O   UNL     2      -7.848   3.542  65.863  1.00  0.00    -0.087 OA 
HETATM   22  C   UNL     2      -8.414   5.851  65.732  1.00  0.00    -0.148 C  
HETATM   23  H   UNL     2      -7.456   3.629  65.003  1.00  0.00     0.000 HD 
HETATM   24  C   UNL     2      -9.120   6.977  65.528  1.00  0.00     0.185 C  
BRANCH  24  25
HETATM   25  C   UNL     2      -8.532   8.361  65.374  1.00  0.00    -0.193 C  
HETATM   26  C   UNL     2      -7.793   8.642  64.045  1.00  0.00    -0.146 C  
HETATM   27  C   UNL     2      -7.606  10.139  64.095  1.00  0.00    -0.125 C  
HETATM   28  O   UNL     2      -8.550   8.390  62.865  1.00  0.00    -0.398 OA 
HETATM   29  H   UNL     2      -8.096   8.563  62.049  1.00  0.00     0.000 HD 
HETATM   30  C   UNL     2      -8.953  10.651  64.604  1.00  0.00    -0.197 C  
HETATM   31  C   UNL     2      -9.546   9.538  65.508  1.00  0.00    -0.349 C  
HETATM   32  O   UNL     2      -8.725  11.894  65.250  1.00  0.00    -0.308 OA 
HETATM   33  H   UNL     2      -9.563  12.212  65.566  1.00  0.00     0.000 HD 
BRANCH  31  34
HETATM   34  C   UNL     2      -9.810   9.951  66.974  1.00  0.00    -0.241 C  
BRANCH  34  35
HETATM   35  C   UNL     2     -11.235  10.377  67.245  1.00  0.00    -0.153 C  
HETATM   36  C   UNL     2     -11.710  11.610  67.479  1.00  0.00    -0.288 C  
BRANCH  36  37
HETATM   37  C   UNL     2     -10.938  12.897  67.530  1.00  0.00    -0.283 C  
BRANCH  37  38
HETATM   38  C   UNL     2     -11.528  13.993  66.641  1.00  0.00    -0.377 C  
BRANCH  38  39
HETATM   39  C   UNL     2     -11.195  13.859  65.163  1.00  0.00    -0.326 C  
HETATM   40  C   UNL     2     -11.981  12.840  64.337  1.00  0.00    -0.399 C  
HETATM   41  O   UNL     2     -11.372  12.415  63.315  1.00  0.00    -0.437 OA 
HETATM   42  O   UNL     2     -13.173  12.540  64.672  1.00  0.00    -0.848 OA 
ENDBRANCH  38  39
ENDBRANCH  37  38
ENDBRANCH  36  37
ENDBRANCH  34  35
ENDBRANCH  31  34
ENDBRANCH  24  25
ENDBRANCH  17  18
ENDBRANCH  16  17
ENDBRANCH   6  16
TORSDOF 9
ENDMDL
MODEL       95
REMARK 921   NORMALIZED FREE ENERGY PREDICTED BY IDOCK:   -5.98 KCAL/MOL
REMARK 922        TOTAL FREE ENERGY PREDICTED BY IDOCK:  -11.06 KCAL/MOL
REMARK 923 INTER-LIGAND FREE ENERGY PREDICTED BY IDOCK:   -9.63 KCAL/MOL
REMARK 924 INTRA-LIGAND FREE ENERGY PREDICTED BY IDOCK:   -1.42 KCAL/MOL
REMARK 927      BINDING AFFINITY PREDICTED BY RF-SCORE:    0.00 PKD
ROOT
HETATM    1  O   UNL     1     -12.066   7.932  72.857  1.00  0.00    -0.617 OA 
HETATM    2  C   UNL     1     -11.028   8.386  71.995  1.00  0.00    -0.323 C  
HETATM    3  H   UNL     1     -12.826   8.501  72.824  1.00  0.00     0.000 HD 
HETATM    4  C   UNL     2     -10.240   3.987  64.641  1.00  0.00    -0.226 C  
HETATM    5  C   UNL     1      -9.783   7.453  72.049  1.00  0.00    -0.154 C  
HETATM    6  C   UNL     2      -9.646   3.522  65.962  1.00  0.00    -0.105 C  
HETATM    7  C   UNL     1     -10.221   6.002  71.707  1.00  0.00    -0.202 C  
HETATM    8  N   UNL     1      -8.841   7.953  70.998  1.00  0.00    -0.139 NA 
HETATM    9  C   UNL     1      -8.978   7.532  73.337  1.00  0.00    -0.203 C  
HETATM   10  H   UNL     1      -7.783   8.841  74.162  1.00  0.00     0.000 HD 
HETATM   11  H   UNL     1     -11.121   5.067  70.215  1.00  0.00     0.000 HD 
HETATM   12  H2  UNL     1      -8.610   8.942  71.097  1.00  0.00     0.000 HD 
HETATM   13  O   UNL     1     -10.853   5.954  70.424  1.00  0.00    -0.278 OA 
HETATM   14  O   UNL     1      -8.286   8.792  73.358  1.00  0.00    -0.389 OA 
HETATM   15  H1  UNL     1      -8.025   7.341  71.033  1.00  0.00     0.000 HD 
ENDROOT
BRANCH   6  16
HETATM   16  C   UNL     2      -8.936   4.630  66.742  1.00  0.00    -0.112 C  
BRANCH  16  17
HETATM   17  C   UNL     2      -9.619   6.000  66.689  1.00  0.00    -0.179 C  
BRANCH  17  18
HETATM   18  C   UNL     2      -8.878   7.062  65.842  1.00  0.00    -0.126 C  
HETATM   19  C   UNL     2      -8.165   8.221  66.575  1.00  0.00    -0.106 C  
HETATM   20  C   UNL     2      -7.306   9.117  65.670  1.00  0.00    -0.086 C  
HETATM   21  O   UNL     2      -7.275   7.632  67.530  1.00  0.00    -0.082 OA 
HETATM   22  C   UNL     2      -9.167   9.062  67.315  1.00  0.00    -0.159 C  
HETATM   23  H   UNL     2      -6.837   8.344  67.980  1.00  0.00     0.000 HD 
HETATM   24  C   UNL     2     -10.049   9.931  66.794  1.00  0.00    -0.292 C  
BRANCH  24  25
HETATM   25  C   UNL     2     -11.059  10.732  67.585  1.00  0.00    -0.384 C  
HETATM   26  C   UNL     2     -11.016  10.553  69.120  1.00  0.00    -0.240 C  
HETATM   27  C   UNL     2     -11.909  11.673  69.596  1.00  0.00    -0.419 C  
HETATM   28  O   UNL     2      -9.748  10.793  69.722  1.00  0.00    -0.422 OA 
HETATM   29  H   UNL     2      -9.721  10.684  70.666  1.00  0.00     0.000 HD 
HETATM   30  C   UNL     2     -11.491  12.858  68.727  1.00  0.00    -0.303 C  
HETATM   31  C   UNL     2     -11.004  12.276  67.373  1.00  0.00    -0.298 C  
HETATM   32  O   UNL     2     -12.599  13.740  68.638  1.00  0.00    -0.267 OA 
HETATM   33  H   UNL     2     -12.338  14.477  68.098  1.00  0.00     0.000 HD 
BRANCH  31  34
HETATM   34  C   UNL     2     -11.790  12.749  66.130  1.00  0.00    -0.484 C  
BRANCH  34  35
HETATM   35  C   UNL     2     -10.941  13.456  65.098  1.00  0.00    -0.315 C  
HETATM   36  C   UNL     2     -10.263  14.607  65.219  1.00  0.00    -0.421 C  
BRANCH  36  37
HETATM   37  C   UNL     2     -10.172  15.498  66.425  1.00  0.00    -0.300 C  
BRANCH  37  38
HETATM   38  C   UNL     2     -10.009  16.978  66.075  1.00  0.00    -0.288 C  
BRANCH  38  39
HETATM   39  C   UNL     2     -10.380  17.939  67.194  1.00  0.00    -0.371 C  
HETATM   40  C   UNL     2     -10.347  19.439  66.896  1.00  0.00    -0.437 C  
HETATM   41  O   UNL     2     -10.165  20.168  67.911  1.00  0.00    -0.400 OA 
HETATM   42  O   UNL     2     -10.559  19.852  65.710  1.00  0.00    -0.507 OA 
ENDBRANCH  38  39
ENDBRANCH  37  38
ENDBRANCH  36  37
ENDBRANCH  34  35
ENDBRANCH  31  34
ENDBRANCH  24  25
ENDBRANCH  17  18
ENDBRANCH  16  17
ENDBRANCH   6  16
TORSDOF 9
ENDMDL
MODEL       96
REMARK 921   NORMALIZED FREE ENERGY PREDICTED BY IDOCK:   -5.98 KCAL/MOL
REMARK 922        TOTAL FREE ENERGY PREDICTED BY IDOCK:  -11.04 KCAL/MOL
REMARK 923 INTER-LIGAND FREE ENERGY PREDICTED BY IDOCK:   -8.49 KCAL/MOL
REMARK 924 INTRA-LIGAND FREE ENERGY PREDICTED BY IDOCK:   -2.56 KCAL/MOL
REMARK 927      BINDING AFFINITY PREDICTED BY RF-SCORE:    0.00 PKD
ROOT
HETATM    1  O   UNL     1      -5.365  10.185  63.858  1.00  0.00    -0.094 OA 
HETATM    2  C   UNL     1      -6.720  10.276  63.428  1.00  0.00    -0.096 C  
HETATM    3  H   UNL     1      -4.802  10.776  63.372  1.00  0.00     0.000 HD 
HETATM    4  C   UNL     2     -11.898  14.695  68.692  1.00  0.00    -0.346 C  
HETATM    5  C   UNL     1      -7.643   9.308  64.224  1.00  0.00    -0.112 C  
HETATM    6  C   UNL     2     -11.525  13.237  68.915  1.00  0.00    -0.342 C  
HETATM    7  C   UNL     1      -7.500   9.602  65.743  1.00  0.00    -0.100 C  
HETATM    8  N   UNL     1      -9.042   9.610  63.785  1.00  0.00    -0.365 NA 
HETATM    9  C   UNL     1      -7.462   7.834  63.895  1.00  0.00    -0.107 C  
HETATM   10  H   UNL     1      -7.889   6.675  62.378  1.00  0.00     0.000 HD 
HETATM   11  H   UNL     1      -7.725  11.150  66.953  1.00  0.00     0.000 HD 
HETATM   12  H2  UNL     1      -9.171   9.555  62.774  1.00  0.00     0.000 HD 
HETATM   13  O   UNL     1      -7.813  10.970  66.025  1.00  0.00    -0.149 OA 
HETATM   14  O   UNL     1      -8.003   7.596  62.584  1.00  0.00    -0.129 OA 
HETATM   15  H1  UNL     1      -9.647   8.976  64.306  1.00  0.00     0.000 HD 
ENDROOT
BRANCH   6  16
HETATM   16  C   UNL     2     -11.601  12.382  67.649  1.00  0.00    -0.421 C  
BRANCH  16  17
HETATM   17  C   UNL     2     -10.784  11.088  67.691  1.00  0.00    -0.281 C  
BRANCH  17  18
HETATM   18  C   UNL     2      -9.660  11.063  68.753  1.00  0.00    -0.194 C  
HETATM   19  C   UNL     2      -9.225   9.697  69.332  1.00  0.00    -0.189 C  
HETATM   20  C   UNL     2      -7.985   9.752  70.236  1.00  0.00    -0.185 C  
HETATM   21  O   UNL     2      -8.884   8.858  68.223  1.00  0.00    -0.133 OA 
HETATM   22  C   UNL     2     -10.366   9.062  70.076  1.00  0.00    -0.226 C  
HETATM   23  H   UNL     2      -8.618   8.019  68.578  1.00  0.00     0.000 HD 
HETATM   24  C   UNL     2     -10.859   9.416  71.275  1.00  0.00    -0.431 C  
BRANCH  24  25
HETATM   25  C   UNL     2     -12.032   8.759  71.966  1.00  0.00    -0.446 C  
HETATM   26  C   UNL     2     -13.366   9.541  71.934  1.00  0.00    -0.437 C  
HETATM   27  C   UNL     2     -14.352   8.510  72.426  1.00  0.00    -0.412 C  
HETATM   28  O   UNL     2     -13.818   9.914  70.635  1.00  0.00    -0.424 OA 
HETATM   29  H   UNL     2     -14.637  10.394  70.615  1.00  0.00     0.000 HD 
HETATM   30  C   UNL     2     -13.935   7.237  71.691  1.00  0.00    -0.363 C  
HETATM   31  C   UNL     2     -12.405   7.337  71.447  1.00  0.00    -0.403 C  
HETATM   32  O   UNL     2     -14.347   6.130  72.478  1.00  0.00    -0.694 OA 
HETATM   33  H   UNL     2     -14.088   5.339  72.021  1.00  0.00     0.000 HD 
BRANCH  31  34
HETATM   34  C   UNL     2     -11.560   6.213  72.088  1.00  0.00    -0.369 C  
BRANCH  34  35
HETATM   35  C   UNL     2     -10.999   6.565  73.447  1.00  0.00    -0.175 C  
HETATM   36  C   UNL     2      -9.760   6.973  73.761  1.00  0.00    -0.311 C  
BRANCH  36  37
HETATM   37  C   UNL     2      -8.601   7.187  72.830  1.00  0.00    -0.134 C  
BRANCH  37  38
HETATM   38  C   UNL     2      -7.971   5.883  72.336  1.00  0.00    -0.103 C  
BRANCH  38  39
HETATM   39  C   UNL     2      -8.190   5.591  70.859  1.00  0.00    -0.118 C  
HETATM   40  C   UNL     2      -7.273   6.276  69.845  1.00  0.00    -0.074 C  
HETATM   41  O   UNL     2      -7.777   6.413  68.695  1.00  0.00    -0.098 OA 
HETATM   42  O   UNL     2      -6.087   6.598  70.182  1.00  0.00    -0.026 OA 
ENDBRANCH  38  39
ENDBRANCH  37  38
ENDBRANCH  36  37
ENDBRANCH  34  35
ENDBRANCH  31  34
ENDBRANCH  24  25
ENDBRANCH  17  18
ENDBRANCH  16  17
ENDBRANCH   6  16
TORSDOF 9
ENDMDL
MODEL       97
REMARK 921   NORMALIZED FREE ENERGY PREDICTED BY IDOCK:   -5.96 KCAL/MOL
REMARK 922        TOTAL FREE ENERGY PREDICTED BY IDOCK:  -11.03 KCAL/MOL
REMARK 923 INTER-LIGAND FREE ENERGY PREDICTED BY IDOCK:   -9.33 KCAL/MOL
REMARK 924 INTRA-LIGAND FREE ENERGY PREDICTED BY IDOCK:   -1.70 KCAL/MOL
REMARK 927      BINDING AFFINITY PREDICTED BY RF-SCORE:    0.00 PKD
ROOT
HETATM    1  O   UNL     1      -6.714  20.936  67.858  1.00  0.00    -0.322 OA 
HETATM    2  C   UNL     1      -7.693  20.327  67.022  1.00  0.00    -0.321 C  
HETATM    3  H   UNL     1      -6.906  21.854  68.013  1.00  0.00     0.000 HD 
HETATM    4  C   UNL     2     -13.364  15.327  71.132  1.00  0.00    -0.568 C  
HETATM    5  C   UNL     1      -7.379  18.824  66.767  1.00  0.00    -0.217 C  
HETATM    6  C   UNL     2     -11.975  14.858  70.726  1.00  0.00    -0.372 C  
HETATM    7  C   UNL     1      -7.253  18.093  68.133  1.00  0.00    -0.245 C  
HETATM    8  N   UNL     1      -8.549  18.275  66.011  1.00  0.00    -0.507 NA 
HETATM    9  C   UNL     1      -6.192  18.562  65.854  1.00  0.00    -0.225 C  
HETATM   10  H   UNL     1      -5.827  18.756  63.942  1.00  0.00     0.000 HD 
HETATM   11  H   UNL     1      -8.372  17.806  69.738  1.00  0.00     0.000 HD 
HETATM   12  H2  UNL     1      -8.762  18.795  65.159  1.00  0.00     0.000 HD 
HETATM   13  O   UNL     1      -8.448  18.252  68.904  1.00  0.00    -0.257 OA 
HETATM   14  O   UNL     1      -6.569  18.919  64.513  1.00  0.00    -0.389 OA 
HETATM   15  H1  UNL     1      -8.343  17.290  65.845  1.00  0.00     0.000 HD 
ENDROOT
BRANCH   6  16
HETATM   16  C   UNL     2     -11.584  15.253  69.301  1.00  0.00    -0.350 C  
BRANCH  16  17
HETATM   17  C   UNL     2     -12.057  14.290  68.208  1.00  0.00    -0.278 C  
BRANCH  17  18
HETATM   18  C   UNL     2     -11.411  14.515  66.821  1.00  0.00    -0.376 C  
HETATM   19  C   UNL     2     -11.450  13.360  65.795  1.00  0.00    -0.320 C  
HETATM   20  C   UNL     2     -10.954  13.735  64.391  1.00  0.00    -0.356 C  
HETATM   21  O   UNL     2     -12.821  12.968  65.653  1.00  0.00    -0.463 OA 
HETATM   22  C   UNL     2     -10.670  12.183  66.309  1.00  0.00    -0.296 C  
HETATM   23  H   UNL     2     -12.845  12.258  65.023  1.00  0.00     0.000 HD 
HETATM   24  C   UNL     2      -9.335  12.062  66.398  1.00  0.00    -0.232 C  
BRANCH  24  25
HETATM   25  C   UNL     2      -8.601  10.863  66.954  1.00  0.00    -0.136 C  
HETATM   26  C   UNL     2      -7.057  10.926  66.901  1.00  0.00    -0.120 C  
HETATM   27  C   UNL     2      -6.660   9.760  67.772  1.00  0.00    -0.068 C  
HETATM   28  O   UNL     2      -6.476  12.075  67.511  1.00  0.00    -0.094 OA 
HETATM   29  H   UNL     2      -5.528  12.115  67.479  1.00  0.00     0.000 HD 
HETATM   30  C   UNL     2      -7.613   9.862  68.962  1.00  0.00    -0.086 C  
HETATM   31  C   UNL     2      -8.922  10.509  68.438  1.00  0.00    -0.141 C  
HETATM   32  O   UNL     2      -7.761   8.561  69.508  1.00  0.00    -0.087 OA 
HETATM   33  H   UNL     2      -8.354   8.625  70.248  1.00  0.00     0.000 HD 
BRANCH  31  34
HETATM   34  C   UNL     2     -10.194   9.645  68.596  1.00  0.00    -0.209 C  
BRANCH  34  35
HETATM   35  C   UNL     2     -10.576   8.880  67.350  1.00  0.00    -0.305 C  
HETATM   36  C   UNL     2     -10.290   7.609  67.027  1.00  0.00    -0.400 C  
BRANCH  36  37
HETATM   37  C   UNL     2      -9.510   6.610  67.833  1.00  0.00    -0.117 C  
BRANCH  37  38
HETATM   38  C   UNL     2     -10.396   5.643  68.621  1.00  0.00    -0.277 C  
BRANCH  38  39
HETATM   39  C   UNL     2     -11.341   6.309  69.609  1.00  0.00    -0.492 C  
HETATM   40  C   UNL     2     -10.825   6.592  71.021  1.00  0.00    -0.253 C  
HETATM   41  O   UNL     2     -11.728   6.661  71.901  1.00  0.00    -0.283 OA 
HETATM   42  O   UNL     2      -9.582   6.795  71.210  1.00  0.00    -0.169 OA 
ENDBRANCH  38  39
ENDBRANCH  37  38
ENDBRANCH  36  37
ENDBRANCH  34  35
ENDBRANCH  31  34
ENDBRANCH  24  25
ENDBRANCH  17  18
ENDBRANCH  16  17
ENDBRANCH   6  16
TORSDOF 9
ENDMDL
MODEL       98
REMARK 921   NORMALIZED FREE ENERGY PREDICTED BY IDOCK:   -5.95 KCAL/MOL
REMARK 922        TOTAL FREE ENERGY PREDICTED BY IDOCK:  -11.01 KCAL/MOL
REMARK 923 INTER-LIGAND FREE ENERGY PREDICTED BY IDOCK:   -8.92 KCAL/MOL
REMARK 924 INTRA-LIGAND FREE ENERGY PREDICTED BY IDOCK:   -2.09 KCAL/MOL
REMARK 927      BINDING AFFINITY PREDICTED BY RF-SCORE:    0.00 PKD
ROOT
HETATM    1  O   UNL     1     -12.723   7.028  72.487  1.00  0.00    -0.471 OA 
HETATM    2  C   UNL     1     -11.567   7.658  71.944  1.00  0.00    -0.280 C  
HETATM    3  H   UNL     1     -13.496   7.573  72.397  1.00  0.00     0.000 HD 
HETATM    4  C   UNL     2      -9.080   4.672  64.266  1.00  0.00    -0.112 C  
HETATM    5  C   UNL     1     -10.301   6.764  72.091  1.00  0.00    -0.200 C  
HETATM    6  C   UNL     2      -8.729   3.993  65.582  1.00  0.00    -0.119 C  
HETATM    7  C   UNL     1     -10.572   5.386  71.425  1.00  0.00    -0.212 C  
HETATM    8  N   UNL     1      -9.204   7.469  71.356  1.00  0.00    -0.141 NA 
HETATM    9  C   UNL     1      -9.770   6.632  73.510  1.00  0.00    -0.191 C  
HETATM   10  H   UNL     1      -8.844   7.804  74.773  1.00  0.00     0.000 HD 
HETATM   11  H   UNL     1     -11.102   4.710  69.644  1.00  0.00     0.000 HD 
HETATM   12  H2  UNL     1      -9.060   8.430  71.666  1.00  0.00     0.000 HD 
HETATM   13  O   UNL     1     -10.936   5.552  70.051  1.00  0.00    -0.301 OA 
HETATM   14  O   UNL     1      -9.175   7.886  73.886  1.00  0.00    -0.267 OA 
HETATM   15  H1  UNL     1      -8.375   6.883  71.451  1.00  0.00     0.000 HD 
ENDROOT
BRANCH   6  16
HETATM   16  C   UNL     2      -8.256   4.962  66.667  1.00  0.00    -0.107 C  
BRANCH  16  17
HETATM   17  C   UNL     2      -8.808   6.386  66.550  1.00  0.00    -0.140 C  
BRANCH  17  18
HETATM   18  C   UNL     2      -8.157   7.415  67.504  1.00  0.00    -0.114 C  
HETATM   19  C   UNL     2      -9.020   8.590  68.018  1.00  0.00    -0.141 C  
HETATM   20  C   UNL     2      -8.349   9.450  69.099  1.00  0.00    -0.125 C  
HETATM   21  O   UNL     2     -10.191   8.023  68.616  1.00  0.00    -0.198 OA 
HETATM   22  C   UNL     2      -9.446   9.462  66.871  1.00  0.00    -0.204 C  
HETATM   23  H   UNL     2     -10.722   8.745  68.932  1.00  0.00     0.000 HD 
HETATM   24  C   UNL     2      -8.687  10.322  66.171  1.00  0.00    -0.163 C  
BRANCH  24  25
HETATM   25  C   UNL     2      -9.161  11.155  65.002  1.00  0.00    -0.190 C  
HETATM   26  C   UNL     2      -8.924  10.553  63.598  1.00  0.00    -0.218 C  
HETATM   27  C   UNL     2      -9.752  11.459  62.719  1.00  0.00    -0.253 C  
HETATM   28  O   UNL     2      -9.452   9.245  63.403  1.00  0.00    -0.422 OA 
HETATM   29  H   UNL     2      -9.306   8.874  62.540  1.00  0.00     0.000 HD 
HETATM   30  C   UNL     2     -11.046  11.640  63.511  1.00  0.00    -0.393 C  
HETATM   31  C   UNL     2     -10.676  11.525  65.014  1.00  0.00    -0.350 C  
HETATM   32  O   UNL     2     -11.617  12.881  63.126  1.00  0.00    -0.796 OA 
HETATM   33  H   UNL     2     -12.422  12.993  63.618  1.00  0.00     0.000 HD 
BRANCH  31  34
HETATM   34  C   UNL     2     -10.992  12.773  65.868  1.00  0.00    -0.303 C  
BRANCH  34  35
HETATM   35  C   UNL     2     -11.482  12.454  67.263  1.00  0.00    -0.421 C  
HETATM   36  C   UNL     2     -11.047  12.943  68.435  1.00  0.00    -0.293 C  
BRANCH  36  37
HETATM   37  C   UNL     2      -9.951  13.945  68.662  1.00  0.00    -0.189 C  
BRANCH  37  38
HETATM   38  C   UNL     2     -10.445  15.253  69.282  1.00  0.00    -0.258 C  
BRANCH  38  39
HETATM   39  C   UNL     2     -11.053  16.235  68.291  1.00  0.00    -0.346 C  
HETATM   40  C   UNL     2     -10.213  17.438  67.862  1.00  0.00    -0.348 C  
HETATM   41  O   UNL     2     -10.887  18.434  67.477  1.00  0.00    -0.408 OA 
HETATM   42  O   UNL     2      -8.942  17.352  67.857  1.00  0.00    -0.242 OA 
ENDBRANCH  38  39
ENDBRANCH  37  38
ENDBRANCH  36  37
ENDBRANCH  34  35
ENDBRANCH  31  34
ENDBRANCH  24  25
ENDBRANCH  17  18
ENDBRANCH  16  17
ENDBRANCH   6  16
TORSDOF 9
ENDMDL
MODEL       99
REMARK 921   NORMALIZED FREE ENERGY PREDICTED BY IDOCK:   -5.94 KCAL/MOL
REMARK 922        TOTAL FREE ENERGY PREDICTED BY IDOCK:  -10.98 KCAL/MOL
REMARK 923 INTER-LIGAND FREE ENERGY PREDICTED BY IDOCK:   -9.36 KCAL/MOL
REMARK 924 INTRA-LIGAND FREE ENERGY PREDICTED BY IDOCK:   -1.62 KCAL/MOL
REMARK 927      BINDING AFFINITY PREDICTED BY RF-SCORE:    0.00 PKD
ROOT
HETATM    1  O   UNL     1     -11.143  15.415  66.722  1.00  0.00    -0.312 OA 
HETATM    2  C   UNL     1     -10.222  14.382  67.061  1.00  0.00    -0.263 C  
HETATM    3  H   UNL     1     -11.374  15.392  65.801  1.00  0.00     0.000 HD 
HETATM    4  C   UNL     2     -13.667   7.672  71.203  1.00  0.00    -0.219 C  
HETATM    5  C   UNL     1      -9.843  14.420  68.570  1.00  0.00    -0.233 C  
HETATM    6  C   UNL     2     -13.267   8.967  71.895  1.00  0.00    -0.462 C  
HETATM    7  C   UNL     1     -11.139  14.337  69.422  1.00  0.00    -0.246 C  
HETATM    8  N   UNL     1      -9.001  13.208  68.819  1.00  0.00    -0.384 NA 
HETATM    9  C   UNL     1      -8.950  15.582  68.977  1.00  0.00    -0.237 C  
HETATM   10  H   UNL     1      -7.077  16.072  68.700  1.00  0.00     0.000 HD 
HETATM   11  H   UNL     1     -12.673  13.106  69.621  1.00  0.00     0.000 HD 
HETATM   12  H2  UNL     1      -8.193  13.140  68.200  1.00  0.00     0.000 HD 
HETATM   13  O   UNL     1     -11.881  13.156  69.101  1.00  0.00    -0.294 OA 
HETATM   14  O   UNL     1      -7.635  15.346  68.446  1.00  0.00    -0.111 OA 
HETATM   15  H1  UNL     1      -8.752  13.232  69.808  1.00  0.00     0.000 HD 
ENDROOT
BRANCH   6  16
HETATM   16  C   UNL     2     -11.898   9.496  71.465  1.00  0.00    -0.478 C  
BRANCH  16  17
HETATM   17  C   UNL     2     -10.708   8.619  71.865  1.00  0.00    -0.414 C  
BRANCH  17  18
HETATM   18  C   UNL     2      -9.331   9.135  71.388  1.00  0.00    -0.246 C  
HETATM   19  C   UNL     2      -9.174   9.551  69.907  1.00  0.00    -0.220 C  
HETATM   20  C   UNL     2      -7.834  10.222  69.571  1.00  0.00    -0.172 C  
HETATM   21  O   UNL     2     -10.194  10.517  69.630  1.00  0.00    -0.308 OA 
HETATM   22  C   UNL     2      -9.385   8.365  69.010  1.00  0.00    -0.147 C  
HETATM   23  H   UNL     2     -10.098  10.773  68.721  1.00  0.00     0.000 HD 
HETATM   24  C   UNL     2      -8.550   7.331  68.810  1.00  0.00    -0.129 C  
BRANCH  24  25
HETATM   25  C   UNL     2      -8.827   6.144  67.916  1.00  0.00    -0.111 C  
HETATM   26  C   UNL     2      -9.722   5.034  68.516  1.00  0.00    -0.154 C  
HETATM   27  C   UNL     2     -10.031   4.186  67.306  1.00  0.00    -0.089 C  
HETATM   28  O   UNL     2     -10.984   5.474  69.008  1.00  0.00    -0.186 OA 
HETATM   29  H   UNL     2     -11.534   4.792  69.377  1.00  0.00     0.000 HD 
HETATM   30  C   UNL     2     -10.329   5.214  66.215  1.00  0.00    -0.268 C  
HETATM   31  C   UNL     2      -9.493   6.478  66.546  1.00  0.00    -0.190 C  
HETATM   32  O   UNL     2     -10.039   4.610  64.964  1.00  0.00    -0.362 OA 
HETATM   33  H   UNL     2     -10.225   5.250  64.286  1.00  0.00     0.000 HD 
BRANCH  31  34
HETATM   34  C   UNL     2      -8.476   6.899  65.461  1.00  0.00    -0.122 C  
BRANCH  34  35
HETATM   35  C   UNL     2      -7.792   8.218  65.738  1.00  0.00    -0.098 C  
HETATM   36  C   UNL     2      -8.142   9.446  65.325  1.00  0.00    -0.124 C  
BRANCH  36  37
HETATM   37  C   UNL     2      -9.318   9.827  64.472  1.00  0.00    -0.298 C  
BRANCH  37  38
HETATM   38  C   UNL     2     -10.268  10.812  65.156  1.00  0.00    -0.365 C  
BRANCH  38  39
HETATM   39  C   UNL     2     -10.772  11.933  64.261  1.00  0.00    -0.388 C  
HETATM   40  C   UNL     2     -12.165  12.502  64.532  1.00  0.00    -0.453 C  
HETATM   41  O   UNL     2     -12.720  13.027  63.527  1.00  0.00    -0.708 OA 
HETATM   42  O   UNL     2     -12.640  12.473  65.714  1.00  0.00    -0.569 OA 
ENDBRANCH  38  39
ENDBRANCH  37  38
ENDBRANCH  36  37
ENDBRANCH  34  35
ENDBRANCH  31  34
ENDBRANCH  24  25
ENDBRANCH  17  18
ENDBRANCH  16  17
ENDBRANCH   6  16
TORSDOF 9
ENDMDL
MODEL      100
REMARK 921   NORMALIZED FREE ENERGY PREDICTED BY IDOCK:   -5.93 KCAL/MOL
REMARK 922        TOTAL FREE ENERGY PREDICTED BY IDOCK:  -10.97 KCAL/MOL
REMARK 923 INTER-LIGAND FREE ENERGY PREDICTED BY IDOCK:   -8.64 KCAL/MOL
REMARK 924 INTRA-LIGAND FREE ENERGY PREDICTED BY IDOCK:   -2.33 KCAL/MOL
REMARK 927      BINDING AFFINITY PREDICTED BY RF-SCORE:    0.00 PKD
ROOT
HETATM    1  O   UNL     1     -10.892   6.932  73.880  1.00  0.00    -0.510 OA 
HETATM    2  C   UNL     1     -11.386   6.836  72.548  1.00  0.00    -0.254 C  
HETATM    3  H   UNL     1     -10.864   6.084  74.307  1.00  0.00     0.000 HD 
HETATM    4  C   UNL     2      -5.375   7.313  66.408  1.00  0.00    -0.024 C  
HETATM    5  C   UNL     1     -11.432   8.225  71.848  1.00  0.00    -0.310 C  
HETATM    6  C   UNL     2      -5.971   8.534  67.093  1.00  0.00    -0.054 C  
HETATM    7  C   UNL     1     -10.015   8.862  71.891  1.00  0.00    -0.314 C  
HETATM    8  N   UNL     1     -11.820   7.964  70.426  1.00  0.00    -0.472 NA 
HETATM    9  C   UNL     1     -12.511   9.166  72.360  1.00  0.00    -0.280 C  
HETATM   10  H   UNL     1     -14.460   9.262  72.233  1.00  0.00     0.000 HD 
HETATM   11  H   UNL     1      -8.188   8.388  71.302  1.00  0.00     0.000 HD 
HETATM   12  H2  UNL     1     -12.688   7.434  70.333  1.00  0.00     0.000 HD 
HETATM   13  O   UNL     1      -9.053   7.999  71.275  1.00  0.00    -0.132 OA 
HETATM   14  O   UNL     1     -13.786   8.674  71.912  1.00  0.00    -0.377 OA 
HETATM   15  H1  UNL     1     -11.850   8.874  69.967  1.00  0.00     0.000 HD 
ENDROOT
BRANCH   6  16
HETATM   16  C   UNL     2      -7.493   8.478  67.235  1.00  0.00    -0.093 C  
BRANCH  16  17
HETATM   17  C   UNL     2      -8.171   9.826  67.496  1.00  0.00    -0.114 C  
BRANCH  17  18
HETATM   18  C   UNL     2      -7.400  11.055  66.960  1.00  0.00    -0.123 C  
HETATM   19  C   UNL     2      -6.789  12.043  67.980  1.00  0.00    -0.078 C  
HETATM   20  C   UNL     2      -5.889  13.123  67.363  1.00  0.00     0.013 C  
HETATM   21  O   UNL     2      -5.961  11.278  68.864  1.00  0.00    -0.043 OA 
HETATM   22  C   UNL     2      -7.876  12.692  68.789  1.00  0.00     0.039 C  
HETATM   23  H   UNL     2      -5.586  11.885  69.491  1.00  0.00     0.000 HD 
HETATM   24  C   UNL     2      -8.741  13.638  68.387  1.00  0.00    -0.153 C  
BRANCH  24  25
HETATM   25  C   UNL     2      -9.840  14.237  69.237  1.00  0.00     0.100 C  
HETATM   26  C   UNL     2      -9.960  15.778  69.205  1.00  0.00    -0.241 C  
HETATM   27  C   UNL     2     -11.285  16.008  69.889  1.00  0.00    -0.361 C  
HETATM   28  O   UNL     2     -10.096  16.348  67.906  1.00  0.00    -0.239 OA 
HETATM   29  H   UNL     2     -10.171  17.295  67.886  1.00  0.00     0.000 HD 
HETATM   30  C   UNL     2     -12.190  14.933  69.288  1.00  0.00    -0.186 C  
HETATM   31  C   UNL     2     -11.280  13.729  68.924  1.00  0.00    -0.309 C  
HETATM   32  O   UNL     2     -13.211  14.652  70.232  1.00  0.00    -0.552 OA 
HETATM   33  H   UNL     2     -13.773  13.983  69.858  1.00  0.00     0.000 HD 
BRANCH  31  34
HETATM   34  C   UNL     2     -11.627  12.402  69.635  1.00  0.00    -0.330 C  
BRANCH  34  35
HETATM   35  C   UNL     2     -11.300  11.168  68.826  1.00  0.00    -0.342 C  
HETATM   36  C   UNL     2     -11.358  10.999  67.496  1.00  0.00    -0.332 C  
BRANCH  36  37
HETATM   37  C   UNL     2     -11.766  12.007  66.460  1.00  0.00    -0.330 C  
BRANCH  37  38
HETATM   38  C   UNL     2     -10.789  12.098  65.286  1.00  0.00    -0.336 C  
BRANCH  38  39
HETATM   39  C   UNL     2     -11.256  12.983  64.140  1.00  0.00    -0.439 C  
HETATM   40  C   UNL     2     -11.693  14.412  64.465  1.00  0.00    -0.419 C  
HETATM   41  O   UNL     2     -12.506  14.910  63.637  1.00  0.00    -0.699 OA 
HETATM   42  O   UNL     2     -11.189  15.014  65.469  1.00  0.00    -0.344 OA 
ENDBRANCH  38  39
ENDBRANCH  37  38
ENDBRANCH  36  37
ENDBRANCH  34  35
ENDBRANCH  31  34
ENDBRANCH  24  25
ENDBRANCH  17  18
ENDBRANCH  16  17
ENDBRANCH   6  16
TORSDOF 9
ENDMDL
MODEL      101
REMARK 921   NORMALIZED FREE ENERGY PREDICTED BY IDOCK:   -5.93 KCAL/MOL
REMARK 922        TOTAL FREE ENERGY PREDICTED BY IDOCK:  -10.97 KCAL/MOL
REMARK 923 INTER-LIGAND FREE ENERGY PREDICTED BY IDOCK:   -8.77 KCAL/MOL
REMARK 924 INTRA-LIGAND FREE ENERGY PREDICTED BY IDOCK:   -2.20 KCAL/MOL
REMARK 927      BINDING AFFINITY PREDICTED BY RF-SCORE:    0.00 PKD
ROOT
HETATM    1  O   UNL     1     -11.452  16.537  70.568  1.00  0.00    -0.512 OA 
HETATM    2  C   UNL     1     -11.299  15.217  71.081  1.00  0.00    -0.356 C  
HETATM    3  H   UNL     1     -10.778  17.122  70.895  1.00  0.00     0.000 HD 
HETATM    4  C   UNL     2      -7.935   9.547  65.551  1.00  0.00    -0.112 C  
HETATM    5  C   UNL     1     -12.402  14.259  70.544  1.00  0.00    -0.360 C  
HETATM    6  C   UNL     2      -9.405   9.937  65.559  1.00  0.00    -0.280 C  
HETATM    7  C   UNL     1     -12.380  14.279  68.991  1.00  0.00    -0.112 C  
HETATM    8  N   UNL     1     -12.041  12.891  71.034  1.00  0.00    -0.396 NA 
HETATM    9  C   UNL     1     -13.793  14.501  71.112  1.00  0.00    -0.228 C  
HETATM   10  H   UNL     1     -14.668  14.218  72.838  1.00  0.00     0.000 HD 
HETATM   11  H   UNL     1     -11.074  13.925  67.550  1.00  0.00     0.000 HD 
HETATM   12  H2  UNL     1     -11.917  12.841  72.045  1.00  0.00     0.000 HD 
HETATM   13  O   UNL     1     -11.088  13.913  68.499  1.00  0.00    -0.244 OA 
HETATM   14  O   UNL     1     -13.800  14.067  72.483  1.00  0.00    -0.555 OA 
HETATM   15  H1  UNL     1     -12.764  12.263  70.682  1.00  0.00     0.000 HD 
ENDROOT
BRANCH   6  16
HETATM   16  C   UNL     2     -10.023   9.979  66.958  1.00  0.00    -0.257 C  
BRANCH  16  17
HETATM   17  C   UNL     2     -10.483   8.624  67.504  1.00  0.00    -0.335 C  
BRANCH  17  18
HETATM   18  C   UNL     2      -9.624   7.418  67.058  1.00  0.00    -0.221 C  
HETATM   19  C   UNL     2     -10.258   6.009  67.094  1.00  0.00    -0.202 C  
HETATM   20  C   UNL     2      -9.399   4.905  66.461  1.00  0.00    -0.142 C  
HETATM   21  O   UNL     2     -11.468   6.072  66.330  1.00  0.00    -0.668 OA 
HETATM   22  C   UNL     2     -10.606   5.632  68.506  1.00  0.00    -0.259 C  
HETATM   23  H   UNL     2     -11.858   5.206  66.353  1.00  0.00     0.000 HD 
HETATM   24  C   UNL     2      -9.761   5.280  69.490  1.00  0.00    -0.246 C  
BRANCH  24  25
HETATM   25  C   UNL     2     -10.164   4.938  70.907  1.00  0.00    -0.272 C  
HETATM   26  C   UNL     2      -9.123   4.153  71.739  1.00  0.00    -0.122 C  
HETATM   27  C   UNL     2      -9.696   4.242  73.132  1.00  0.00    -0.159 C  
HETATM   28  O   UNL     2      -7.833   4.753  71.818  1.00  0.00    -0.093 OA 
HETATM   29  H   UNL     2      -7.193   4.272  72.329  1.00  0.00     0.000 HD 
HETATM   30  C   UNL     2     -10.154   5.696  73.239  1.00  0.00    -0.186 C  
HETATM   31  C   UNL     2     -10.541   6.154  71.808  1.00  0.00    -0.268 C  
HETATM   32  O   UNL     2     -11.204   5.748  74.192  1.00  0.00    -0.299 OA 
HETATM   33  H   UNL     2     -11.488   6.653  74.258  1.00  0.00     0.000 HD 
BRANCH  31  34
HETATM   34  C   UNL     2     -12.008   6.608  71.635  1.00  0.00    -0.395 C  
BRANCH  34  35
HETATM   35  C   UNL     2     -12.160   7.952  70.960  1.00  0.00    -0.246 C  
HETATM   36  C   UNL     2     -11.309   8.990  70.961  1.00  0.00    -0.362 C  
BRANCH  36  37
HETATM   37  C   UNL     2      -9.972   9.080  71.639  1.00  0.00    -0.383 C  
BRANCH  37  38
HETATM   38  C   UNL     2      -8.796   9.102  70.661  1.00  0.00    -0.278 C  
BRANCH  38  39
HETATM   39  C   UNL     2      -7.769   8.002  70.879  1.00  0.00    -0.084 C  
HETATM   40  C   UNL     2      -6.869   7.612  69.706  1.00  0.00    -0.047 C  
HETATM   41  O   UNL     2      -6.422   6.433  69.760  1.00  0.00    -0.043 OA 
HETATM   42  O   UNL     2      -6.583   8.477  68.815  1.00  0.00    -0.052 OA 
ENDBRANCH  38  39
ENDBRANCH  37  38
ENDBRANCH  36  37
ENDBRANCH  34  35
ENDBRANCH  31  34
ENDBRANCH  24  25
ENDBRANCH  17  18
ENDBRANCH  16  17
ENDBRANCH   6  16
TORSDOF 9
ENDMDL
MODEL      102
REMARK 921   NORMALIZED FREE ENERGY PREDICTED BY IDOCK:   -5.90 KCAL/MOL
REMARK 922        TOTAL FREE ENERGY PREDICTED BY IDOCK:  -10.94 KCAL/MOL
REMARK 923 INTER-LIGAND FREE ENERGY PREDICTED BY IDOCK:   -9.73 KCAL/MOL
REMARK 924 INTRA-LIGAND FREE ENERGY PREDICTED BY IDOCK:   -1.21 KCAL/MOL
REMARK 927      BINDING AFFINITY PREDICTED BY RF-SCORE:    0.00 PKD
ROOT
HETATM    1  O   UNL     1     -13.432   7.222  70.717  1.00  0.00    -0.583 OA 
HETATM    2  C   UNL     1     -12.272   8.018  70.937  1.00  0.00    -0.109 C  
HETATM    3  H   UNL     1     -14.183   7.753  70.477  1.00  0.00     0.000 HD 
HETATM    4  C   UNL     2      -6.516   7.882  64.542  1.00  0.00    -0.056 C  
HETATM    5  C   UNL     1     -11.042   7.149  71.330  1.00  0.00    -0.249 C  
HETATM    6  C   UNL     2      -6.609   6.800  65.607  1.00  0.00    -0.051 C  
HETATM    7  C   UNL     1     -10.805   6.078  70.229  1.00  0.00    -0.329 C  
HETATM    8  N   UNL     1      -9.872   8.081  71.383  1.00  0.00    -0.167 NA 
HETATM    9  C   UNL     1     -11.101   6.548  72.725  1.00  0.00    -0.245 C  
HETATM   10  H   UNL     1     -10.948   7.231  74.551  1.00  0.00     0.000 HD 
HETATM   11  H   UNL     1     -10.474   6.044  68.280  1.00  0.00     0.000 HD 
HETATM   12  H2  UNL     1     -10.017   8.880  72.000  1.00  0.00     0.000 HD 
HETATM   13  O   UNL     1     -10.619   6.698  68.952  1.00  0.00    -0.195 OA 
HETATM   14  O   UNL     1     -10.911   7.607  73.679  1.00  0.00    -0.308 OA 
HETATM   15  H1  UNL     1      -9.066   7.511  71.640  1.00  0.00     0.000 HD 
ENDROOT
BRANCH   6  16
HETATM   16  C   UNL     2      -6.764   7.346  67.027  1.00  0.00    -0.069 C  
BRANCH  16  17
HETATM   17  C   UNL     2      -7.847   8.416  67.196  1.00  0.00    -0.100 C  
BRANCH  17  18
HETATM   18  C   UNL     2      -8.724   8.655  65.946  1.00  0.00    -0.201 C  
HETATM   19  C   UNL     2      -8.977  10.111  65.491  1.00  0.00    -0.172 C  
HETATM   20  C   UNL     2      -9.699  10.244  64.143  1.00  0.00    -0.357 C  
HETATM   21  O   UNL     2      -7.696  10.732  65.331  1.00  0.00    -0.303 OA 
HETATM   22  C   UNL     2      -9.739  10.860  66.549  1.00  0.00    -0.235 C  
HETATM   23  H   UNL     2      -7.851  11.626  65.053  1.00  0.00     0.000 HD 
HETATM   24  C   UNL     2     -11.038  10.730  66.866  1.00  0.00    -0.204 C  
BRANCH  24  25
HETATM   25  C   UNL     2     -11.750  11.490  67.964  1.00  0.00    -0.343 C  
HETATM   26  C   UNL     2     -11.482  11.007  69.408  1.00  0.00    -0.294 C  
HETATM   27  C   UNL     2     -12.077  12.122  70.232  1.00  0.00    -0.385 C  
HETATM   28  O   UNL     2     -10.108  10.947  69.782  1.00  0.00    -0.434 OA 
HETATM   29  H   UNL     2      -9.943  10.651  70.669  1.00  0.00     0.000 HD 
HETATM   30  C   UNL     2     -11.614  13.387  69.511  1.00  0.00    -0.290 C  
HETATM   31  C   UNL     2     -11.467  13.022  68.009  1.00  0.00    -0.348 C  
HETATM   32  O   UNL     2     -12.554  14.412  69.791  1.00  0.00    -0.506 OA 
HETATM   33  H   UNL     2     -12.265  15.199  69.343  1.00  0.00     0.000 HD 
BRANCH  31  34
HETATM   34  C   UNL     2     -12.358  13.835  67.043  1.00  0.00    -0.289 C  
BRANCH  34  35
HETATM   35  C   UNL     2     -11.978  13.688  65.587  1.00  0.00    -0.422 C  
HETATM   36  C   UNL     2     -10.929  14.216  64.938  1.00  0.00    -0.405 C  
BRANCH  36  37
HETATM   37  C   UNL     2      -9.850  15.097  65.500  1.00  0.00    -0.356 C  
BRANCH  37  38
HETATM   38  C   UNL     2     -10.301  16.542  65.719  1.00  0.00    -0.359 C  
BRANCH  38  39
HETATM   39  C   UNL     2      -9.621  17.250  66.881  1.00  0.00    -0.272 C  
HETATM   40  C   UNL     2     -10.424  17.460  68.166  1.00  0.00    -0.389 C  
HETATM   41  O   UNL     2     -10.039  18.436  68.868  1.00  0.00    -0.388 OA 
HETATM   42  O   UNL     2     -11.350  16.640  68.473  1.00  0.00    -0.317 OA 
ENDBRANCH  38  39
ENDBRANCH  37  38
ENDBRANCH  36  37
ENDBRANCH  34  35
ENDBRANCH  31  34
ENDBRANCH  24  25
ENDBRANCH  17  18
ENDBRANCH  16  17
ENDBRANCH   6  16
TORSDOF 9
ENDMDL
MODEL      103
REMARK 921   NORMALIZED FREE ENERGY PREDICTED BY IDOCK:   -5.90 KCAL/MOL
REMARK 922        TOTAL FREE ENERGY PREDICTED BY IDOCK:  -10.94 KCAL/MOL
REMARK 923 INTER-LIGAND FREE ENERGY PREDICTED BY IDOCK:   -9.17 KCAL/MOL
REMARK 924 INTRA-LIGAND FREE ENERGY PREDICTED BY IDOCK:   -1.77 KCAL/MOL
REMARK 927      BINDING AFFINITY PREDICTED BY RF-SCORE:    0.00 PKD
ROOT
HETATM    1  O   UNL     1      -5.479  11.274  65.239  1.00  0.00    -0.499 OA 
HETATM    2  C   UNL     1      -5.934  10.577  66.394  1.00  0.00    -0.084 C  
HETATM    3  H   UNL     1      -4.532  11.252  65.164  1.00  0.00     0.000 HD 
HETATM    4  C   UNL     2      -9.259   2.792  64.851  1.00  0.00    -0.147 C  
HETATM    5  C   UNL     1      -7.486  10.613  66.515  1.00  0.00    -0.134 C  
HETATM    6  C   UNL     2     -10.044   4.084  64.686  1.00  0.00    -0.215 C  
HETATM    7  C   UNL     1      -8.110  10.040  65.213  1.00  0.00    -0.145 C  
HETATM    8  N   UNL     1      -7.834   9.728  67.671  1.00  0.00    -0.095 NA 
HETATM    9  C   UNL     1      -8.067  11.966  66.895  1.00  0.00    -0.146 C  
HETATM   10  H   UNL     1      -8.115  13.065  68.513  1.00  0.00     0.000 HD 
HETATM   11  H   UNL     1      -8.020   8.361  64.173  1.00  0.00     0.000 HD 
HETATM   12  H2  UNL     1      -7.354   9.980  68.535  1.00  0.00     0.000 HD 
HETATM   13  O   UNL     1      -7.638   8.711  64.968  1.00  0.00    -0.091 OA 
HETATM   14  O   UNL     1      -7.752  12.219  68.275  1.00  0.00    -0.127 OA 
HETATM   15  H1  UNL     1      -8.851   9.751  67.751  1.00  0.00     0.000 HD 
ENDROOT
BRANCH   6  16
HETATM   16  C   UNL     2      -9.860   5.067  65.844  1.00  0.00    -0.183 C  
BRANCH  16  17
HETATM   17  C   UNL     2      -9.763   4.425  67.231  1.00  0.00    -0.222 C  
BRANCH  17  18
HETATM   18  C   UNL     2      -8.670   5.021  68.147  1.00  0.00    -0.106 C  
HETATM   19  C   UNL     2      -8.890   4.983  69.677  1.00  0.00    -0.094 C  
HETATM   20  C   UNL     2      -7.677   5.425  70.508  1.00  0.00    -0.084 C  
HETATM   21  O   UNL     2      -9.152   3.620  70.031  1.00  0.00    -0.098 OA 
HETATM   22  C   UNL     2     -10.087   5.811  70.050  1.00  0.00    -0.279 C  
HETATM   23  H   UNL     2      -9.288   3.597  70.971  1.00  0.00     0.000 HD 
HETATM   24  C   UNL     2     -10.182   7.151  70.067  1.00  0.00    -0.205 C  
BRANCH  24  25
HETATM   25  C   UNL     2     -11.425   7.935  70.422  1.00  0.00    -0.154 C  
HETATM   26  C   UNL     2     -12.475   7.192  71.282  1.00  0.00    -0.386 C  
HETATM   27  C   UNL     2     -13.402   8.311  71.689  1.00  0.00    -0.353 C  
HETATM   28  O   UNL     2     -11.981   6.643  72.500  1.00  0.00    -0.481 OA 
HETATM   29  H   UNL     2     -12.625   6.186  73.028  1.00  0.00     0.000 HD 
HETATM   30  C   UNL     2     -12.450   9.449  72.056  1.00  0.00    -0.365 C  
HETATM   31  C   UNL     2     -11.179   9.273  71.184  1.00  0.00    -0.413 C  
HETATM   32  O   UNL     2     -13.146  10.671  71.865  1.00  0.00    -0.469 OA 
HETATM   33  H   UNL     2     -12.554  11.378  72.093  1.00  0.00     0.000 HD 
BRANCH  31  34
HETATM   34  C   UNL     2     -10.854  10.457  70.245  1.00  0.00    -0.308 C  
BRANCH  34  35
HETATM   35  C   UNL     2     -11.480  10.344  68.874  1.00  0.00    -0.251 C  
HETATM   36  C   UNL     2     -11.701  11.312  67.972  1.00  0.00    -0.305 C  
BRANCH  36  37
HETATM   37  C   UNL     2     -11.377  12.774  68.096  1.00  0.00    -0.329 C  
BRANCH  37  38
HETATM   38  C   UNL     2     -11.944  13.619  66.954  1.00  0.00    -0.454 C  
BRANCH  38  39
HETATM   39  C   UNL     2     -12.235  12.846  65.676  1.00  0.00    -0.519 C  
HETATM   40  C   UNL     2     -11.712  13.413  64.356  1.00  0.00    -0.394 C  
HETATM   41  O   UNL     2     -12.367  13.053  63.338  1.00  0.00    -0.682 OA 
HETATM   42  O   UNL     2     -10.659  14.130  64.349  1.00  0.00    -0.348 OA 
ENDBRANCH  38  39
ENDBRANCH  37  38
ENDBRANCH  36  37
ENDBRANCH  34  35
ENDBRANCH  31  34
ENDBRANCH  24  25
ENDBRANCH  17  18
ENDBRANCH  16  17
ENDBRANCH   6  16
TORSDOF 9
ENDMDL
MODEL      104
REMARK 921   NORMALIZED FREE ENERGY PREDICTED BY IDOCK:   -5.88 KCAL/MOL
REMARK 922        TOTAL FREE ENERGY PREDICTED BY IDOCK:  -10.90 KCAL/MOL
REMARK 923 INTER-LIGAND FREE ENERGY PREDICTED BY IDOCK:   -8.69 KCAL/MOL
REMARK 924 INTRA-LIGAND FREE ENERGY PREDICTED BY IDOCK:   -2.21 KCAL/MOL
REMARK 927      BINDING AFFINITY PREDICTED BY RF-SCORE:    0.00 PKD
ROOT
HETATM    1  O   UNL     1     -14.244   9.003  72.757  1.00  0.00    -0.933 OA 
HETATM    2  C   UNL     1     -13.626   8.453  71.598  1.00  0.00    -0.349 C  
HETATM    3  H   UNL     1     -15.149   8.727  72.838  1.00  0.00     0.000 HD 
HETATM    4  C   UNL     2      -8.316   1.853  73.117  1.00  0.00    -0.057 C  
HETATM    5  C   UNL     1     -12.142   8.905  71.466  1.00  0.00    -0.330 C  
HETATM    6  C   UNL     2      -7.907   3.310  73.277  1.00  0.00    -0.069 C  
HETATM    7  C   UNL     1     -11.377   8.523  72.764  1.00  0.00    -0.021 C  
HETATM    8  N   UNL     1     -11.576   8.145  70.308  1.00  0.00    -0.470 NA 
HETATM    9  C   UNL     1     -11.949  10.364  71.082  1.00  0.00    -0.362 C  
HETATM   10  H   UNL     1     -12.210  11.432  69.465  1.00  0.00     0.000 HD 
HETATM   11  H   UNL     1     -11.005   6.884  73.804  1.00  0.00     0.000 HD 
HETATM   12  H2  UNL     1     -12.112   8.256  69.447  1.00  0.00     0.000 HD 
HETATM   13  O   UNL     1     -11.473   7.117  73.012  1.00  0.00    -0.217 OA 
HETATM   14  O   UNL     1     -12.330  10.520  69.705  1.00  0.00    -0.225 OA 
HETATM   15  H1  UNL     1     -10.603   8.441  70.221  1.00  0.00     0.000 HD 
ENDROOT
BRANCH   6  16
HETATM   16  C   UNL     2      -8.357   4.205  72.121  1.00  0.00    -0.102 C  
BRANCH  16  17
HETATM   17  C   UNL     2      -8.537   5.684  72.477  1.00  0.00    -0.124 C  
BRANCH  17  18
HETATM   18  C   UNL     2      -7.254   6.540  72.365  1.00  0.00    -0.082 C  
HETATM   19  C   UNL     2      -7.393   8.025  71.959  1.00  0.00    -0.084 C  
HETATM   20  C   UNL     2      -6.094   8.838  72.054  1.00  0.00    -0.073 C  
HETATM   21  O   UNL     2      -8.319   8.626  72.872  1.00  0.00    -0.400 OA 
HETATM   22  C   UNL     2      -7.957   8.133  70.571  1.00  0.00    -0.095 C  
HETATM   23  H   UNL     2      -8.405   9.539  72.623  1.00  0.00     0.000 HD 
HETATM   24  C   UNL     2      -7.330   7.873  69.411  1.00  0.00    -0.081 C  
BRANCH  24  25
HETATM   25  C   UNL     2      -7.956   7.969  68.038  1.00  0.00    -0.128 C  
HETATM   26  C   UNL     2      -8.770   6.739  67.573  1.00  0.00    -0.119 C  
HETATM   27  C   UNL     2      -9.475   7.267  66.349  1.00  0.00    -0.185 C  
HETATM   28  O   UNL     2      -9.804   6.326  68.462  1.00  0.00    -0.133 OA 
HETATM   29  H   UNL     2     -10.303   5.570  68.177  1.00  0.00     0.000 HD 
HETATM   30  C   UNL     2      -9.944   8.657  66.777  1.00  0.00    -0.273 C  
HETATM   31  C   UNL     2      -8.923   9.174  67.826  1.00  0.00    -0.132 C  
HETATM   32  O   UNL     2     -10.060   9.452  65.608  1.00  0.00    -0.377 OA 
HETATM   33  H   UNL     2     -10.351  10.316  65.875  1.00  0.00     0.000 HD 
BRANCH  31  34
HETATM   34  C   UNL     2      -8.192  10.482  67.446  1.00  0.00    -0.118 C  
BRANCH  34  35
HETATM   35  C   UNL     2      -8.500  11.645  68.361  1.00  0.00    -0.157 C  
HETATM   36  C   UNL     2      -9.544  12.488  68.321  1.00  0.00    -0.209 C  
BRANCH  36  37
HETATM   37  C   UNL     2     -10.687  12.489  67.348  1.00  0.00    -0.254 C  
BRANCH  37  38
HETATM   38  C   UNL     2     -10.344  13.149  66.011  1.00  0.00    -0.292 C  
BRANCH  38  39
HETATM   39  C   UNL     2     -11.143  12.631  64.824  1.00  0.00    -0.335 C  
HETATM   40  C   UNL     2     -12.650  12.889  64.803  1.00  0.00    -0.425 C  
HETATM   41  O   UNL     2     -13.312  12.059  64.120  1.00  0.00    -0.725 OA 
HETATM   42  O   UNL     2     -13.124  13.914  65.393  1.00  0.00    -0.752 OA 
ENDBRANCH  38  39
ENDBRANCH  37  38
ENDBRANCH  36  37
ENDBRANCH  34  35
ENDBRANCH  31  34
ENDBRANCH  24  25
ENDBRANCH  17  18
ENDBRANCH  16  17
ENDBRANCH   6  16
TORSDOF 9
ENDMDL
MODEL      105
REMARK 921   NORMALIZED FREE ENERGY PREDICTED BY IDOCK:   -5.85 KCAL/MOL
REMARK 922        TOTAL FREE ENERGY PREDICTED BY IDOCK:  -10.85 KCAL/MOL
REMARK 923 INTER-LIGAND FREE ENERGY PREDICTED BY IDOCK:   -8.89 KCAL/MOL
REMARK 924 INTRA-LIGAND FREE ENERGY PREDICTED BY IDOCK:   -1.96 KCAL/MOL
REMARK 927      BINDING AFFINITY PREDICTED BY RF-SCORE:    0.00 PKD
ROOT
HETATM    1  O   UNL     1     -10.354   4.675  64.765  1.00  0.00    -0.412 OA 
HETATM    2  C   UNL     1      -9.936   4.365  66.091  1.00  0.00    -0.238 C  
HETATM    3  H   UNL     1     -10.974   4.036  64.433  1.00  0.00     0.000 HD 
HETATM    4  C   UNL     2     -13.563   9.159  72.248  1.00  0.00    -0.548 C  
HETATM    5  C   UNL     1      -8.921   5.411  66.636  1.00  0.00    -0.116 C  
HETATM    6  C   UNL     2     -12.369   9.617  71.425  1.00  0.00    -0.468 C  
HETATM    7  C   UNL     1      -9.555   6.827  66.549  1.00  0.00    -0.140 C  
HETATM    8  N   UNL     1      -8.684   5.055  68.070  1.00  0.00    -0.102 NA 
HETATM    9  C   UNL     1      -7.538   5.351  66.005  1.00  0.00    -0.087 C  
HETATM   10  H   UNL     1      -6.014   4.128  66.087  1.00  0.00     0.000 HD 
HETATM   11  H   UNL     1     -11.177   7.738  67.218  1.00  0.00     0.000 HD 
HETATM   12  H2  UNL     1      -8.382   4.090  68.205  1.00  0.00     0.000 HD 
HETATM   13  O   UNL     1     -10.790   6.873  67.271  1.00  0.00    -0.309 OA 
HETATM   14  O   UNL     1      -6.879   4.165  66.481  1.00  0.00    -0.052 OA 
HETATM   15  H1  UNL     1      -8.019   5.741  68.427  1.00  0.00     0.000 HD 
ENDROOT
BRANCH   6  16
HETATM   16  C   UNL     2     -11.287   8.548  71.263  1.00  0.00    -0.325 C  
BRANCH  16  17
HETATM   17  C   UNL     2      -9.847   9.061  71.365  1.00  0.00    -0.381 C  
BRANCH  17  18
HETATM   18  C   UNL     2      -8.888   8.527  70.276  1.00  0.00    -0.150 C  
HETATM   19  C   UNL     2      -7.854   9.500  69.664  1.00  0.00    -0.116 C  
HETATM   20  C   UNL     2      -6.829   8.839  68.731  1.00  0.00    -0.062 C  
HETATM   21  O   UNL     2      -7.113  10.065  70.751  1.00  0.00    -0.324 OA 
HETATM   22  C   UNL     2      -8.555  10.613  68.937  1.00  0.00    -0.158 C  
HETATM   23  H   UNL     2      -6.478  10.663  70.375  1.00  0.00     0.000 HD 
HETATM   24  C   UNL     2      -9.193  10.544  67.756  1.00  0.00    -0.151 C  
BRANCH  24  25
HETATM   25  C   UNL     2      -9.911  11.692  67.082  1.00  0.00    -0.205 C  
HETATM   26  C   UNL     2     -11.454  11.606  67.052  1.00  0.00    -0.262 C  
HETATM   27  C   UNL     2     -11.842  12.992  66.601  1.00  0.00    -0.455 C  
HETATM   28  O   UNL     2     -12.076  11.429  68.322  1.00  0.00    -0.606 OA 
HETATM   29  H   UNL     2     -13.024  11.376  68.304  1.00  0.00     0.000 HD 
HETATM   30  C   UNL     2     -10.919  13.903  67.408  1.00  0.00    -0.288 C  
HETATM   31  C   UNL     2      -9.614  13.105  67.671  1.00  0.00    -0.210 C  
HETATM   32  O   UNL     2     -10.751  15.106  66.675  1.00  0.00    -0.300 OA 
HETATM   33  H   UNL     2     -10.177  15.672  67.178  1.00  0.00     0.000 HD 
BRANCH  31  34
HETATM   34  C   UNL     2      -8.326  13.743  67.103  1.00  0.00    -0.153 C  
BRANCH  34  35
HETATM   35  C   UNL     2      -7.317  14.133  68.160  1.00  0.00    -0.130 C  
HETATM   36  C   UNL     2      -7.321  15.206  68.966  1.00  0.00    -0.155 C  
BRANCH  36  37
HETATM   37  C   UNL     2      -8.344  16.304  69.027  1.00  0.00    -0.239 C  
BRANCH  37  38
HETATM   38  C   UNL     2      -7.763  17.689  68.733  1.00  0.00    -0.246 C  
BRANCH  38  39
HETATM   39  C   UNL     2      -8.676  18.602  67.928  1.00  0.00    -0.309 C  
HETATM   40  C   UNL     2      -8.567  18.566  66.403  1.00  0.00    -0.256 C  
HETATM   41  O   UNL     2      -8.937  19.628  65.829  1.00  0.00    -0.386 OA 
HETATM   42  O   UNL     2      -8.189  17.497  65.821  1.00  0.00    -0.545 OA 
ENDBRANCH  38  39
ENDBRANCH  37  38
ENDBRANCH  36  37
ENDBRANCH  34  35
ENDBRANCH  31  34
ENDBRANCH  24  25
ENDBRANCH  17  18
ENDBRANCH  16  17
ENDBRANCH   6  16
TORSDOF 9
ENDMDL
MODEL      106
REMARK 921   NORMALIZED FREE ENERGY PREDICTED BY IDOCK:   -5.84 KCAL/MOL
REMARK 922        TOTAL FREE ENERGY PREDICTED BY IDOCK:  -10.84 KCAL/MOL
REMARK 923 INTER-LIGAND FREE ENERGY PREDICTED BY IDOCK:   -9.11 KCAL/MOL
REMARK 924 INTRA-LIGAND FREE ENERGY PREDICTED BY IDOCK:   -1.73 KCAL/MOL
REMARK 927      BINDING AFFINITY PREDICTED BY RF-SCORE:    0.00 PKD
ROOT
HETATM    1  O   UNL     1      -5.130   8.762  64.442  1.00  0.00    -0.042 OA 
HETATM    2  C   UNL     1      -5.978   9.873  64.168  1.00  0.00    -0.120 C  
HETATM    3  H   UNL     1      -4.377   8.742  63.864  1.00  0.00     0.000 HD 
HETATM    4  C   UNL     2      -5.320  16.396  69.742  1.00  0.00    -0.143 C  
HETATM    5  C   UNL     1      -7.211   9.906  65.116  1.00  0.00    -0.133 C  
HETATM    6  C   UNL     2      -6.163  15.156  70.000  1.00  0.00    -0.152 C  
HETATM    7  C   UNL     1      -6.719   9.908  66.590  1.00  0.00    -0.080 C  
HETATM    8  N   UNL     1      -7.928  11.188  64.825  1.00  0.00    -0.176 NA 
HETATM    9  C   UNL     1      -8.253   8.831  64.850  1.00  0.00    -0.159 C  
HETATM   10  H   UNL     1      -9.583   8.484  63.459  1.00  0.00     0.000 HD 
HETATM   11  H   UNL     1      -5.547  11.019  67.731  1.00  0.00     0.000 HD 
HETATM   12  H2  UNL     1      -8.170  11.303  63.841  1.00  0.00     0.000 HD 
HETATM   13  O   UNL     1      -5.848  11.017  66.831  1.00  0.00    -0.061 OA 
HETATM   14  O   UNL     1      -8.932   9.156  63.625  1.00  0.00    -0.139 OA 
HETATM   15  H1  UNL     1      -8.736  11.210  65.447  1.00  0.00     0.000 HD 
ENDROOT
BRANCH   6  16
HETATM   16  C   UNL     2      -7.009  14.726  68.800  1.00  0.00    -0.103 C  
BRANCH  16  17
HETATM   17  C   UNL     2      -8.417  14.231  69.143  1.00  0.00     0.142 C  
BRANCH  17  18
HETATM   18  C   UNL     2      -9.502  15.332  69.182  1.00  0.00    -0.236 C  
HETATM   19  C   UNL     2     -10.979  14.905  69.341  1.00  0.00    -0.271 C  
HETATM   20  C   UNL     2     -11.960  16.066  69.554  1.00  0.00    -0.194 C  
HETATM   21  O   UNL     2     -11.057  14.084  70.511  1.00  0.00    -0.459 OA 
HETATM   22  C   UNL     2     -11.413  14.087  68.157  1.00  0.00    -0.341 C  
HETATM   23  H   UNL     2     -11.964  13.821  70.609  1.00  0.00     0.000 HD 
HETATM   24  C   UNL     2     -11.670  14.523  66.912  1.00  0.00    -0.399 C  
BRANCH  24  25
HETATM   25  C   UNL     2     -12.076  13.650  65.746  1.00  0.00    -0.463 C  
HETATM   26  C   UNL     2     -12.474  14.390  64.448  1.00  0.00    -0.312 C  
HETATM   27  C   UNL     2     -12.525  13.265  63.443  1.00  0.00    -0.281 C  
HETATM   28  O   UNL     2     -11.502  15.304  63.950  1.00  0.00    -0.608 OA 
HETATM   29  H   UNL     2     -11.746  15.759  63.153  1.00  0.00     0.000 HD 
HETATM   30  C   UNL     2     -11.281  12.439  63.768  1.00  0.00    -0.453 C  
HETATM   31  C   UNL     2     -11.010  12.609  65.286  1.00  0.00    -0.320 C  
HETATM   32  O   UNL     2     -11.527  11.106  63.346  1.00  0.00    -0.682 OA 
HETATM   33  H   UNL     2     -10.754  10.593  63.548  1.00  0.00     0.000 HD 
BRANCH  31  34
HETATM   34  C   UNL     2     -11.038  11.302  66.112  1.00  0.00    -0.207 C  
BRANCH  34  35
HETATM   35  C   UNL     2      -9.941  11.207  67.147  1.00  0.00    -0.215 C  
HETATM   36  C   UNL     2     -10.047  10.929  68.456  1.00  0.00    -0.193 C  
BRANCH  36  37
HETATM   37  C   UNL     2     -11.298  10.637  69.234  1.00  0.00    -0.346 C  
BRANCH  37  38
HETATM   38  C   UNL     2     -11.032   9.938  70.569  1.00  0.00    -0.391 C  
BRANCH  38  39
HETATM   39  C   UNL     2     -12.191   9.988  71.553  1.00  0.00    -0.496 C  
HETATM   40  C   UNL     2     -12.573   8.700  72.283  1.00  0.00    -0.395 C  
HETATM   41  O   UNL     2     -13.775   8.654  72.668  1.00  0.00    -0.337 OA 
HETATM   42  O   UNL     2     -11.684   7.815  72.509  1.00  0.00    -0.344 OA 
ENDBRANCH  38  39
ENDBRANCH  37  38
ENDBRANCH  36  37
ENDBRANCH  34  35
ENDBRANCH  31  34
ENDBRANCH  24  25
ENDBRANCH  17  18
ENDBRANCH  16  17
ENDBRANCH   6  16
TORSDOF 9
ENDMDL
MODEL      107
REMARK 921   NORMALIZED FREE ENERGY PREDICTED BY IDOCK:   -5.83 KCAL/MOL
REMARK 922        TOTAL FREE ENERGY PREDICTED BY IDOCK:  -10.82 KCAL/MOL
REMARK 923 INTER-LIGAND FREE ENERGY PREDICTED BY IDOCK:   -9.48 KCAL/MOL
REMARK 924 INTRA-LIGAND FREE ENERGY PREDICTED BY IDOCK:   -1.33 KCAL/MOL
REMARK 927      BINDING AFFINITY PREDICTED BY RF-SCORE:    0.00 PKD
ROOT
HETATM    1  O   UNL     1      -9.719   7.132  74.476  1.00  0.00    -0.439 OA 
HETATM    2  C   UNL     1      -9.225   8.039  73.495  1.00  0.00    -0.243 C  
HETATM    3  H   UNL     1     -10.606   7.347  74.739  1.00  0.00     0.000 HD 
HETATM    4  C   UNL     2      -9.129   4.979  65.452  1.00  0.00    -0.157 C  
HETATM    5  C   UNL     1      -7.771   7.686  73.063  1.00  0.00    -0.107 C  
HETATM    6  C   UNL     2      -8.042   4.682  66.474  1.00  0.00    -0.103 C  
HETATM    7  C   UNL     1      -7.734   6.217  72.559  1.00  0.00    -0.103 C  
HETATM    8  N   UNL     1      -7.434   8.611  71.936  1.00  0.00    -0.232 NA 
HETATM    9  C   UNL     1      -6.705   7.972  74.109  1.00  0.00    -0.119 C  
HETATM   10  H   UNL     1      -5.878   9.576  74.863  1.00  0.00     0.000 HD 
HETATM   11  H   UNL     1      -8.634   5.130  71.175  1.00  0.00     0.000 HD 
HETATM   12  H2  UNL     1      -7.560   9.597  72.168  1.00  0.00     0.000 HD 
HETATM   13  O   UNL     1      -8.657   6.027  71.483  1.00  0.00    -0.130 OA 
HETATM   14  O   UNL     1      -6.544   9.397  74.209  1.00  0.00    -0.343 OA 
HETATM   15  H1  UNL     1      -6.482   8.380  71.653  1.00  0.00     0.000 HD 
ENDROOT
BRANCH   6  16
HETATM   16  C   UNL     2      -7.584   5.911  67.261  1.00  0.00    -0.096 C  
BRANCH  16  17
HETATM   17  C   UNL     2      -8.402   7.182  67.013  1.00  0.00    -0.118 C  
BRANCH  17  18
HETATM   18  C   UNL     2      -8.624   8.066  68.262  1.00  0.00    -0.130 C  
HETATM   19  C   UNL     2     -10.027   8.671  68.495  1.00  0.00    -0.183 C  
HETATM   20  C   UNL     2     -10.202   9.376  69.848  1.00  0.00    -0.247 C  
HETATM   21  O   UNL     2     -10.963   7.587  68.475  1.00  0.00    -0.422 OA 
HETATM   22  C   UNL     2     -10.374   9.620  67.382  1.00  0.00    -0.306 C  
HETATM   23  H   UNL     2     -11.825   7.959  68.617  1.00  0.00     0.000 HD 
HETATM   24  C   UNL     2      -9.876  10.849  67.170  1.00  0.00    -0.213 C  
BRANCH  24  25
HETATM   25  C   UNL     2     -10.239  11.753  66.013  1.00  0.00    -0.265 C  
HETATM   26  C   UNL     2      -9.808  11.266  64.610  1.00  0.00    -0.268 C  
HETATM   27  C   UNL     2     -10.560  12.208  63.701  1.00  0.00    -0.504 C  
HETATM   28  O   UNL     2     -10.253   9.959  64.259  1.00  0.00    -0.404 OA 
HETATM   29  H   UNL     2      -9.988   9.660  63.397  1.00  0.00     0.000 HD 
HETATM   30  C   UNL     2     -11.947  12.286  64.337  1.00  0.00    -0.394 C  
HETATM   31  C   UNL     2     -11.758  12.070  65.862  1.00  0.00    -0.312 C  
HETATM   32  O   UNL     2     -12.518  13.533  63.973  1.00  0.00    -0.645 OA 
HETATM   33  H   UNL     2     -13.381  13.582  64.368  1.00  0.00     0.000 HD 
BRANCH  31  34
HETATM   34  C   UNL     2     -12.227  13.239  66.757  1.00  0.00    -0.340 C  
BRANCH  34  35
HETATM   35  C   UNL     2     -11.110  13.922  67.513  1.00  0.00    -0.302 C  
HETATM   36  C   UNL     2     -10.303  14.912  67.101  1.00  0.00    -0.260 C  
BRANCH  36  37
HETATM   37  C   UNL     2     -10.307  15.605  65.768  1.00  0.00    -0.386 C  
BRANCH  37  38
HETATM   38  C   UNL     2      -9.897  17.077  65.850  1.00  0.00    -0.202 C  
BRANCH  38  39
HETATM   39  C   UNL     2     -10.603  17.873  66.937  1.00  0.00    -0.271 C  
HETATM   40  C   UNL     2     -10.529  19.399  66.875  1.00  0.00    -0.464 C  
HETATM   41  O   UNL     2     -10.669  19.973  67.991  1.00  0.00    -0.299 OA 
HETATM   42  O   UNL     2     -10.400  19.981  65.749  1.00  0.00    -0.479 OA 
ENDBRANCH  38  39
ENDBRANCH  37  38
ENDBRANCH  36  37
ENDBRANCH  34  35
ENDBRANCH  31  34
ENDBRANCH  24  25
ENDBRANCH  17  18
ENDBRANCH  16  17
ENDBRANCH   6  16
TORSDOF 9
ENDMDL
MODEL      108
REMARK 921   NORMALIZED FREE ENERGY PREDICTED BY IDOCK:   -5.82 KCAL/MOL
REMARK 922        TOTAL FREE ENERGY PREDICTED BY IDOCK:  -10.81 KCAL/MOL
REMARK 923 INTER-LIGAND FREE ENERGY PREDICTED BY IDOCK:   -8.20 KCAL/MOL
REMARK 924 INTRA-LIGAND FREE ENERGY PREDICTED BY IDOCK:   -2.61 KCAL/MOL
REMARK 927      BINDING AFFINITY PREDICTED BY RF-SCORE:    0.00 PKD
ROOT
HETATM    1  O   UNL     1      -8.909   7.790  62.488  1.00  0.00    -0.393 OA 
HETATM    2  C   UNL     1      -7.904   8.084  63.453  1.00  0.00    -0.147 C  
HETATM    3  H   UNL     1      -8.861   6.887  62.194  1.00  0.00     0.000 HD 
HETATM    4  C   UNL     2     -10.696   8.463  71.584  1.00  0.00    -0.333 C  
HETATM    5  C   UNL     1      -7.983   9.563  63.934  1.00  0.00    -0.141 C  
HETATM    6  C   UNL     2     -10.822   9.617  70.602  1.00  0.00    -0.386 C  
HETATM    7  C   UNL     1      -9.409   9.843  64.483  1.00  0.00    -0.275 C  
HETATM    8  N   UNL     1      -6.984   9.694  65.042  1.00  0.00    -0.105 NA 
HETATM    9  C   UNL     1      -7.538  10.594  62.909  1.00  0.00    -0.011 C  
HETATM   10  H   UNL     1      -5.832  11.148  62.130  1.00  0.00     0.000 HD 
HETATM   11  H   UNL     1     -10.603   9.105  65.875  1.00  0.00     0.000 HD 
HETATM   12  H2  UNL     1      -6.043   9.404  64.777  1.00  0.00     0.000 HD 
HETATM   13  O   UNL     1      -9.732   8.934  65.540  1.00  0.00    -0.147 OA 
HETATM   14  O   UNL     1      -6.110  10.504  62.771  1.00  0.00    -0.144 OA 
HETATM   15  H1  UNL     1      -7.036  10.663  65.357  1.00  0.00     0.000 HD 
ENDROOT
BRANCH   6  16
HETATM   16  C   UNL     2      -9.551   9.875  69.790  1.00  0.00    -0.261 C  
BRANCH  16  17
HETATM   17  C   UNL     2      -9.623  11.069  68.834  1.00  0.00    -0.174 C  
BRANCH  17  18
HETATM   18  C   UNL     2      -8.367  11.274  67.955  1.00  0.00    -0.136 C  
HETATM   19  C   UNL     2      -7.266  12.236  68.458  1.00  0.00    -0.103 C  
HETATM   20  C   UNL     2      -5.982  12.233  67.616  1.00  0.00    -0.119 C  
HETATM   21  O   UNL     2      -6.893  11.800  69.771  1.00  0.00    -0.325 OA 
HETATM   22  C   UNL     2      -7.804  13.635  68.556  1.00  0.00    -0.131 C  
HETATM   23  H   UNL     2      -6.217  12.391  70.080  1.00  0.00     0.000 HD 
HETATM   24  C   UNL     2      -8.081  14.478  67.547  1.00  0.00    -0.204 C  
BRANCH  24  25
HETATM   25  C   UNL     2      -8.652  15.869  67.701  1.00  0.00    -0.172 C  
HETATM   26  C   UNL     2      -7.732  16.909  68.382  1.00  0.00    -0.219 C  
HETATM   27  C   UNL     2      -8.460  18.204  68.111  1.00  0.00    -0.282 C  
HETATM   28  O   UNL     2      -6.447  17.062  67.788  1.00  0.00    -0.134 OA 
HETATM   29  H   UNL     2      -5.881  17.701  68.206  1.00  0.00     0.000 HD 
HETATM   30  C   UNL     2      -8.893  18.072  66.652  1.00  0.00    -0.266 C  
HETATM   31  C   UNL     2      -9.102  16.559  66.377  1.00  0.00    -0.332 C  
HETATM   32  O   UNL     2     -10.044  18.882  66.469  1.00  0.00    -0.346 OA 
HETATM   33  H   UNL     2     -10.312  18.800  65.561  1.00  0.00     0.000 HD 
BRANCH  31  34
HETATM   34  C   UNL     2     -10.529  16.160  65.937  1.00  0.00    -0.366 C  
BRANCH  34  35
HETATM   35  C   UNL     2     -10.564  15.127  64.834  1.00  0.00    -0.392 C  
HETATM   36  C   UNL     2     -10.826  13.814  64.924  1.00  0.00    -0.398 C  
BRANCH  36  37
HETATM   37  C   UNL     2     -11.158  13.028  66.160  1.00  0.00    -0.311 C  
BRANCH  37  38
HETATM   38  C   UNL     2     -12.160  13.732  67.076  1.00  0.00    -0.436 C  
BRANCH  38  39
HETATM   39  C   UNL     2     -11.916  13.523  68.563  1.00  0.00    -0.379 C  
HETATM   40  C   UNL     2     -11.687  14.756  69.437  1.00  0.00    -0.323 C  
HETATM   41  O   UNL     2     -11.020  14.535  70.487  1.00  0.00    -0.043 OA 
HETATM   42  O   UNL     2     -12.209  15.871  69.107  1.00  0.00    -0.264 OA 
ENDBRANCH  38  39
ENDBRANCH  37  38
ENDBRANCH  36  37
ENDBRANCH  34  35
ENDBRANCH  31  34
ENDBRANCH  24  25
ENDBRANCH  17  18
ENDBRANCH  16  17
ENDBRANCH   6  16
TORSDOF 9
ENDMDL
MODEL      109
REMARK 921   NORMALIZED FREE ENERGY PREDICTED BY IDOCK:   -5.82 KCAL/MOL
REMARK 922        TOTAL FREE ENERGY PREDICTED BY IDOCK:  -10.81 KCAL/MOL
REMARK 923 INTER-LIGAND FREE ENERGY PREDICTED BY IDOCK:   -9.55 KCAL/MOL
REMARK 924 INTRA-LIGAND FREE ENERGY PREDICTED BY IDOCK:   -1.26 KCAL/MOL
REMARK 927      BINDING AFFINITY PREDICTED BY RF-SCORE:    0.00 PKD
ROOT
HETATM    1  O   UNL     1     -13.780   6.536  72.313  1.00  0.00    -0.509 OA 
HETATM    2  C   UNL     1     -13.174   7.116  71.162  1.00  0.00    -0.191 C  
HETATM    3  H   UNL     1     -14.410   5.865  72.079  1.00  0.00     0.000 HD 
HETATM    4  C   UNL     2      -5.164   4.425  69.538  1.00  0.00    -0.007 C  
HETATM    5  C   UNL     1     -12.142   8.216  71.545  1.00  0.00    -0.298 C  
HETATM    6  C   UNL     2      -5.492   5.511  70.551  1.00  0.00    -0.008 C  
HETATM    7  C   UNL     1     -11.084   7.606  72.507  1.00  0.00    -0.336 C  
HETATM    8  N   UNL     1     -11.479   8.630  70.269  1.00  0.00    -0.448 NA 
HETATM    9  C   UNL     1     -12.747   9.503  72.084  1.00  0.00    -0.362 C  
HETATM   10  H   UNL     1     -13.757  10.998  71.328  1.00  0.00     0.000 HD 
HETATM   11  H   UNL     1      -9.797   6.105  72.491  1.00  0.00     0.000 HD 
HETATM   12  H2  UNL     1     -12.137   8.925  69.547  1.00  0.00     0.000 HD 
HETATM   13  O   UNL     1     -10.443   6.477  71.904  1.00  0.00    -0.203 OA 
HETATM   14  O   UNL     1     -13.379  10.193  70.992  1.00  0.00    -0.387 OA 
HETATM   15  H1  UNL     1     -10.802   9.350  70.520  1.00  0.00     0.000 HD 
ENDROOT
BRANCH   6  16
HETATM   16  C   UNL     2      -6.504   6.540  70.043  1.00  0.00    -0.040 C  
BRANCH  16  17
HETATM   17  C   UNL     2      -7.192   6.176  68.724  1.00  0.00    -0.084 C  
BRANCH  17  18
HETATM   18  C   UNL     2      -8.725   6.383  68.713  1.00  0.00    -0.122 C  
HETATM   19  C   UNL     2      -9.479   6.231  67.371  1.00  0.00    -0.115 C  
HETATM   20  C   UNL     2     -11.009   6.270  67.490  1.00  0.00    -0.444 C  
HETATM   21  O   UNL     2      -9.143   4.942  66.843  1.00  0.00    -0.116 OA 
HETATM   22  C   UNL     2      -9.020   7.278  66.396  1.00  0.00    -0.184 C  
HETATM   23  H   UNL     2      -9.605   4.849  66.019  1.00  0.00     0.000 HD 
HETATM   24  C   UNL     2      -9.307   8.591  66.411  1.00  0.00    -0.273 C  
BRANCH  24  25
HETATM   25  C   UNL     2      -8.792   9.610  65.419  1.00  0.00    -0.204 C  
HETATM   26  C   UNL     2      -8.010   9.046  64.210  1.00  0.00    -0.142 C  
HETATM   27  C   UNL     2      -7.911  10.250  63.306  1.00  0.00    -0.139 C  
HETATM   28  O   UNL     2      -8.697   8.055  63.453  1.00  0.00    -0.381 OA 
HETATM   29  H   UNL     2      -8.217   7.708  62.710  1.00  0.00     0.000 HD 
HETATM   30  C   UNL     2      -9.307  10.868  63.379  1.00  0.00    -0.290 C  
HETATM   31  C   UNL     2      -9.877  10.532  64.783  1.00  0.00    -0.387 C  
HETATM   32  O   UNL     2      -9.180  12.253  63.098  1.00  0.00    -0.576 OA 
HETATM   33  H   UNL     2     -10.048  12.637  63.143  1.00  0.00     0.000 HD 
BRANCH  31  34
HETATM   34  C   UNL     2     -10.230  11.753  65.661  1.00  0.00    -0.284 C  
BRANCH  34  35
HETATM   35  C   UNL     2     -11.671  12.197  65.544  1.00  0.00    -0.384 C  
HETATM   36  C   UNL     2     -12.194  13.411  65.775  1.00  0.00    -0.507 C  
BRANCH  36  37
HETATM   37  C   UNL     2     -11.472  14.654  66.212  1.00  0.00    -0.351 C  
BRANCH  37  38
HETATM   38  C   UNL     2     -11.005  14.603  67.667  1.00  0.00    -0.296 C  
BRANCH  38  39
HETATM   39  C   UNL     2     -11.873  13.753  68.583  1.00  0.00    -0.409 C  
HETATM   40  C   UNL     2     -12.153  14.271  69.995  1.00  0.00    -0.340 C  
HETATM   41  O   UNL     2     -12.419  13.369  70.838  1.00  0.00    -0.361 OA 
HETATM   42  O   UNL     2     -12.164  15.525  70.217  1.00  0.00    -0.365 OA 
ENDBRANCH  38  39
ENDBRANCH  37  38
ENDBRANCH  36  37
ENDBRANCH  34  35
ENDBRANCH  31  34
ENDBRANCH  24  25
ENDBRANCH  17  18
ENDBRANCH  16  17
ENDBRANCH   6  16
TORSDOF 9
ENDMDL
MODEL      110
REMARK 921   NORMALIZED FREE ENERGY PREDICTED BY IDOCK:   -5.81 KCAL/MOL
REMARK 922        TOTAL FREE ENERGY PREDICTED BY IDOCK:  -10.80 KCAL/MOL
REMARK 923 INTER-LIGAND FREE ENERGY PREDICTED BY IDOCK:   -9.58 KCAL/MOL
REMARK 924 INTRA-LIGAND FREE ENERGY PREDICTED BY IDOCK:   -1.22 KCAL/MOL
REMARK 927      BINDING AFFINITY PREDICTED BY RF-SCORE:    0.00 PKD
ROOT
HETATM    1  O   UNL     1     -13.900   6.548  72.326  1.00  0.00    -0.510 OA 
HETATM    2  C   UNL     1     -13.265   7.126  71.189  1.00  0.00    -0.191 C  
HETATM    3  H   UNL     1     -14.548   5.901  72.076  1.00  0.00     0.000 HD 
HETATM    4  C   UNL     2      -5.328   4.206  69.597  1.00  0.00    -0.008 C  
HETATM    5  C   UNL     1     -12.202   8.186  71.599  1.00  0.00    -0.308 C  
HETATM    6  C   UNL     2      -5.632   5.288  70.623  1.00  0.00    -0.008 C  
HETATM    7  C   UNL     1     -11.173   7.529  72.560  1.00  0.00    -0.331 C  
HETATM    8  N   UNL     1     -11.515   8.598  70.335  1.00  0.00    -0.426 NA 
HETATM    9  C   UNL     1     -12.771   9.484  72.151  1.00  0.00    -0.362 C  
HETATM   10  H   UNL     1     -13.727  11.021  71.410  1.00  0.00     0.000 HD 
HETATM   11  H   UNL     1      -9.934   5.988  72.533  1.00  0.00     0.000 HD 
HETATM   12  H2  UNL     1     -12.156   8.925  69.612  1.00  0.00     0.000 HD 
HETATM   13  O   UNL     1     -10.563   6.390  71.946  1.00  0.00    -0.207 OA 
HETATM   14  O   UNL     1     -13.371  10.210  71.065  1.00  0.00    -0.387 OA 
HETATM   15  H1  UNL     1     -10.818   9.293  70.603  1.00  0.00     0.000 HD 
ENDROOT
BRANCH   6  16
HETATM   16  C   UNL     2      -6.606   6.355  70.122  1.00  0.00    -0.045 C  
BRANCH  16  17
HETATM   17  C   UNL     2      -6.972   6.254  68.638  1.00  0.00    -0.080 C  
BRANCH  17  18
HETATM   18  C   UNL     2      -8.489   6.220  68.344  1.00  0.00    -0.115 C  
HETATM   19  C   UNL     2      -8.954   5.855  66.915  1.00  0.00    -0.115 C  
HETATM   20  C   UNL     2     -10.471   5.666  66.766  1.00  0.00    -0.353 C  
HETATM   21  O   UNL     2      -8.351   4.600  66.583  1.00  0.00    -0.107 OA 
HETATM   22  C   UNL     2      -8.475   6.888  65.934  1.00  0.00    -0.147 C  
HETATM   23  H   UNL     2      -8.636   4.376  65.705  1.00  0.00     0.000 HD 
HETATM   24  C   UNL     2      -8.940   8.138  65.770  1.00  0.00    -0.165 C  
BRANCH  24  25
HETATM   25  C   UNL     2      -8.398   9.149  64.784  1.00  0.00    -0.176 C  
HETATM   26  C   UNL     2      -7.785   8.573  63.487  1.00  0.00    -0.142 C  
HETATM   27  C   UNL     2      -7.628   9.808  62.634  1.00  0.00    -0.122 C  
HETATM   28  O   UNL     2      -8.638   7.704  62.748  1.00  0.00    -0.390 OA 
HETATM   29  H   UNL     2      -8.262   7.350  61.951  1.00  0.00     0.000 HD 
HETATM   30  C   UNL     2      -8.935  10.567  62.857  1.00  0.00    -0.260 C  
HETATM   31  C   UNL     2      -9.422  10.215  64.288  1.00  0.00    -0.366 C  
HETATM   32  O   UNL     2      -8.679  11.944  62.630  1.00  0.00    -0.555 OA 
HETATM   33  H   UNL     2      -9.492  12.415  62.769  1.00  0.00     0.000 HD 
BRANCH  31  34
HETATM   34  C   UNL     2      -9.565  11.417  65.250  1.00  0.00    -0.256 C  
BRANCH  34  35
HETATM   35  C   UNL     2     -10.928  11.529  65.894  1.00  0.00    -0.301 C  
HETATM   36  C   UNL     2     -11.348  12.408  66.817  1.00  0.00    -0.391 C  
BRANCH  36  37
HETATM   37  C   UNL     2     -10.561  13.519  67.451  1.00  0.00    -0.254 C  
BRANCH  37  38
HETATM   38  C   UNL     2     -10.852  14.892  66.841  1.00  0.00    -0.319 C  
BRANCH  38  39
HETATM   39  C   UNL     2     -11.142  14.874  65.348  1.00  0.00    -0.366 C  
HETATM   40  C   UNL     2     -11.316  16.214  64.632  1.00  0.00    -0.282 C  
HETATM   41  O   UNL     2     -12.019  16.158  63.584  1.00  0.00    -0.826 OA 
HETATM   42  O   UNL     2     -10.720  17.250  65.075  1.00  0.00    -0.708 OA 
ENDBRANCH  38  39
ENDBRANCH  37  38
ENDBRANCH  36  37
ENDBRANCH  34  35
ENDBRANCH  31  34
ENDBRANCH  24  25
ENDBRANCH  17  18
ENDBRANCH  16  17
ENDBRANCH   6  16
TORSDOF 9
ENDMDL
MODEL      111
REMARK 921   NORMALIZED FREE ENERGY PREDICTED BY IDOCK:   -5.79 KCAL/MOL
REMARK 922        TOTAL FREE ENERGY PREDICTED BY IDOCK:  -10.76 KCAL/MOL
REMARK 923 INTER-LIGAND FREE ENERGY PREDICTED BY IDOCK:   -8.95 KCAL/MOL
REMARK 924 INTRA-LIGAND FREE ENERGY PREDICTED BY IDOCK:   -1.81 KCAL/MOL
REMARK 927      BINDING AFFINITY PREDICTED BY RF-SCORE:    0.00 PKD
ROOT
HETATM    1  O   UNL     1      -7.328  19.014  67.227  1.00  0.00    -0.222 OA 
HETATM    2  C   UNL     1      -8.215  18.180  67.966  1.00  0.00    -0.260 C  
HETATM    3  H   UNL     1      -6.420  18.846  67.448  1.00  0.00     0.000 HD 
HETATM    4  C   UNL     2     -11.510  11.577  63.538  1.00  0.00    -0.334 C  
HETATM    5  C   UNL     1      -9.703  18.456  67.602  1.00  0.00    -0.293 C  
HETATM    6  C   UNL     2     -12.067  12.991  63.471  1.00  0.00    -0.617 C  
HETATM    7  C   UNL     1      -9.893  18.283  66.070  1.00  0.00    -0.156 C  
HETATM    8  N   UNL     1     -10.508  17.422  68.327  1.00  0.00    -0.372 NA 
HETATM    9  C   UNL     1     -10.253  19.779  68.113  1.00  0.00    -0.452 C  
HETATM   10  H   UNL     1     -10.753  20.507  69.858  1.00  0.00     0.000 HD 
HETATM   11  H   UNL     1      -9.605  16.868  64.719  1.00  0.00     0.000 HD 
HETATM   12  H2  UNL     1     -10.333  17.402  69.332  1.00  0.00     0.000 HD 
HETATM   13  O   UNL     1      -9.489  16.974  65.655  1.00  0.00    -0.526 OA 
HETATM   14  O   UNL     1     -10.409  19.681  69.539  1.00  0.00    -0.161 OA 
HETATM   15  H1  UNL     1     -11.484  17.603  68.089  1.00  0.00     0.000 HD 
ENDROOT
BRANCH   6  16
HETATM   16  C   UNL     2     -12.203  13.664  64.838  1.00  0.00    -0.447 C  
BRANCH  16  17
HETATM   17  C   UNL     2     -11.830  12.784  66.035  1.00  0.00    -0.495 C  
BRANCH  17  18
HETATM   18  C   UNL     2     -11.128  13.529  67.194  1.00  0.00    -0.308 C  
HETATM   19  C   UNL     2      -9.589  13.432  67.306  1.00  0.00    -0.234 C  
HETATM   20  C   UNL     2      -8.967  14.348  68.370  1.00  0.00    -0.188 C  
HETATM   21  O   UNL     2      -9.048  13.844  66.046  1.00  0.00    -0.487 OA 
HETATM   22  C   UNL     2      -9.175  12.009  67.559  1.00  0.00    -0.180 C  
HETATM   23  H   UNL     2      -8.103  13.784  66.114  1.00  0.00     0.000 HD 
HETATM   24  C   UNL     2      -9.305  11.310  68.699  1.00  0.00    -0.167 C  
BRANCH  24  25
HETATM   25  C   UNL     2      -8.898   9.867  68.891  1.00  0.00    -0.145 C  
HETATM   26  C   UNL     2      -7.683   9.387  68.063  1.00  0.00    -0.084 C  
HETATM   27  C   UNL     2      -7.375   8.051  68.694  1.00  0.00    -0.089 C  
HETATM   28  O   UNL     2      -6.500  10.165  68.218  1.00  0.00    -0.053 OA 
HETATM   29  H   UNL     2      -5.753   9.871  67.710  1.00  0.00     0.000 HD 
HETATM   30  C   UNL     2      -7.505   8.325  70.192  1.00  0.00    -0.060 C  
HETATM   31  C   UNL     2      -8.555   9.456  70.355  1.00  0.00    -0.266 C  
HETATM   32  O   UNL     2      -7.836   7.100  70.827  1.00  0.00    -0.093 OA 
HETATM   33  H   UNL     2      -7.917   7.271  71.758  1.00  0.00     0.000 HD 
BRANCH  31  34
HETATM   34  C   UNL     2      -9.800   9.084  71.192  1.00  0.00    -0.371 C  
BRANCH  34  35
HETATM   35  C   UNL     2     -10.978   8.619  70.366  1.00  0.00    -0.256 C  
HETATM   36  C   UNL     2     -11.513   7.390  70.289  1.00  0.00    -0.206 C  
BRANCH  36  37
HETATM   37  C   UNL     2     -11.074   6.151  71.014  1.00  0.00    -0.359 C  
BRANCH  37  38
HETATM   38  C   UNL     2     -10.121   5.276  70.197  1.00  0.00    -0.333 C  
BRANCH  38  39
HETATM   39  C   UNL     2     -10.219   5.467  68.691  1.00  0.00    -0.261 C  
HETATM   40  C   UNL     2      -9.576   4.414  67.787  1.00  0.00    -0.160 C  
HETATM   41  O   UNL     2      -9.245   4.838  66.645  1.00  0.00    -0.120 OA 
HETATM   42  O   UNL     2      -9.475   3.210  68.194  1.00  0.00    -0.197 OA 
ENDBRANCH  38  39
ENDBRANCH  37  38
ENDBRANCH  36  37
ENDBRANCH  34  35
ENDBRANCH  31  34
ENDBRANCH  24  25
ENDBRANCH  17  18
ENDBRANCH  16  17
ENDBRANCH   6  16
TORSDOF 9
ENDMDL
MODEL      112
REMARK 921   NORMALIZED FREE ENERGY PREDICTED BY IDOCK:   -5.79 KCAL/MOL
REMARK 922        TOTAL FREE ENERGY PREDICTED BY IDOCK:  -10.76 KCAL/MOL
REMARK 923 INTER-LIGAND FREE ENERGY PREDICTED BY IDOCK:   -8.54 KCAL/MOL
REMARK 924 INTRA-LIGAND FREE ENERGY PREDICTED BY IDOCK:   -2.22 KCAL/MOL
REMARK 927      BINDING AFFINITY PREDICTED BY RF-SCORE:    0.00 PKD
ROOT
HETATM    1  O   UNL     1      -6.455   8.276  72.654  1.00  0.00    -0.076 OA 
HETATM    2  C   UNL     1      -7.227   8.805  71.581  1.00  0.00    -0.071 C  
HETATM    3  H   UNL     1      -6.999   8.033  73.394  1.00  0.00     0.000 HD 
HETATM    4  C   UNL     2      -8.489   3.393  65.011  1.00  0.00    -0.098 C  
HETATM    5  C   UNL     1      -6.336   9.202  70.369  1.00  0.00    -0.048 C  
HETATM    6  C   UNL     2      -7.221   4.214  65.187  1.00  0.00    -0.071 C  
HETATM    7  C   UNL     1      -5.504   7.967  69.924  1.00  0.00    -0.023 C  
HETATM    8  N   UNL     1      -7.274   9.595  69.271  1.00  0.00    -0.065 NA 
HETATM    9  C   UNL     1      -5.476  10.439  70.583  1.00  0.00    -0.081 C  
HETATM   10  H   UNL     1      -5.802  12.362  70.718  1.00  0.00     0.000 HD 
HETATM   11  H   UNL     1      -5.854   6.114  69.330  1.00  0.00     0.000 HD 
HETATM   12  H2  UNL     1      -7.936  10.323  69.544  1.00  0.00     0.000 HD 
HETATM   13  O   UNL     1      -6.362   6.869  69.602  1.00  0.00    -0.036 OA 
HETATM   14  O   UNL     1      -6.338  11.590  70.584  1.00  0.00    -0.287 OA 
HETATM   15  H1  UNL     1      -6.690   9.855  68.477  1.00  0.00     0.000 HD 
ENDROOT
BRANCH   6  16
HETATM   16  C   UNL     2      -7.481   5.674  65.564  1.00  0.00    -0.074 C  
BRANCH  16  17
HETATM   17  C   UNL     2      -8.927   5.997  65.948  1.00  0.00    -0.144 C  
BRANCH  17  18
HETATM   18  C   UNL     2      -9.088   6.779  67.272  1.00  0.00    -0.121 C  
HETATM   19  C   UNL     2     -10.378   7.604  67.489  1.00  0.00    -0.257 C  
HETATM   20  C   UNL     2     -10.531   8.192  68.899  1.00  0.00    -0.202 C  
HETATM   21  O   UNL     2     -11.484   6.715  67.294  1.00  0.00    -0.766 OA 
HETATM   22  C   UNL     2     -10.467   8.704  66.469  1.00  0.00    -0.127 C  
HETATM   23  H   UNL     2     -12.276   7.221  67.426  1.00  0.00     0.000 HD 
HETATM   24  C   UNL     2      -9.747   9.838  66.424  1.00  0.00    -0.275 C  
BRANCH  24  25
HETATM   25  C   UNL     2      -9.857  10.901  65.354  1.00  0.00    -0.308 C  
HETATM   26  C   UNL     2      -9.181  10.578  64.002  1.00  0.00    -0.253 C  
HETATM   27  C   UNL     2      -9.718  11.668  63.108  1.00  0.00    -0.385 C  
HETATM   28  O   UNL     2      -9.588   9.353  63.399  1.00  0.00    -0.425 OA 
HETATM   29  H   UNL     2      -9.172   9.154  62.568  1.00  0.00     0.000 HD 
HETATM   30  C   UNL     2     -11.199  11.739  63.481  1.00  0.00    -0.408 C  
HETATM   31  C   UNL     2     -11.310  11.317  64.970  1.00  0.00    -0.003 C  
HETATM   32  O   UNL     2     -11.654  13.051  63.191  1.00  0.00    -0.781 OA 
HETATM   33  H   UNL     2     -12.574  13.095  63.423  1.00  0.00     0.000 HD 
BRANCH  31  34
HETATM   34  C   UNL     2     -11.907  12.385  65.915  1.00  0.00    -0.467 C  
BRANCH  34  35
HETATM   35  C   UNL     2     -10.875  13.281  66.560  1.00  0.00    -0.288 C  
HETATM   36  C   UNL     2     -10.888  13.824  67.787  1.00  0.00    -0.262 C  
BRANCH  36  37
HETATM   37  C   UNL     2     -11.944  13.677  68.845  1.00  0.00    -0.392 C  
BRANCH  37  38
HETATM   38  C   UNL     2     -11.556  12.699  69.956  1.00  0.00    -0.199 C  
BRANCH  38  39
HETATM   39  C   UNL     2     -12.172  11.314  69.826  1.00  0.00    -0.343 C  
HETATM   40  C   UNL     2     -12.760  10.666  71.080  1.00  0.00    -0.422 C  
HETATM   41  O   UNL     2     -12.788   9.403  71.051  1.00  0.00    -0.277 OA 
HETATM   42  O   UNL     2     -13.224  11.399  72.013  1.00  0.00    -0.503 OA 
ENDBRANCH  38  39
ENDBRANCH  37  38
ENDBRANCH  36  37
ENDBRANCH  34  35
ENDBRANCH  31  34
ENDBRANCH  24  25
ENDBRANCH  17  18
ENDBRANCH  16  17
ENDBRANCH   6  16
TORSDOF 9
ENDMDL
MODEL      113
REMARK 921   NORMALIZED FREE ENERGY PREDICTED BY IDOCK:   -5.79 KCAL/MOL
REMARK 922        TOTAL FREE ENERGY PREDICTED BY IDOCK:  -10.76 KCAL/MOL
REMARK 923 INTER-LIGAND FREE ENERGY PREDICTED BY IDOCK:   -8.92 KCAL/MOL
REMARK 924 INTRA-LIGAND FREE ENERGY PREDICTED BY IDOCK:   -1.84 KCAL/MOL
REMARK 927      BINDING AFFINITY PREDICTED BY RF-SCORE:    0.00 PKD
ROOT
HETATM    1  O   UNL     1     -11.575   8.003  71.256  1.00  0.00    -0.267 OA 
HETATM    2  C   UNL     1     -12.374   8.739  70.335  1.00  0.00     0.418 C  
HETATM    3  H   UNL     1     -11.922   7.131  71.404  1.00  0.00     0.000 HD 
HETATM    4  C   UNL     2      -9.102   9.371  62.401  1.00  0.00    -0.207 C  
HETATM    5  C   UNL     1     -11.805  10.168  70.092  1.00  0.00    -0.222 C  
HETATM    6  C   UNL     2      -8.683  10.271  63.553  1.00  0.00    -0.210 C  
HETATM    7  C   UNL     1     -10.332  10.053  69.612  1.00  0.00    -0.247 C  
HETATM    8  N   UNL     1     -12.641  10.770  69.005  1.00  0.00    -0.654 NA 
HETATM    9  C   UNL     1     -11.967  11.129  71.259  1.00  0.00     0.054 C  
HETATM   10  H   UNL     1     -13.458  12.081  72.093  1.00  0.00     0.000 HD 
HETATM   11  H   UNL     1      -9.345   9.181  68.138  1.00  0.00     0.000 HD 
HETATM   12  H2  UNL     1     -13.640  10.761  69.209  1.00  0.00     0.000 HD 
HETATM   13  O   UNL     1     -10.245   9.250  68.431  1.00  0.00    -0.187 OA 
HETATM   14  O   UNL     1     -13.357  11.481  71.363  1.00  0.00    -0.211 OA 
HETATM   15  H1  UNL     1     -12.268  11.706  68.846  1.00  0.00     0.000 HD 
ENDROOT
BRANCH   6  16
HETATM   16  C   UNL     2      -9.856  10.802  64.378  1.00  0.00    -0.374 C  
BRANCH  16  17
HETATM   17  C   UNL     2     -10.066  12.317  64.307  1.00  0.00    -0.311 C  
BRANCH  17  18
HETATM   18  C   UNL     2     -11.295  12.840  65.086  1.00  0.00    -0.346 C  
HETATM   19  C   UNL     2     -11.939  14.172  64.638  1.00  0.00    -0.445 C  
HETATM   20  C   UNL     2     -13.257  14.515  65.347  1.00  0.00     0.333 C  
HETATM   21  O   UNL     2     -12.246  14.044  63.245  1.00  0.00    -1.071 OA 
HETATM   22  C   UNL     2     -10.964  15.303  64.808  1.00  0.00    -0.403 C  
HETATM   23  H   UNL     2     -12.641  14.862  62.969  1.00  0.00     0.000 HD 
HETATM   24  C   UNL     2     -10.570  15.877  65.957  1.00  0.00    -0.331 C  
BRANCH  24  25
HETATM   25  C   UNL     2      -9.560  16.996  66.074  1.00  0.00    -0.215 C  
HETATM   26  C   UNL     2     -10.139  18.425  66.194  1.00  0.00    -0.360 C  
HETATM   27  C   UNL     2      -8.922  19.229  66.582  1.00  0.00    -0.369 C  
HETATM   28  O   UNL     2     -11.074  18.612  67.252  1.00  0.00    -0.286 OA 
HETATM   29  H   UNL     2     -11.430  19.490  67.326  1.00  0.00     0.000 HD 
HETATM   30  C   UNL     2      -8.231  18.352  67.625  1.00  0.00    -0.254 C  
HETATM   31  C   UNL     2      -8.567  16.879  67.270  1.00  0.00    -0.212 C  
HETATM   32  O   UNL     2      -6.849  18.674  67.611  1.00  0.00    -0.203 OA 
HETATM   33  H   UNL     2      -6.419  18.128  68.260  1.00  0.00     0.000 HD 
BRANCH  31  34
HETATM   34  C   UNL     2      -7.347  15.980  66.964  1.00  0.00    -0.258 C  
BRANCH  34  35
HETATM   35  C   UNL     2      -6.985  15.034  68.086  1.00  0.00    -0.130 C  
HETATM   36  C   UNL     2      -7.793  14.236  68.802  1.00  0.00    -0.128 C  
BRANCH  36  37
HETATM   37  C   UNL     2      -9.280  14.077  68.668  1.00  0.00    -0.119 C  
BRANCH  37  38
HETATM   38  C   UNL     2     -10.075  15.055  69.535  1.00  0.00    -0.176 C  
BRANCH  38  39
HETATM   39  C   UNL     2     -11.574  14.800  69.566  1.00  0.00    -0.339 C  
HETATM   40  C   UNL     2     -12.366  15.303  70.775  1.00  0.00    -0.380 C  
HETATM   41  O   UNL     2     -13.433  14.667  71.001  1.00  0.00    -0.380 OA 
HETATM   42  O   UNL     2     -11.958  16.326  71.416  1.00  0.00    -0.429 OA 
ENDBRANCH  38  39
ENDBRANCH  37  38
ENDBRANCH  36  37
ENDBRANCH  34  35
ENDBRANCH  31  34
ENDBRANCH  24  25
ENDBRANCH  17  18
ENDBRANCH  16  17
ENDBRANCH   6  16
TORSDOF 9
ENDMDL
MODEL      114
REMARK 921   NORMALIZED FREE ENERGY PREDICTED BY IDOCK:   -5.78 KCAL/MOL
REMARK 922        TOTAL FREE ENERGY PREDICTED BY IDOCK:  -10.75 KCAL/MOL
REMARK 923 INTER-LIGAND FREE ENERGY PREDICTED BY IDOCK:   -9.19 KCAL/MOL
REMARK 924 INTRA-LIGAND FREE ENERGY PREDICTED BY IDOCK:   -1.56 KCAL/MOL
REMARK 927      BINDING AFFINITY PREDICTED BY RF-SCORE:    0.00 PKD
ROOT
HETATM    1  O   UNL     1      -5.814  10.917  71.558  1.00  0.00    -0.338 OA 
HETATM    2  C   UNL     1      -5.676   9.529  71.272  1.00  0.00    -0.074 C  
HETATM    3  H   UNL     1      -4.978  11.320  71.761  1.00  0.00     0.000 HD 
HETATM    4  C   UNL     2      -6.087   7.489  62.922  1.00  0.00    -0.055 C  
HETATM    5  C   UNL     1      -7.046   8.869  70.939  1.00  0.00    -0.085 C  
HETATM    6  C   UNL     2      -7.315   7.717  63.790  1.00  0.00    -0.093 C  
HETATM    7  C   UNL     1      -7.705   9.636  69.760  1.00  0.00    -0.133 C  
HETATM    8  N   UNL     1      -6.741   7.465  70.517  1.00  0.00    -0.047 NA 
HETATM    9  C   UNL     1      -7.983   8.704  72.126  1.00  0.00    -0.035 C  
HETATM   10  H   UNL     1      -8.045   7.561  73.712  1.00  0.00     0.000 HD 
HETATM   11  H   UNL     1      -7.245  10.117  67.898  1.00  0.00     0.000 HD 
HETATM   12  H2  UNL     1      -6.196   6.944  71.203  1.00  0.00     0.000 HD 
HETATM   13  O   UNL     1      -6.842   9.649  68.619  1.00  0.00    -0.055 OA 
HETATM   14  O   UNL     1      -7.460   7.665  72.971  1.00  0.00    -0.086 OA 
HETATM   15  H1  UNL     1      -7.639   7.033  70.298  1.00  0.00     0.000 HD 
ENDROOT
BRANCH   6  16
HETATM   16  C   UNL     2      -7.239   7.034  65.156  1.00  0.00    -0.074 C  
BRANCH  16  17
HETATM   17  C   UNL     2      -8.588   6.608  65.745  1.00  0.00    -0.147 C  
BRANCH  17  18
HETATM   18  C   UNL     2      -8.927   7.242  67.114  1.00  0.00    -0.132 C  
HETATM   19  C   UNL     2     -10.319   7.890  67.300  1.00  0.00    -0.307 C  
HETATM   20  C   UNL     2     -10.634   8.324  68.739  1.00  0.00    -0.152 C  
HETATM   21  O   UNL     2     -11.294   6.902  66.949  1.00  0.00    -0.681 OA 
HETATM   22  C   UNL     2     -10.473   9.062  66.373  1.00  0.00    -0.110 C  
HETATM   23  H   UNL     2     -12.149   7.301  67.063  1.00  0.00     0.000 HD 
HETATM   24  C   UNL     2      -9.893  10.270  66.477  1.00  0.00    -0.265 C  
BRANCH  24  25
HETATM   25  C   UNL     2     -10.060  11.408  65.496  1.00  0.00    -0.293 C  
HETATM   26  C   UNL     2      -9.499  11.168  64.075  1.00  0.00    -0.214 C  
HETATM   27  C   UNL     2     -10.078  12.328  63.303  1.00  0.00    -0.180 C  
HETATM   28  O   UNL     2      -9.980   9.996  63.423  1.00  0.00    -0.494 OA 
HETATM   29  H   UNL     2      -9.636   9.849  62.550  1.00  0.00     0.000 HD 
HETATM   30  C   UNL     2     -11.523  12.400  63.796  1.00  0.00    -0.467 C  
HETATM   31  C   UNL     2     -11.528  11.877  65.257  1.00  0.00    -0.313 C  
HETATM   32  O   UNL     2     -11.967  13.738  63.634  1.00  0.00    -0.685 OA 
HETATM   33  H   UNL     2     -12.866  13.782  63.941  1.00  0.00     0.000 HD 
BRANCH  31  34
HETATM   34  C   UNL     2     -12.025  12.886  66.317  1.00  0.00    -0.472 C  
BRANCH  34  35
HETATM   35  C   UNL     2     -10.990  13.910  66.722  1.00  0.00    -0.301 C  
HETATM   36  C   UNL     2     -10.738  14.408  67.943  1.00  0.00    -0.246 C  
BRANCH  36  37
HETATM   37  C   UNL     2     -11.427  14.068  69.233  1.00  0.00    -0.344 C  
BRANCH  37  38
HETATM   38  C   UNL     2     -11.408  15.211  70.250  1.00  0.00    -0.315 C  
BRANCH  38  39
HETATM   39  C   UNL     2     -12.776  15.612  70.779  1.00  0.00    -0.483 C  
HETATM   40  C   UNL     2     -12.911  15.916  72.272  1.00  0.00    -0.430 C  
HETATM   41  O   UNL     2     -14.073  15.749  72.736  1.00  0.00    -0.576 OA 
HETATM   42  O   UNL     2     -11.907  16.361  72.919  1.00  0.00    -0.514 OA 
ENDBRANCH  38  39
ENDBRANCH  37  38
ENDBRANCH  36  37
ENDBRANCH  34  35
ENDBRANCH  31  34
ENDBRANCH  24  25
ENDBRANCH  17  18
ENDBRANCH  16  17
ENDBRANCH   6  16
TORSDOF 9
ENDMDL
MODEL      115
REMARK 921   NORMALIZED FREE ENERGY PREDICTED BY IDOCK:   -5.78 KCAL/MOL
REMARK 922        TOTAL FREE ENERGY PREDICTED BY IDOCK:  -10.75 KCAL/MOL
REMARK 923 INTER-LIGAND FREE ENERGY PREDICTED BY IDOCK:   -8.12 KCAL/MOL
REMARK 924 INTRA-LIGAND FREE ENERGY PREDICTED BY IDOCK:   -2.63 KCAL/MOL
REMARK 927      BINDING AFFINITY PREDICTED BY RF-SCORE:    0.00 PKD
ROOT
HETATM    1  O   UNL     1     -11.018   6.647  73.553  1.00  0.00    -0.471 OA 
HETATM    2  C   UNL     1      -9.697   6.486  73.047  1.00  0.00    -0.155 C  
HETATM    3  H   UNL     1     -11.016   6.870  74.477  1.00  0.00     0.000 HD 
HETATM    4  C   UNL     2      -6.791  13.086  68.351  1.00  0.00    -0.097 C  
HETATM    5  C   UNL     1      -9.700   6.121  71.533  1.00  0.00    -0.162 C  
HETATM    6  C   UNL     2      -7.693  11.995  67.793  1.00  0.00    -0.139 C  
HETATM    7  C   UNL     1     -10.489   7.208  70.751  1.00  0.00    -0.212 C  
HETATM    8  N   UNL     1      -8.268   6.131  71.099  1.00  0.00    -0.121 NA 
HETATM    9  C   UNL     1     -10.175   4.712  71.215  1.00  0.00    -0.135 C  
HETATM   10  H   UNL     1      -9.455   2.908  71.443  1.00  0.00     0.000 HD 
HETATM   11  H   UNL     1     -10.404   9.166  70.495  1.00  0.00     0.000 HD 
HETATM   12  H2  UNL     1      -7.669   5.526  71.661  1.00  0.00     0.000 HD 
HETATM   13  O   UNL     1      -9.922   8.503  70.973  1.00  0.00    -0.184 OA 
HETATM   14  O   UNL     1      -9.159   3.788  71.642  1.00  0.00    -0.103 OA 
HETATM   15  H1  UNL     1      -8.269   5.892  70.107  1.00  0.00     0.000 HD 
ENDROOT
BRANCH   6  16
HETATM   16  C   UNL     2      -7.277  10.582  68.205  1.00  0.00    -0.087 C  
BRANCH  16  17
HETATM   17  C   UNL     2      -7.374   9.528  67.098  1.00  0.00    -0.088 C  
BRANCH  17  18
HETATM   18  C   UNL     2      -8.357   8.371  67.387  1.00  0.00    -0.124 C  
HETATM   19  C   UNL     2      -9.719   8.361  66.654  1.00  0.00    -0.251 C  
HETATM   20  C   UNL     2     -10.547   7.085  66.862  1.00  0.00    -0.372 C  
HETATM   21  O   UNL     2      -9.443   8.446  65.252  1.00  0.00    -0.391 OA 
HETATM   22  C   UNL     2     -10.531   9.561  67.053  1.00  0.00    -0.302 C  
HETATM   23  H   UNL     2     -10.280   8.441  64.802  1.00  0.00     0.000 HD 
HETATM   24  C   UNL     2     -11.158   9.772  68.223  1.00  0.00    -0.158 C  
BRANCH  24  25
HETATM   25  C   UNL     2     -11.939  11.016  68.584  1.00  0.00    -0.247 C  
HETATM   26  C   UNL     2     -12.279  11.194  70.082  1.00  0.00    -0.337 C  
HETATM   27  C   UNL     2     -12.772  12.620  70.129  1.00  0.00     0.183 C  
HETATM   28  O   UNL     2     -11.164  11.146  70.966  1.00  0.00     0.011 OA 
HETATM   29  H   UNL     2     -11.372  11.255  71.886  1.00  0.00     0.000 HD 
HETATM   30  C   UNL     2     -11.778  13.371  69.245  1.00  0.00    -0.330 C  
HETATM   31  C   UNL     2     -11.276  12.366  68.175  1.00  0.00    -0.313 C  
HETATM   32  O   UNL     2     -12.439  14.517  68.731  1.00  0.00    -0.579 OA 
HETATM   33  H   UNL     2     -11.820  14.984  68.181  1.00  0.00     0.000 HD 
BRANCH  31  34
HETATM   34  C   UNL     2     -11.560  12.766  66.709  1.00  0.00    -0.431 C  
BRANCH  34  35
HETATM   35  C   UNL     2     -10.331  13.191  65.939  1.00  0.00    -0.295 C  
HETATM   36  C   UNL     2      -9.954  14.428  65.580  1.00  0.00    -0.365 C  
BRANCH  36  37
HETATM   37  C   UNL     2     -10.664  15.721  65.860  1.00  0.00    -0.320 C  
BRANCH  37  38
HETATM   38  C   UNL     2     -10.031  16.527  66.997  1.00  0.00    -0.268 C  
BRANCH  38  39
HETATM   39  C   UNL     2      -8.561  16.860  66.796  1.00  0.00    -0.256 C  
HETATM   40  C   UNL     2      -8.209  18.126  66.015  1.00  0.00    -0.052 C  
HETATM   41  O   UNL     2      -7.075  18.098  65.459  1.00  0.00    -0.522 OA 
HETATM   42  O   UNL     2      -9.011  19.116  66.021  1.00  0.00    -0.447 OA 
ENDBRANCH  38  39
ENDBRANCH  37  38
ENDBRANCH  36  37
ENDBRANCH  34  35
ENDBRANCH  31  34
ENDBRANCH  24  25
ENDBRANCH  17  18
ENDBRANCH  16  17
ENDBRANCH   6  16
TORSDOF 9
ENDMDL
MODEL      116
REMARK 921   NORMALIZED FREE ENERGY PREDICTED BY IDOCK:   -5.77 KCAL/MOL
REMARK 922        TOTAL FREE ENERGY PREDICTED BY IDOCK:  -10.74 KCAL/MOL
REMARK 923 INTER-LIGAND FREE ENERGY PREDICTED BY IDOCK:   -8.55 KCAL/MOL
REMARK 924 INTRA-LIGAND FREE ENERGY PREDICTED BY IDOCK:   -2.19 KCAL/MOL
REMARK 927      BINDING AFFINITY PREDICTED BY RF-SCORE:    0.00 PKD
ROOT
HETATM    1  O   UNL     1     -10.283  19.135  68.282  1.00  0.00    -0.381 OA 
HETATM    2  C   UNL     1      -9.822  18.280  67.242  1.00  0.00    -0.321 C  
HETATM    3  H   UNL     1     -11.231  19.189  68.299  1.00  0.00     0.000 HD 
HETATM    4  C   UNL     2      -7.204  10.504  69.837  1.00  0.00    -0.136 C  
HETATM    5  C   UNL     1      -8.268  18.190  67.214  1.00  0.00    -0.229 C  
HETATM    6  C   UNL     2      -6.331  11.747  69.907  1.00  0.00    -0.113 C  
HETATM    7  C   UNL     1      -7.761  17.726  68.608  1.00  0.00    -0.283 C  
HETATM    8  N   UNL     1      -7.927  17.156  66.187  1.00  0.00    -0.447 NA 
HETATM    9  C   UNL     1      -7.562  19.446  66.725  1.00  0.00    -0.247 C  
HETATM   10  H   UNL     1      -7.341  20.346  65.002  1.00  0.00     0.000 HD 
HETATM   11  H   UNL     1      -8.039  16.188  69.819  1.00  0.00     0.000 HD 
HETATM   12  H2  UNL     1      -8.339  17.341  65.272  1.00  0.00     0.000 HD 
HETATM   13  O   UNL     1      -8.349  16.472  68.968  1.00  0.00    -0.235 OA 
HETATM   14  O   UNL     1      -7.782  19.561  65.309  1.00  0.00    -0.300 OA 
HETATM   15  H1  UNL     1      -6.909  17.097  66.169  1.00  0.00     0.000 HD 
ENDROOT
BRANCH   6  16
HETATM   16  C   UNL     2      -6.374  12.602  68.639  1.00  0.00    -0.074 C  
BRANCH  16  17
HETATM   17  C   UNL     2      -7.546  12.309  67.699  1.00  0.00    -0.144 C  
BRANCH  17  18
HETATM   18  C   UNL     2      -7.297  11.166  66.687  1.00  0.00    -0.145 C  
HETATM   19  C   UNL     2      -8.494  10.640  65.862  1.00  0.00    -0.167 C  
HETATM   20  C   UNL     2      -8.118   9.641  64.757  1.00  0.00    -0.139 C  
HETATM   21  O   UNL     2      -9.085  11.769  65.208  1.00  0.00    -0.413 OA 
HETATM   22  C   UNL     2      -9.520  10.025  66.771  1.00  0.00    -0.209 C  
HETATM   23  H   UNL     2      -9.820  11.445  64.702  1.00  0.00     0.000 HD 
HETATM   24  C   UNL     2      -9.443   8.849  67.415  1.00  0.00    -0.181 C  
BRANCH  24  25
HETATM   25  C   UNL     2     -10.496   8.290  68.346  1.00  0.00    -0.206 C  
HETATM   26  C   UNL     2     -10.625   6.750  68.380  1.00  0.00    -0.227 C  
HETATM   27  C   UNL     2     -11.515   6.531  69.579  1.00  0.00    -0.384 C  
HETATM   28  O   UNL     2      -9.420   6.047  68.665  1.00  0.00    -0.123 OA 
HETATM   29  H   UNL     2      -9.499   5.100  68.686  1.00  0.00     0.000 HD 
HETATM   30  C   UNL     2     -10.955   7.499  70.620  1.00  0.00    -0.249 C  
HETATM   31  C   UNL     2     -10.352   8.699  69.843  1.00  0.00    -0.213 C  
HETATM   32  O   UNL     2     -12.009   7.829  71.512  1.00  0.00    -0.281 OA 
HETATM   33  H   UNL     2     -11.661   8.431  72.160  1.00  0.00     0.000 HD 
BRANCH  31  34
HETATM   34  C   UNL     2     -10.980  10.075  70.162  1.00  0.00    -0.368 C  
BRANCH  34  35
HETATM   35  C   UNL     2     -11.790  10.658  69.027  1.00  0.00    -0.256 C  
HETATM   36  C   UNL     2     -12.066  11.946  68.771  1.00  0.00    -0.182 C  
BRANCH  36  37
HETATM   37  C   UNL     2     -11.632  13.152  69.555  1.00  0.00    -0.347 C  
BRANCH  37  38
HETATM   38  C   UNL     2     -11.053  14.267  68.683  1.00  0.00    -0.273 C  
BRANCH  38  39
HETATM   39  C   UNL     2     -11.393  14.156  67.204  1.00  0.00    -0.348 C  
HETATM   40  C   UNL     2     -10.353  14.629  66.188  1.00  0.00    -0.300 C  
HETATM   41  O   UNL     2     -10.833  14.984  65.075  1.00  0.00    -0.371 OA 
HETATM   42  O   UNL     2      -9.114  14.580  66.483  1.00  0.00    -0.258 OA 
ENDBRANCH  38  39
ENDBRANCH  37  38
ENDBRANCH  36  37
ENDBRANCH  34  35
ENDBRANCH  31  34
ENDBRANCH  24  25
ENDBRANCH  17  18
ENDBRANCH  16  17
ENDBRANCH   6  16
TORSDOF 9
ENDMDL
MODEL      117
REMARK 921   NORMALIZED FREE ENERGY PREDICTED BY IDOCK:   -5.77 KCAL/MOL
REMARK 922        TOTAL FREE ENERGY PREDICTED BY IDOCK:  -10.73 KCAL/MOL
REMARK 923 INTER-LIGAND FREE ENERGY PREDICTED BY IDOCK:   -8.64 KCAL/MOL
REMARK 924 INTRA-LIGAND FREE ENERGY PREDICTED BY IDOCK:   -2.09 KCAL/MOL
REMARK 927      BINDING AFFINITY PREDICTED BY RF-SCORE:    0.00 PKD
ROOT
HETATM    1  O   UNL     1     -10.307   5.599  72.829  1.00  0.00    -0.180 OA 
HETATM    2  C   UNL     1     -11.096   5.990  71.710  1.00  0.00    -0.276 C  
HETATM    3  H   UNL     1     -10.620   4.789  73.214  1.00  0.00     0.000 HD 
HETATM    4  C   UNL     2      -7.505   4.483  64.037  1.00  0.00    -0.059 C  
HETATM    5  C   UNL     1     -10.583   7.317  71.078  1.00  0.00    -0.221 C  
HETATM    6  C   UNL     2      -7.178   5.700  64.889  1.00  0.00    -0.065 C  
HETATM    7  C   UNL     1      -9.086   7.152  70.697  1.00  0.00    -0.158 C  
HETATM    8  N   UNL     1     -11.395   7.531  69.839  1.00  0.00    -0.461 NA 
HETATM    9  C   UNL     1     -10.840   8.564  71.910  1.00  0.00    -0.322 C  
HETATM   10  H   UNL     1     -12.409   9.631  72.385  1.00  0.00     0.000 HD 
HETATM   11  H   UNL     1      -7.995   5.947  69.571  1.00  0.00     0.000 HD 
HETATM   12  H2  UNL     1     -12.402   7.525  70.007  1.00  0.00     0.000 HD 
HETATM   13  O   UNL     1      -8.910   6.048  69.804  1.00  0.00    -0.131 OA 
HETATM   14  O   UNL     1     -12.248   8.852  71.865  1.00  0.00    -0.325 OA 
HETATM   15  H1  UNL     1     -11.059   8.400  69.425  1.00  0.00     0.000 HD 
ENDROOT
BRANCH   6  16
HETATM   16  C   UNL     2      -8.410   6.380  65.488  1.00  0.00    -0.147 C  
BRANCH  16  17
HETATM   17  C   UNL     2      -8.568   7.862  65.138  1.00  0.00    -0.052 C  
BRANCH  17  18
HETATM   18  C   UNL     2      -7.631   8.816  65.915  1.00  0.00    -0.090 C  
HETATM   19  C   UNL     2      -8.221   9.637  67.085  1.00  0.00    -0.120 C  
HETATM   20  C   UNL     2      -7.182  10.410  67.910  1.00  0.00    -0.085 C  
HETATM   21  O   UNL     2      -8.843   8.707  67.979  1.00  0.00    -0.140 OA 
HETATM   22  C   UNL     2      -9.271  10.584  66.577  1.00  0.00    -0.183 C  
HETATM   23  H   UNL     2      -9.206   9.211  68.698  1.00  0.00     0.000 HD 
HETATM   24  C   UNL     2      -9.082  11.715  65.875  1.00  0.00    -0.155 C  
BRANCH  24  25
HETATM   25  C   UNL     2     -10.180  12.618  65.361  1.00  0.00    -0.301 C  
HETATM   26  C   UNL     2     -10.530  12.477  63.861  1.00  0.00    -0.434 C  
HETATM   27  C   UNL     2     -11.811  13.267  63.758  1.00  0.00    -0.522 C  
HETATM   28  O   UNL     2     -10.860  11.157  63.438  1.00  0.00    -0.642 OA 
HETATM   29  H   UNL     2     -11.075  11.070  62.517  1.00  0.00     0.000 HD 
HETATM   30  C   UNL     2     -12.594  12.844  64.999  1.00  0.00    -0.472 C  
HETATM   31  C   UNL     2     -11.551  12.489  66.092  1.00  0.00    -0.448 C  
HETATM   32  O   UNL     2     -13.478  13.903  65.333  1.00  0.00    -0.672 OA 
HETATM   33  H   UNL     2     -13.965  13.640  66.106  1.00  0.00     0.000 HD 
BRANCH  31  34
HETATM   34  C   UNL     2     -11.635  13.333  67.384  1.00  0.00    -0.396 C  
BRANCH  34  35
HETATM   35  C   UNL     2     -10.957  14.680  67.282  1.00  0.00    -0.317 C  
HETATM   36  C   UNL     2      -9.831  15.098  67.880  1.00  0.00    -0.216 C  
BRANCH  36  37
HETATM   37  C   UNL     2      -8.944  14.323  68.812  1.00  0.00    -0.097 C  
BRANCH  37  38
HETATM   38  C   UNL     2      -7.456  14.454  68.483  1.00  0.00    -0.122 C  
BRANCH  38  39
HETATM   39  C   UNL     2      -6.632  15.168  69.544  1.00  0.00    -0.163 C  
HETATM   40  C   UNL     2      -6.498  16.689  69.449  1.00  0.00    -0.220 C  
HETATM   41  O   UNL     2      -5.460  17.156  69.996  1.00  0.00    -0.197 OA 
HETATM   42  O   UNL     2      -7.426  17.372  68.906  1.00  0.00    -0.254 OA 
ENDBRANCH  38  39
ENDBRANCH  37  38
ENDBRANCH  36  37
ENDBRANCH  34  35
ENDBRANCH  31  34
ENDBRANCH  24  25
ENDBRANCH  17  18
ENDBRANCH  16  17
ENDBRANCH   6  16
TORSDOF 9
ENDMDL
MODEL      118
REMARK 921   NORMALIZED FREE ENERGY PREDICTED BY IDOCK:   -5.75 KCAL/MOL
REMARK 922        TOTAL FREE ENERGY PREDICTED BY IDOCK:  -10.70 KCAL/MOL
REMARK 923 INTER-LIGAND FREE ENERGY PREDICTED BY IDOCK:   -8.93 KCAL/MOL
REMARK 924 INTRA-LIGAND FREE ENERGY PREDICTED BY IDOCK:   -1.77 KCAL/MOL
REMARK 927      BINDING AFFINITY PREDICTED BY RF-SCORE:    0.00 PKD
ROOT
HETATM    1  O   UNL     1      -9.114   4.524  70.917  1.00  0.00    -0.120 OA 
HETATM    2  C   UNL     1     -10.280   4.974  70.235  1.00  0.00    -0.258 C  
HETATM    3  H   UNL     1      -8.949   3.601  70.762  1.00  0.00     0.000 HD 
HETATM    4  C   UNL     2      -8.770   9.541  63.100  1.00  0.00    -0.234 C  
HETATM    5  C   UNL     1     -10.550   6.486  70.488  1.00  0.00    -0.234 C  
HETATM    6  C   UNL     2      -8.729  10.137  64.499  1.00  0.00    -0.211 C  
HETATM    7  C   UNL     1      -9.292   7.301  70.078  1.00  0.00    -0.154 C  
HETATM    8  N   UNL     1     -11.699   6.859  69.605  1.00  0.00    -0.611 NA 
HETATM    9  C   UNL     1     -11.033   6.824  71.890  1.00  0.00    -0.239 C  
HETATM   10  H   UNL     1     -12.688   6.566  72.900  1.00  0.00     0.000 HD 
HETATM   11  H   UNL     1      -8.186   7.553  68.459  1.00  0.00     0.000 HD 
HETATM   12  H2  UNL     1     -12.523   6.272  69.741  1.00  0.00     0.000 HD 
HETATM   13  O   UNL     1      -8.954   7.055  68.710  1.00  0.00    -0.132 OA 
HETATM   14  O   UNL     1     -12.385   6.354  72.025  1.00  0.00    -0.337 OA 
HETATM   15  H1  UNL     1     -11.876   7.850  69.771  1.00  0.00     0.000 HD 
ENDROOT
BRANCH   6  16
HETATM   16  C   UNL     2      -9.900   9.708  65.385  1.00  0.00    -0.322 C  
BRANCH  16  17
HETATM   17  C   UNL     2      -9.874  10.267  66.810  1.00  0.00    -0.246 C  
BRANCH  17  18
HETATM   18  C   UNL     2      -8.460  10.474  67.401  1.00  0.00    -0.122 C  
HETATM   19  C   UNL     2      -8.320  11.289  68.707  1.00  0.00    -0.120 C  
HETATM   20  C   UNL     2      -6.910  11.285  69.315  1.00  0.00    -0.116 C  
HETATM   21  O   UNL     2      -9.184  10.685  69.676  1.00  0.00    -0.408 OA 
HETATM   22  C   UNL     2      -8.770  12.706  68.485  1.00  0.00    -0.048 C  
HETATM   23  H   UNL     2      -9.098  11.186  70.478  1.00  0.00     0.000 HD 
HETATM   24  C   UNL     2      -8.127  13.672  67.810  1.00  0.00    -0.173 C  
BRANCH  24  25
HETATM   25  C   UNL     2      -8.642  15.077  67.591  1.00  0.00    -0.179 C  
HETATM   26  C   UNL     2      -8.855  15.501  66.119  1.00  0.00    -0.238 C  
HETATM   27  C   UNL     2      -9.627  16.790  66.268  1.00  0.00    -0.313 C  
HETATM   28  O   UNL     2      -9.694  14.639  65.356  1.00  0.00    -0.484 OA 
HETATM   29  H   UNL     2      -9.825  14.899  64.452  1.00  0.00     0.000 HD 
HETATM   30  C   UNL     2     -10.645  16.472  67.363  1.00  0.00    -0.300 C  
HETATM   31  C   UNL     2      -9.995  15.411  68.290  1.00  0.00    -0.214 C  
HETATM   32  O   UNL     2     -10.991  17.694  67.997  1.00  0.00    -0.308 OA 
HETATM   33  H   UNL     2     -11.623  17.496  68.677  1.00  0.00     0.000 HD 
BRANCH  31  34
HETATM   34  C   UNL     2      -9.829  15.838  69.766  1.00  0.00    -0.218 C  
BRANCH  34  35
HETATM   35  C   UNL     2     -11.117  16.276  70.426  1.00  0.00    -0.322 C  
HETATM   36  C   UNL     2     -12.031  15.524  71.059  1.00  0.00    -0.428 C  
BRANCH  36  37
HETATM   37  C   UNL     2     -12.006  14.039  71.277  1.00  0.00    -0.196 C  
BRANCH  37  38
HETATM   38  C   UNL     2     -12.612  13.246  70.117  1.00  0.00    -0.112 C  
BRANCH  38  39
HETATM   39  C   UNL     2     -12.077  11.830  69.969  1.00  0.00    -0.387 C  
HETATM   40  C   UNL     2     -12.325  10.842  71.110  1.00  0.00    -0.374 C  
HETATM   41  O   UNL     2     -11.483   9.904  71.180  1.00  0.00    -0.350 OA 
HETATM   42  O   UNL     2     -13.353  10.978  71.850  1.00  0.00    -0.422 OA 
ENDBRANCH  38  39
ENDBRANCH  37  38
ENDBRANCH  36  37
ENDBRANCH  34  35
ENDBRANCH  31  34
ENDBRANCH  24  25
ENDBRANCH  17  18
ENDBRANCH  16  17
ENDBRANCH   6  16
TORSDOF 9
ENDMDL
MODEL      119
REMARK 921   NORMALIZED FREE ENERGY PREDICTED BY IDOCK:   -5.75 KCAL/MOL
REMARK 922        TOTAL FREE ENERGY PREDICTED BY IDOCK:  -10.70 KCAL/MOL
REMARK 923 INTER-LIGAND FREE ENERGY PREDICTED BY IDOCK:   -9.33 KCAL/MOL
REMARK 924 INTRA-LIGAND FREE ENERGY PREDICTED BY IDOCK:   -1.37 KCAL/MOL
REMARK 927      BINDING AFFINITY PREDICTED BY RF-SCORE:    0.00 PKD
ROOT
HETATM    1  O   UNL     1      -7.205   4.611  65.247  1.00  0.00    -0.065 OA 
HETATM    2  C   UNL     1      -8.467   5.270  65.233  1.00  0.00    -0.147 C  
HETATM    3  H   UNL     1      -6.509   5.177  64.933  1.00  0.00     0.000 HD 
HETATM    4  C   UNL     2     -11.257   7.912  72.933  1.00  0.00    -0.429 C  
HETATM    5  C   UNL     1      -9.607   4.342  65.748  1.00  0.00    -0.188 C  
HETATM    6  C   UNL     2     -11.414   6.485  72.431  1.00  0.00    -0.306 C  
HETATM    7  C   UNL     1      -9.241   3.828  67.167  1.00  0.00    -0.182 C  
HETATM    8  N   UNL     1     -10.835   5.194  65.824  1.00  0.00    -0.712 NA 
HETATM    9  C   UNL     1      -9.994   3.217  64.801  1.00  0.00    -0.046 C  
HETATM   10  H   UNL     1     -10.934   3.088  63.090  1.00  0.00     0.000 HD 
HETATM   11  H   UNL     1      -8.795   4.609  68.928  1.00  0.00     0.000 HD 
HETATM   12  H2  UNL     1     -11.060   5.663  64.946  1.00  0.00     0.000 HD 
HETATM   13  O   UNL     1      -9.018   4.924  68.061  1.00  0.00    -0.106 OA 
HETATM   14  O   UNL     1     -10.692   3.791  63.682  1.00  0.00    -0.259 OA 
HETATM   15  H1  UNL     1     -11.582   4.587  66.162  1.00  0.00     0.000 HD 
ENDROOT
BRANCH   6  16
HETATM   16  C   UNL     2     -11.897   6.392  70.982  1.00  0.00    -0.321 C  
BRANCH  16  17
HETATM   17  C   UNL     2     -11.065   7.184  69.969  1.00  0.00    -0.288 C  
BRANCH  17  18
HETATM   18  C   UNL     2      -9.595   7.424  70.383  1.00  0.00    -0.165 C  
HETATM   19  C   UNL     2      -9.064   8.876  70.403  1.00  0.00    -0.190 C  
HETATM   20  C   UNL     2      -7.659   9.034  71.001  1.00  0.00    -0.138 C  
HETATM   21  O   UNL     2      -9.949   9.637  71.233  1.00  0.00    -0.251 OA 
HETATM   22  C   UNL     2      -9.093   9.459  69.018  1.00  0.00    -0.142 C  
HETATM   23  H   UNL     2      -9.624  10.529  71.246  1.00  0.00     0.000 HD 
HETATM   24  C   UNL     2      -8.273   9.171  67.993  1.00  0.00    -0.112 C  
BRANCH  24  25
HETATM   25  C   UNL     2      -8.366   9.766  66.606  1.00  0.00    -0.124 C  
HETATM   26  C   UNL     2      -8.847   8.813  65.487  1.00  0.00    -0.188 C  
HETATM   27  C   UNL     2      -9.104   9.766  64.346  1.00  0.00    -0.296 C  
HETATM   28  O   UNL     2     -10.093   8.168  65.735  1.00  0.00    -0.271 OA 
HETATM   29  H   UNL     2     -10.389   7.583  65.048  1.00  0.00     0.000 HD 
HETATM   30  C   UNL     2      -9.814  10.943  65.015  1.00  0.00    -0.281 C  
HETATM   31  C   UNL     2      -9.290  11.015  66.474  1.00  0.00    -0.200 C  
HETATM   32  O   UNL     2      -9.567  12.098  64.229  1.00  0.00    -0.486 OA 
HETATM   33  H   UNL     2     -10.008  12.829  64.645  1.00  0.00     0.000 HD 
BRANCH  31  34
HETATM   34  C   UNL     2      -8.587  12.337  66.857  1.00  0.00    -0.182 C  
BRANCH  34  35
HETATM   35  C   UNL     2      -9.087  12.947  68.147  1.00  0.00    -0.207 C  
HETATM   36  C   UNL     2     -10.353  13.109  68.561  1.00  0.00    -0.245 C  
BRANCH  36  37
HETATM   37  C   UNL     2     -11.612  12.718  67.841  1.00  0.00    -0.400 C  
BRANCH  37  38
HETATM   38  C   UNL     2     -12.226  13.862  67.031  1.00  0.00    -0.392 C  
BRANCH  38  39
HETATM   39  C   UNL     2     -12.677  13.476  65.630  1.00  0.00    -0.478 C  
HETATM   40  C   UNL     2     -12.053  14.212  64.444  1.00  0.00    -0.463 C  
HETATM   41  O   UNL     2     -12.773  14.234  63.406  1.00  0.00    -0.733 OA 
HETATM   42  O   UNL     2     -10.873  14.682  64.542  1.00  0.00    -0.338 OA 
ENDBRANCH  38  39
ENDBRANCH  37  38
ENDBRANCH  36  37
ENDBRANCH  34  35
ENDBRANCH  31  34
ENDBRANCH  24  25
ENDBRANCH  17  18
ENDBRANCH  16  17
ENDBRANCH   6  16
TORSDOF 9
ENDMDL
MODEL      120
REMARK 921   NORMALIZED FREE ENERGY PREDICTED BY IDOCK:   -5.74 KCAL/MOL
REMARK 922        TOTAL FREE ENERGY PREDICTED BY IDOCK:  -10.68 KCAL/MOL
REMARK 923 INTER-LIGAND FREE ENERGY PREDICTED BY IDOCK:   -8.85 KCAL/MOL
REMARK 924 INTRA-LIGAND FREE ENERGY PREDICTED BY IDOCK:   -1.84 KCAL/MOL
REMARK 927      BINDING AFFINITY PREDICTED BY RF-SCORE:    0.00 PKD
ROOT
HETATM    1  O   UNL     1     -11.667   6.584  73.134  1.00  0.00    -0.430 OA 
HETATM    2  C   UNL     1     -10.698   7.599  72.895  1.00  0.00    -0.371 C  
HETATM    3  H   UNL     1     -11.632   6.267  74.029  1.00  0.00     0.000 HD 
HETATM    4  C   UNL     2     -13.826  15.612  72.654  1.00  0.00    -0.648 C  
HETATM    5  C   UNL     1     -10.756   8.118  71.429  1.00  0.00    -0.232 C  
HETATM    6  C   UNL     2     -13.876  14.658  71.471  1.00  0.00    -0.508 C  
HETATM    7  C   UNL     1     -12.196   8.614  71.122  1.00  0.00    -0.238 C  
HETATM    8  N   UNL     1      -9.803   9.270  71.356  1.00  0.00    -0.274 NA 
HETATM    9  C   UNL     1     -10.239   7.142  70.383  1.00  0.00    -0.193 C  
HETATM   10  H   UNL     1      -8.486   6.451  69.858  1.00  0.00     0.000 HD 
HETATM   11  H   UNL     1     -13.469   9.933  71.862  1.00  0.00     0.000 HD 
HETATM   12  H2  UNL     1      -8.859   9.037  71.666  1.00  0.00     0.000 HD 
HETATM   13  O   UNL     1     -12.589   9.630  72.049  1.00  0.00    -0.379 OA 
HETATM   14  O   UNL     1      -8.809   7.061  70.511  1.00  0.00    -0.152 OA 
HETATM   15  H1  UNL     1      -9.841   9.610  70.395  1.00  0.00     0.000 HD 
ENDROOT
BRANCH   6  16
HETATM   16  C   UNL     2     -12.565  13.909  71.228  1.00  0.00    -0.450 C  
BRANCH  16  17
HETATM   17  C   UNL     2     -12.160  13.770  69.758  1.00  0.00    -0.400 C  
BRANCH  17  18
HETATM   18  C   UNL     2     -11.442  15.004  69.163  1.00  0.00    -0.320 C  
HETATM   19  C   UNL     2     -10.827  14.888  67.749  1.00  0.00    -0.286 C  
HETATM   20  C   UNL     2     -10.303  16.210  67.170  1.00  0.00    -0.291 C  
HETATM   21  O   UNL     2     -11.868  14.443  66.872  1.00  0.00    -0.392 OA 
HETATM   22  C   UNL     2      -9.729  13.862  67.744  1.00  0.00    -0.225 C  
HETATM   23  H   UNL     2     -11.491  14.371  66.004  1.00  0.00     0.000 HD 
HETATM   24  C   UNL     2      -8.499  13.978  68.272  1.00  0.00    -0.171 C  
BRANCH  24  25
HETATM   25  C   UNL     2      -7.440  12.899  68.265  1.00  0.00    -0.125 C  
HETATM   26  C   UNL     2      -6.169  13.188  69.097  1.00  0.00    -0.100 C  
HETATM   27  C   UNL     2      -5.487  11.842  69.116  1.00  0.00    -0.052 C  
HETATM   28  O   UNL     2      -6.402  13.518  70.463  1.00  0.00    -0.389 OA 
HETATM   29  H   UNL     2      -5.622  13.696  70.975  1.00  0.00     0.000 HD 
HETATM   30  C   UNL     2      -6.633  10.864  69.369  1.00  0.00    -0.095 C  
HETATM   31  C   UNL     2      -7.910  11.495  68.752  1.00  0.00    -0.117 C  
HETATM   32  O   UNL     2      -6.258   9.609  68.823  1.00  0.00    -0.043 OA 
HETATM   33  H   UNL     2      -6.971   9.001  68.981  1.00  0.00     0.000 HD 
BRANCH  31  34
HETATM   34  C   UNL     2      -8.588  10.660  67.643  1.00  0.00    -0.118 C  
BRANCH  34  35
HETATM   35  C   UNL     2     -10.012  10.260  67.958  1.00  0.00    -0.177 C  
HETATM   36  C   UNL     2     -10.716   9.224  67.478  1.00  0.00    -0.272 C  
BRANCH  36  37
HETATM   37  C   UNL     2     -10.263   8.182  66.495  1.00  0.00    -0.248 C  
BRANCH  37  38
HETATM   38  C   UNL     2     -10.840   6.793  66.775  1.00  0.00    -0.296 C  
BRANCH  38  39
HETATM   39  C   UNL     2      -9.800   5.699  66.957  1.00  0.00    -0.172 C  
HETATM   40  C   UNL     2     -10.020   4.369  66.234  1.00  0.00    -0.235 C  
HETATM   41  O   UNL     2      -9.455   3.379  66.780  1.00  0.00    -0.191 OA 
HETATM   42  O   UNL     2     -10.673   4.344  65.141  1.00  0.00    -0.255 OA 
ENDBRANCH  38  39
ENDBRANCH  37  38
ENDBRANCH  36  37
ENDBRANCH  34  35
ENDBRANCH  31  34
ENDBRANCH  24  25
ENDBRANCH  17  18
ENDBRANCH  16  17
ENDBRANCH   6  16
TORSDOF 9
ENDMDL
MODEL      121
REMARK 921   NORMALIZED FREE ENERGY PREDICTED BY IDOCK:   -5.74 KCAL/MOL
REMARK 922        TOTAL FREE ENERGY PREDICTED BY IDOCK:  -10.68 KCAL/MOL
REMARK 923 INTER-LIGAND FREE ENERGY PREDICTED BY IDOCK:   -9.23 KCAL/MOL
REMARK 924 INTRA-LIGAND FREE ENERGY PREDICTED BY IDOCK:   -1.45 KCAL/MOL
REMARK 927      BINDING AFFINITY PREDICTED BY RF-SCORE:    0.00 PKD
ROOT
HETATM    1  O   UNL     1     -13.241  14.049  65.143  1.00  0.00    -0.768 OA 
HETATM    2  C   UNL     1     -11.853  13.849  64.895  1.00  0.00    -0.387 C  
HETATM    3  H   UNL     1     -13.723  14.203  64.340  1.00  0.00     0.000 HD 
HETATM    4  C   UNL     2      -9.238   5.662  65.318  1.00  0.00     0.090 C  
HETATM    5  C   UNL     1     -11.062  13.597  66.212  1.00  0.00    -0.301 C  
HETATM    6  C   UNL     2      -9.421   6.546  66.542  1.00  0.00    -0.190 C  
HETATM    7  C   UNL     1     -11.692  12.390  66.960  1.00  0.00    -0.353 C  
HETATM    8  N   UNL     1      -9.663  13.257  65.800  1.00  0.00    -0.462 NA 
HETATM    9  C   UNL     1     -10.899  14.817  67.105  1.00  0.00    -0.311 C  
HETATM   10  H   UNL     1      -9.863  16.474  67.036  1.00  0.00     0.000 HD 
HETATM   11  H   UNL     1     -12.086  10.489  66.583  1.00  0.00     0.000 HD 
HETATM   12  H2  UNL     1      -9.235  13.960  65.198  1.00  0.00     0.000 HD 
HETATM   13  O   UNL     1     -11.701  11.227  66.126  1.00  0.00    -0.172 OA 
HETATM   14  O   UNL     1      -9.965  15.712  66.478  1.00  0.00    -0.252 OA 
HETATM   15  H1  UNL     1      -9.145  13.091  66.663  1.00  0.00     0.000 HD 
ENDROOT
BRANCH   6  16
HETATM   16  C   UNL     2      -8.839   7.951  66.379  1.00  0.00    -0.184 C  
BRANCH  16  17
HETATM   17  C   UNL     2      -9.588   9.055  67.131  1.00  0.00    -0.218 C  
BRANCH  17  18
HETATM   18  C   UNL     2      -8.765   9.763  68.232  1.00  0.00    -0.119 C  
HETATM   19  C   UNL     2      -8.352   8.949  69.480  1.00  0.00    -0.119 C  
HETATM   20  C   UNL     2      -7.386   9.677  70.426  1.00  0.00    -0.156 C  
HETATM   21  O   UNL     2      -7.664   7.783  69.014  1.00  0.00    -0.104 OA 
HETATM   22  C   UNL     2      -9.571   8.511  70.241  1.00  0.00    -0.177 C  
HETATM   23  H   UNL     2      -7.411   7.283  69.780  1.00  0.00     0.000 HD 
HETATM   24  C   UNL     2     -10.378   9.270  71.001  1.00  0.00    -0.388 C  
BRANCH  24  25
HETATM   25  C   UNL     2     -11.614   8.781  71.722  1.00  0.00    -0.416 C  
HETATM   26  C   UNL     2     -12.829   9.737  71.713  1.00  0.00    -0.434 C  
HETATM   27  C   UNL     2     -13.935   8.852  72.234  1.00  0.00    -0.531 C  
HETATM   28  O   UNL     2     -13.256  10.162  70.422  1.00  0.00    -0.587 OA 
HETATM   29  H   UNL     2     -14.003  10.749  70.416  1.00  0.00     0.000 HD 
HETATM   30  C   UNL     2     -13.711   7.531  71.500  1.00  0.00    -0.372 C  
HETATM   31  C   UNL     2     -12.188   7.421  71.222  1.00  0.00    -0.374 C  
HETATM   32  O   UNL     2     -14.252   6.494  72.303  1.00  0.00    -0.551 OA 
HETATM   33  H   UNL     2     -14.112   5.672  71.847  1.00  0.00     0.000 HD 
BRANCH  31  34
HETATM   34  C   UNL     2     -11.489   6.195  71.853  1.00  0.00    -0.355 C  
BRANCH  34  35
HETATM   35  C   UNL     2     -11.006   5.178  70.845  1.00  0.00     0.090 C  
HETATM   36  C   UNL     2      -9.760   4.718  70.650  1.00  0.00    -0.271 C  
BRANCH  36  37
HETATM   37  C   UNL     2      -8.514   5.101  71.395  1.00  0.00    -0.124 C  
BRANCH  37  38
HETATM   38  C   UNL     2      -8.273   4.257  72.648  1.00  0.00    -0.097 C  
BRANCH  38  39
HETATM   39  C   UNL     2      -9.245   3.101  72.830  1.00  0.00    -0.120 C  
HETATM   40  C   UNL     2     -10.208   3.149  74.017  1.00  0.00    -0.144 C  
HETATM   41  O   UNL     2     -10.610   2.018  74.410  1.00  0.00    -0.130 OA 
HETATM   42  O   UNL     2     -10.584   4.275  74.480  1.00  0.00    -0.243 OA 
ENDBRANCH  38  39
ENDBRANCH  37  38
ENDBRANCH  36  37
ENDBRANCH  34  35
ENDBRANCH  31  34
ENDBRANCH  24  25
ENDBRANCH  17  18
ENDBRANCH  16  17
ENDBRANCH   6  16
TORSDOF 9
ENDMDL
MODEL      122
REMARK 921   NORMALIZED FREE ENERGY PREDICTED BY IDOCK:   -5.72 KCAL/MOL
REMARK 922        TOTAL FREE ENERGY PREDICTED BY IDOCK:  -10.65 KCAL/MOL
REMARK 923 INTER-LIGAND FREE ENERGY PREDICTED BY IDOCK:   -9.45 KCAL/MOL
REMARK 924 INTRA-LIGAND FREE ENERGY PREDICTED BY IDOCK:   -1.20 KCAL/MOL
REMARK 927      BINDING AFFINITY PREDICTED BY RF-SCORE:    0.00 PKD
ROOT
HETATM    1  O   UNL     1     -10.408   5.113  70.652  1.00  0.00    -0.249 OA 
HETATM    2  C   UNL     1     -11.282   6.219  70.450  1.00  0.00    -0.373 C  
HETATM    3  H   UNL     1     -10.835   4.287  70.458  1.00  0.00     0.000 HD 
HETATM    4  C   UNL     2      -9.890  10.661  63.212  1.00  0.00    -0.364 C  
HETATM    5  C   UNL     1     -10.582   7.573  70.767  1.00  0.00    -0.220 C  
HETATM    6  C   UNL     2      -9.086  10.865  64.487  1.00  0.00    -0.181 C  
HETATM    7  C   UNL     1      -9.294   7.692  69.906  1.00  0.00    -0.150 C  
HETATM    8  N   UNL     1     -11.549   8.645  70.373  1.00  0.00    -0.457 NA 
HETATM    9  C   UNL     1     -10.323   7.830  72.243  1.00  0.00    -0.237 C  
HETATM   10  H   UNL     1     -11.423   8.263  73.802  1.00  0.00     0.000 HD 
HETATM   11  H   UNL     1      -8.816   7.653  67.988  1.00  0.00     0.000 HD 
HETATM   12  H2  UNL     1     -12.464   8.549  70.814  1.00  0.00     0.000 HD 
HETATM   13  O   UNL     1      -9.603   7.580  68.514  1.00  0.00    -0.148 OA 
HETATM   14  O   UNL     1     -11.584   8.102  72.879  1.00  0.00    -0.386 OA 
HETATM   15  H1  UNL     1     -11.090   9.532  70.581  1.00  0.00     0.000 HD 
ENDROOT
BRANCH   6  16
HETATM   16  C   UNL     2      -9.944  10.932  65.751  1.00  0.00    -0.299 C  
BRANCH  16  17
HETATM   17  C   UNL     2      -9.261  11.566  66.966  1.00  0.00    -0.180 C  
BRANCH  17  18
HETATM   18  C   UNL     2      -7.742  11.809  66.804  1.00  0.00    -0.086 C  
HETATM   19  C   UNL     2      -6.941  12.309  68.028  1.00  0.00    -0.093 C  
HETATM   20  C   UNL     2      -5.420  12.344  67.826  1.00  0.00    -0.097 C  
HETATM   21  O   UNL     2      -7.190  11.391  69.098  1.00  0.00    -0.114 OA 
HETATM   22  C   UNL     2      -7.427  13.669  68.445  1.00  0.00    -0.123 C  
HETATM   23  H   UNL     2      -6.699  11.698  69.851  1.00  0.00     0.000 HD 
HETATM   24  C   UNL     2      -7.213  14.840  67.823  1.00  0.00    -0.192 C  
BRANCH  24  25
HETATM   25  C   UNL     2      -7.752  16.180  68.271  1.00  0.00    -0.148 C  
HETATM   26  C   UNL     2      -7.319  17.403  67.430  1.00  0.00    -0.168 C  
HETATM   27  C   UNL     2      -8.238  18.484  67.945  1.00  0.00    -0.277 C  
HETATM   28  O   UNL     2      -7.588  17.305  66.035  1.00  0.00    -0.392 OA 
HETATM   29  H   UNL     2      -7.322  18.056  65.518  1.00  0.00     0.000 HD 
HETATM   30  C   UNL     2      -9.592  17.785  68.046  1.00  0.00    -0.291 C  
HETATM   31  C   UNL     2      -9.306  16.288  68.339  1.00  0.00    -0.210 C  
HETATM   32  O   UNL     2     -10.351  18.457  69.039  1.00  0.00    -0.471 OA 
HETATM   33  H   UNL     2     -11.193  18.022  69.102  1.00  0.00     0.000 HD 
BRANCH  31  34
HETATM   34  C   UNL     2      -9.897  15.749  69.661  1.00  0.00    -0.275 C  
BRANCH  34  35
HETATM   35  C   UNL     2     -11.405  15.647  69.663  1.00  0.00    -0.331 C  
HETATM   36  C   UNL     2     -12.196  14.926  68.852  1.00  0.00    -0.143 C  
BRANCH  36  37
HETATM   37  C   UNL     2     -11.779  14.026  67.725  1.00  0.00    -0.403 C  
BRANCH  37  38
HETATM   38  C   UNL     2     -11.327  14.786  66.477  1.00  0.00    -0.344 C  
BRANCH  38  39
HETATM   39  C   UNL     2     -11.049  13.909  65.266  1.00  0.00    -0.318 C  
HETATM   40  C   UNL     2     -12.049  13.940  64.109  1.00  0.00    -0.425 C  
HETATM   41  O   UNL     2     -12.063  12.892  63.404  1.00  0.00    -0.534 OA 
HETATM   42  O   UNL     2     -12.733  14.993  63.893  1.00  0.00    -0.775 OA 
ENDBRANCH  38  39
ENDBRANCH  37  38
ENDBRANCH  36  37
ENDBRANCH  34  35
ENDBRANCH  31  34
ENDBRANCH  24  25
ENDBRANCH  17  18
ENDBRANCH  16  17
ENDBRANCH   6  16
TORSDOF 9
ENDMDL
MODEL      123
REMARK 921   NORMALIZED FREE ENERGY PREDICTED BY IDOCK:   -5.71 KCAL/MOL
REMARK 922        TOTAL FREE ENERGY PREDICTED BY IDOCK:  -10.64 KCAL/MOL
REMARK 923 INTER-LIGAND FREE ENERGY PREDICTED BY IDOCK:   -8.97 KCAL/MOL
REMARK 924 INTRA-LIGAND FREE ENERGY PREDICTED BY IDOCK:   -1.67 KCAL/MOL
REMARK 927      BINDING AFFINITY PREDICTED BY RF-SCORE:    0.00 PKD
ROOT
HETATM    1  O   UNL     1      -6.964  18.607  67.996  1.00  0.00    -0.227 OA 
HETATM    2  C   UNL     1      -8.152  17.988  68.480  1.00  0.00    -0.298 C  
HETATM    3  H   UNL     1      -6.215  18.412  68.548  1.00  0.00     0.000 HD 
HETATM    4  C   UNL     2     -10.605  10.973  64.141  1.00  0.00    -0.412 C  
HETATM    5  C   UNL     1      -9.378  18.308  67.575  1.00  0.00    -0.261 C  
HETATM    6  C   UNL     2     -10.912  12.391  63.682  1.00  0.00    -0.525 C  
HETATM    7  C   UNL     1      -9.058  17.879  66.117  1.00  0.00    -0.097 C  
HETATM    8  N   UNL     1     -10.511  17.484  68.103  1.00  0.00    -0.375 NA 
HETATM    9  C   UNL     1      -9.885  19.738  67.666  1.00  0.00    -0.390 C  
HETATM   10  H   UNL     1     -10.844  20.802  68.998  1.00  0.00     0.000 HD 
HETATM   11  H   UNL     1      -8.522  16.228  65.169  1.00  0.00     0.000 HD 
HETATM   12  H2  UNL     1     -10.691  17.630  69.096  1.00  0.00     0.000 HD 
HETATM   13  O   UNL     1      -8.717  16.490  66.060  1.00  0.00    -0.400 OA 
HETATM   14  O   UNL     1     -10.527  19.908  68.941  1.00  0.00    -0.329 OA 
HETATM   15  H1  UNL     1     -11.315  17.693  67.510  1.00  0.00     0.000 HD 
ENDROOT
BRANCH   6  16
HETATM   16  C   UNL     2     -11.411  13.305  64.802  1.00  0.00    -0.355 C  
BRANCH  16  17
HETATM   17  C   UNL     2     -10.666  13.167  66.133  1.00  0.00    -0.289 C  
BRANCH  17  18
HETATM   18  C   UNL     2     -11.508  12.583  67.291  1.00  0.00    -0.416 C  
HETATM   19  C   UNL     2     -10.783  11.780  68.396  1.00  0.00    -0.219 C  
HETATM   20  C   UNL     2     -11.665  11.399  69.593  1.00  0.00    -0.415 C  
HETATM   21  O   UNL     2      -9.738  12.615  68.907  1.00  0.00    -0.408 OA 
HETATM   22  C   UNL     2     -10.160  10.542  67.813  1.00  0.00    -0.205 C  
HETATM   23  H   UNL     2      -9.292  12.122  69.585  1.00  0.00     0.000 HD 
HETATM   24  C   UNL     2     -10.786   9.425  67.408  1.00  0.00    -0.280 C  
BRANCH  24  25
HETATM   25  C   UNL     2     -10.111   8.216  66.799  1.00  0.00    -0.365 C  
HETATM   26  C   UNL     2      -8.855   8.499  65.943  1.00  0.00    -0.182 C  
HETATM   27  C   UNL     2      -8.283   7.116  65.750  1.00  0.00    -0.132 C  
HETATM   28  O   UNL     2      -7.833   9.248  66.595  1.00  0.00    -0.102 OA 
HETATM   29  H   UNL     2      -7.061   9.422  66.069  1.00  0.00     0.000 HD 
HETATM   30  C   UNL     2      -8.413   6.479  67.133  1.00  0.00    -0.112 C  
HETATM   31  C   UNL     2      -9.650   7.124  67.812  1.00  0.00    -0.146 C  
HETATM   32  O   UNL     2      -8.490   5.073  66.955  1.00  0.00    -0.107 OA 
HETATM   33  H   UNL     2      -8.572   4.678  67.815  1.00  0.00     0.000 HD 
BRANCH  31  34
HETATM   34  C   UNL     2     -10.777   6.141  68.202  1.00  0.00    -0.367 C  
BRANCH  34  35
HETATM   35  C   UNL     2     -11.287   6.319  69.614  1.00  0.00    -0.492 C  
HETATM   36  C   UNL     2     -10.667   6.033  70.770  1.00  0.00    -0.340 C  
BRANCH  36  37
HETATM   37  C   UNL     2      -9.292   5.459  70.957  1.00  0.00    -0.188 C  
BRANCH  37  38
HETATM   38  C   UNL     2      -9.297   3.957  71.245  1.00  0.00    -0.213 C  
BRANCH  38  39
HETATM   39  C   UNL     2      -9.110   3.075  70.019  1.00  0.00    -0.194 C  
HETATM   40  C   UNL     2      -7.683   2.761  69.569  1.00  0.00    -0.043 C  
HETATM   41  O   UNL     2      -7.572   2.484  68.342  1.00  0.00    -0.054 OA 
HETATM   42  O   UNL     2      -6.741   2.735  70.426  1.00  0.00    -0.032 OA 
ENDBRANCH  38  39
ENDBRANCH  37  38
ENDBRANCH  36  37
ENDBRANCH  34  35
ENDBRANCH  31  34
ENDBRANCH  24  25
ENDBRANCH  17  18
ENDBRANCH  16  17
ENDBRANCH   6  16
TORSDOF 9
ENDMDL
MODEL      124
REMARK 921   NORMALIZED FREE ENERGY PREDICTED BY IDOCK:   -5.71 KCAL/MOL
REMARK 922        TOTAL FREE ENERGY PREDICTED BY IDOCK:  -10.64 KCAL/MOL
REMARK 923 INTER-LIGAND FREE ENERGY PREDICTED BY IDOCK:   -8.20 KCAL/MOL
REMARK 924 INTRA-LIGAND FREE ENERGY PREDICTED BY IDOCK:   -2.43 KCAL/MOL
REMARK 927      BINDING AFFINITY PREDICTED BY RF-SCORE:    0.00 PKD
ROOT
HETATM    1  O   UNL     1     -10.719   5.254  71.444  1.00  0.00    -0.211 OA 
HETATM    2  C   UNL     1     -11.294   6.109  70.461  1.00  0.00    -0.310 C  
HETATM    3  H   UNL     1     -11.000   4.353  71.335  1.00  0.00     0.000 HD 
HETATM    4  C   UNL     2      -5.983   8.392  64.087  1.00  0.00    -0.066 C  
HETATM    5  C   UNL     1     -10.832   7.585  70.639  1.00  0.00    -0.240 C  
HETATM    6  C   UNL     2      -6.005   9.079  65.444  1.00  0.00    -0.055 C  
HETATM    7  C   UNL     1      -9.280   7.638  70.610  1.00  0.00    -0.162 C  
HETATM    8  N   UNL     1     -11.382   8.338  69.467  1.00  0.00    -0.413 NA 
HETATM    9  C   UNL     1     -11.419   8.299  71.847  1.00  0.00    -0.310 C  
HETATM   10  H   UNL     1     -13.176   9.000  72.342  1.00  0.00     0.000 HD 
HETATM   11  H   UNL     1      -7.829   7.111  69.375  1.00  0.00     0.000 HD 
HETATM   12  H2  UNL     1     -12.391   8.240  69.359  1.00  0.00     0.000 HD 
HETATM   13  O   UNL     1      -8.777   7.078  69.393  1.00  0.00    -0.133 OA 
HETATM   14  O   UNL     1     -12.810   8.554  71.587  1.00  0.00    -0.320 OA 
HETATM   15  H1  UNL     1     -11.079   9.305  69.584  1.00  0.00     0.000 HD 
ENDROOT
BRANCH   6  16
HETATM   16  C   UNL     2      -7.414   9.384  65.956  1.00  0.00    -0.096 C  
BRANCH  16  17
HETATM   17  C   UNL     2      -8.349  10.035  64.933  1.00  0.00    -0.160 C  
BRANCH  17  18
HETATM   18  C   UNL     2      -9.701  10.520  65.506  1.00  0.00    -0.298 C  
HETATM   19  C   UNL     2     -10.103  11.997  65.293  1.00  0.00    -0.260 C  
HETATM   20  C   UNL     2     -11.535  12.339  65.730  1.00  0.00    -0.417 C  
HETATM   21  O   UNL     2     -10.034  12.254  63.886  1.00  0.00    -0.499 OA 
HETATM   22  C   UNL     2      -9.131  12.905  65.991  1.00  0.00     0.150 C  
HETATM   23  H   UNL     2     -10.281  13.162  63.755  1.00  0.00     0.000 HD 
HETATM   24  C   UNL     2      -9.019  13.124  67.312  1.00  0.00    -0.216 C  
BRANCH  24  25
HETATM   25  C   UNL     2      -7.998  14.029  67.965  1.00  0.00    -0.152 C  
HETATM   26  C   UNL     2      -6.580  13.438  68.142  1.00  0.00    -0.118 C  
HETATM   27  C   UNL     2      -5.774  14.654  68.527  1.00  0.00    -0.099 C  
HETATM   28  O   UNL     2      -5.978  12.942  66.950  1.00  0.00    -0.462 OA 
HETATM   29  H   UNL     2      -5.107  12.578  67.058  1.00  0.00     0.000 HD 
HETATM   30  C   UNL     2      -6.282  15.736  67.576  1.00  0.00    -0.143 C  
HETATM   31  C   UNL     2      -7.762  15.395  67.253  1.00  0.00    -0.245 C  
HETATM   32  O   UNL     2      -6.078  16.992  68.203  1.00  0.00    -0.126 OA 
HETATM   33  H   UNL     2      -6.394  17.665  67.611  1.00  0.00     0.000 HD 
BRANCH  31  34
HETATM   34  C   UNL     2      -8.790  16.477  67.653  1.00  0.00    -0.195 C  
BRANCH  34  35
HETATM   35  C   UNL     2      -9.309  16.338  69.066  1.00  0.00    -0.254 C  
HETATM   36  C   UNL     2     -10.563  16.094  69.477  1.00  0.00    -0.306 C  
BRANCH  36  37
HETATM   37  C   UNL     2     -11.785  15.893  68.627  1.00  0.00    -0.328 C  
BRANCH  37  38
HETATM   38  C   UNL     2     -12.250  14.437  68.569  1.00  0.00    -0.178 C  
BRANCH  38  39
HETATM   39  C   UNL     2     -11.701  13.551  69.678  1.00  0.00    -0.378 C  
HETATM   40  C   UNL     2     -11.943  12.044  69.583  1.00  0.00    -0.293 C  
HETATM   41  O   UNL     2     -11.932  11.443  70.693  1.00  0.00    -0.352 OA 
HETATM   42  O   UNL     2     -12.073  11.496  68.440  1.00  0.00    -0.556 OA 
ENDBRANCH  38  39
ENDBRANCH  37  38
ENDBRANCH  36  37
ENDBRANCH  34  35
ENDBRANCH  31  34
ENDBRANCH  24  25
ENDBRANCH  17  18
ENDBRANCH  16  17
ENDBRANCH   6  16
TORSDOF 9
ENDMDL
MODEL      125
REMARK 921   NORMALIZED FREE ENERGY PREDICTED BY IDOCK:   -5.70 KCAL/MOL
REMARK 922        TOTAL FREE ENERGY PREDICTED BY IDOCK:  -10.63 KCAL/MOL
REMARK 923 INTER-LIGAND FREE ENERGY PREDICTED BY IDOCK:   -7.50 KCAL/MOL
REMARK 924 INTRA-LIGAND FREE ENERGY PREDICTED BY IDOCK:   -3.13 KCAL/MOL
REMARK 927      BINDING AFFINITY PREDICTED BY RF-SCORE:    0.00 PKD
ROOT
HETATM    1  O   UNL     1     -10.709   4.364  63.485  1.00  0.00    -0.435 OA 
HETATM    2  C   UNL     1      -9.919   3.784  64.517  1.00  0.00    -0.201 C  
HETATM    3  H   UNL     1     -11.631   4.158  63.589  1.00  0.00     0.000 HD 
HETATM    4  C   UNL     2      -7.347   9.272  70.626  1.00  0.00    -0.129 C  
HETATM    5  C   UNL     1      -8.409   4.121  64.347  1.00  0.00    -0.101 C  
HETATM    6  C   UNL     2      -6.640   9.118  69.288  1.00  0.00    -0.049 C  
HETATM    7  C   UNL     1      -8.237   5.664  64.288  1.00  0.00    -0.117 C  
HETATM    8  N   UNL     1      -7.721   3.586  65.564  1.00  0.00    -0.081 NA 
HETATM    9  C   UNL     1      -7.721   3.412  63.190  1.00  0.00    -0.067 C  
HETATM   10  H   UNL     1      -7.149   1.580  62.813  1.00  0.00     0.000 HD 
HETATM   11  H   UNL     1      -8.672   7.221  65.425  1.00  0.00     0.000 HD 
HETATM   12  H2  UNL     1      -7.899   2.595  65.728  1.00  0.00     0.000 HD 
HETATM   13  O   UNL     1      -8.778   6.279  65.461  1.00  0.00    -0.147 OA 
HETATM   14  O   UNL     1      -7.579   2.023  63.535  1.00  0.00    -0.053 OA 
HETATM   15  H1  UNL     1      -6.732   3.807  65.452  1.00  0.00     0.000 HD 
ENDROOT
BRANCH   6  16
HETATM   16  C   UNL     2      -6.435   7.663  68.864  1.00  0.00    -0.044 C  
BRANCH  16  17
HETATM   17  C   UNL     2      -7.706   6.929  68.426  1.00  0.00    -0.116 C  
BRANCH  17  18
HETATM   18  C   UNL     2      -8.103   5.729  69.317  1.00  0.00    -0.101 C  
HETATM   19  C   UNL     2      -9.477   5.061  69.082  1.00  0.00    -0.137 C  
HETATM   20  C   UNL     2      -9.705   3.770  69.882  1.00  0.00    -0.200 C  
HETATM   21  O   UNL     2      -9.539   4.700  67.697  1.00  0.00    -0.144 OA 
HETATM   22  C   UNL     2     -10.584   6.036  69.370  1.00  0.00    -0.365 C  
HETATM   23  H   UNL     2     -10.384   4.290  67.553  1.00  0.00     0.000 HD 
HETATM   24  C   UNL     2     -10.998   6.472  70.571  1.00  0.00    -0.348 C  
BRANCH  24  25
HETATM   25  C   UNL     2     -12.101   7.480  70.803  1.00  0.00    -0.190 C  
HETATM   26  C   UNL     2     -13.433   6.917  71.350  1.00  0.00    -0.154 C  
HETATM   27  C   UNL     2     -14.176   8.173  71.735  1.00  0.00    -0.548 C  
HETATM   28  O   UNL     2     -13.322   6.156  72.549  1.00  0.00    -0.374 OA 
HETATM   29  H   UNL     2     -14.140   5.810  72.885  1.00  0.00     0.000 HD 
HETATM   30  C   UNL     2     -13.107   9.025  72.419  1.00  0.00    -0.423 C  
HETATM   31  C   UNL     2     -11.747   8.648  71.773  1.00  0.00    -0.400 C  
HETATM   32  O   UNL     2     -13.485  10.385  72.278  1.00  0.00    -0.594 OA 
HETATM   33  H   UNL     2     -12.820  10.914  72.703  1.00  0.00     0.000 HD 
BRANCH  31  34
HETATM   34  C   UNL     2     -11.002   9.811  71.081  1.00  0.00    -0.386 C  
BRANCH  34  35
HETATM   35  C   UNL     2     -11.705  10.348  69.855  1.00  0.00    -0.341 C  
HETATM   36  C   UNL     2     -11.332  10.258  68.569  1.00  0.00    -0.231 C  
BRANCH  36  37
HETATM   37  C   UNL     2     -10.107   9.591  68.013  1.00  0.00    -0.226 C  
BRANCH  37  38
HETATM   38  C   UNL     2      -9.914   9.829  66.514  1.00  0.00    -0.304 C  
BRANCH  38  39
HETATM   39  C   UNL     2      -8.902  10.911  66.169  1.00  0.00    -0.195 C  
HETATM   40  C   UNL     2      -7.432  10.508  66.044  1.00  0.00    -0.137 C  
HETATM   41  O   UNL     2      -6.614  11.446  66.257  1.00  0.00    -0.078 OA 
HETATM   42  O   UNL     2      -7.129   9.323  65.687  1.00  0.00    -0.081 OA 
ENDBRANCH  38  39
ENDBRANCH  37  38
ENDBRANCH  36  37
ENDBRANCH  34  35
ENDBRANCH  31  34
ENDBRANCH  24  25
ENDBRANCH  17  18
ENDBRANCH  16  17
ENDBRANCH   6  16
TORSDOF 9
ENDMDL
MODEL      126
REMARK 921   NORMALIZED FREE ENERGY PREDICTED BY IDOCK:   -5.70 KCAL/MOL
REMARK 922        TOTAL FREE ENERGY PREDICTED BY IDOCK:  -10.62 KCAL/MOL
REMARK 923 INTER-LIGAND FREE ENERGY PREDICTED BY IDOCK:   -8.80 KCAL/MOL
REMARK 924 INTRA-LIGAND FREE ENERGY PREDICTED BY IDOCK:   -1.82 KCAL/MOL
REMARK 927      BINDING AFFINITY PREDICTED BY RF-SCORE:    0.00 PKD
ROOT
HETATM    1  O   UNL     1      -9.820   4.972  70.587  1.00  0.00    -0.181 OA 
HETATM    2  C   UNL     1     -10.898   5.868  70.334  1.00  0.00    -0.308 C  
HETATM    3  H   UNL     1     -10.029   4.085  70.318  1.00  0.00     0.000 HD 
HETATM    4  C   UNL     2      -9.859  10.933  63.455  1.00  0.00    -0.408 C  
HETATM    5  C   UNL     1     -10.555   7.321  70.774  1.00  0.00    -0.223 C  
HETATM    6  C   UNL     2      -9.248  11.233  64.815  1.00  0.00    -0.107 C  
HETATM    7  C   UNL     1      -9.251   7.774  70.061  1.00  0.00    -0.153 C  
HETATM    8  N   UNL     1     -11.697   8.175  70.319  1.00  0.00    -0.471 NA 
HETATM    9  C   UNL     1     -10.504   7.540  72.278  1.00  0.00    -0.230 C  
HETATM   10  H   UNL     1     -11.817   7.625  73.725  1.00  0.00     0.000 HD 
HETATM   11  H   UNL     1      -8.596   7.956  68.204  1.00  0.00     0.000 HD 
HETATM   12  H2  UNL     1     -12.605   7.852  70.656  1.00  0.00     0.000 HD 
HETATM   13  O   UNL     1      -9.393   7.679  68.640  1.00  0.00    -0.147 OA 
HETATM   14  O   UNL     1     -11.849   7.488  72.785  1.00  0.00    -0.233 OA 
HETATM   15  H1  UNL     1     -11.473   9.127  70.607  1.00  0.00     0.000 HD 
ENDROOT
BRANCH   6  16
HETATM   16  C   UNL     2     -10.216  11.033  65.983  1.00  0.00    -0.305 C  
BRANCH  16  17
HETATM   17  C   UNL     2     -11.351  12.057  66.067  1.00  0.00    -0.398 C  
BRANCH  17  18
HETATM   18  C   UNL     2     -11.796  12.417  67.504  1.00  0.00    -0.354 C  
HETATM   19  C   UNL     2     -11.743  13.899  67.941  1.00  0.00    -0.361 C  
HETATM   20  C   UNL     2     -12.374  14.183  69.312  1.00  0.00    -0.206 C  
HETATM   21  O   UNL     2     -12.495  14.649  66.981  1.00  0.00    -0.488 OA 
HETATM   22  C   UNL     2     -10.324  14.394  67.926  1.00  0.00    -0.232 C  
HETATM   23  H   UNL     2     -12.462  15.559  67.250  1.00  0.00     0.000 HD 
HETATM   24  C   UNL     2      -9.345  14.098  68.798  1.00  0.00    -0.092 C  
BRANCH  24  25
HETATM   25  C   UNL     2      -7.922  14.602  68.718  1.00  0.00    -0.151 C  
HETATM   26  C   UNL     2      -6.814  13.552  68.967  1.00  0.00    -0.107 C  
HETATM   27  C   UNL     2      -5.572  14.290  68.531  1.00  0.00    -0.097 C  
HETATM   28  O   UNL     2      -6.880  12.394  68.141  1.00  0.00    -0.067 OA 
HETATM   29  H   UNL     2      -6.200  11.748  68.294  1.00  0.00     0.000 HD 
HETATM   30  C   UNL     2      -6.003  14.984  67.239  1.00  0.00     0.384 C  
HETATM   31  C   UNL     2      -7.523  15.271  67.367  1.00  0.00    -0.239 C  
HETATM   32  O   UNL     2      -5.186  16.132  67.073  1.00  0.00    -0.329 OA 
HETATM   33  H   UNL     2      -5.454  16.563  66.270  1.00  0.00     0.000 HD 
BRANCH  31  34
HETATM   34  C   UNL     2      -7.921  16.762  67.285  1.00  0.00    -0.197 C  
BRANCH  34  35
HETATM   35  C   UNL     2      -7.877  17.484  68.612  1.00  0.00    -0.272 C  
HETATM   36  C   UNL     2      -7.556  18.763  68.860  1.00  0.00    -0.312 C  
BRANCH  36  37
HETATM   37  C   UNL     2      -7.156  19.817  67.868  1.00  0.00    -0.310 C  
BRANCH  37  38
HETATM   38  C   UNL     2      -8.343  20.597  67.299  1.00  0.00    -0.305 C  
BRANCH  38  39
HETATM   39  C   UNL     2      -9.015  19.944  66.101  1.00  0.00    -0.373 C  
HETATM   40  C   UNL     2     -10.324  19.188  66.332  1.00  0.00    -0.455 C  
HETATM   41  O   UNL     2     -10.563  18.286  65.480  1.00  0.00    -0.632 OA 
HETATM   42  O   UNL     2     -11.094  19.535  67.286  1.00  0.00    -0.444 OA 
ENDBRANCH  38  39
ENDBRANCH  37  38
ENDBRANCH  36  37
ENDBRANCH  34  35
ENDBRANCH  31  34
ENDBRANCH  24  25
ENDBRANCH  17  18
ENDBRANCH  16  17
ENDBRANCH   6  16
TORSDOF 9
ENDMDL
MODEL      127
REMARK 921   NORMALIZED FREE ENERGY PREDICTED BY IDOCK:   -5.69 KCAL/MOL
REMARK 922        TOTAL FREE ENERGY PREDICTED BY IDOCK:  -10.61 KCAL/MOL
REMARK 923 INTER-LIGAND FREE ENERGY PREDICTED BY IDOCK:   -8.56 KCAL/MOL
REMARK 924 INTRA-LIGAND FREE ENERGY PREDICTED BY IDOCK:   -2.05 KCAL/MOL
REMARK 927      BINDING AFFINITY PREDICTED BY RF-SCORE:    0.00 PKD
ROOT
HETATM    1  O   UNL     1     -10.889  17.831  67.655  1.00  0.00    -0.363 OA 
HETATM    2  C   UNL     1     -10.521  16.581  67.080  1.00  0.00    -0.289 C  
HETATM    3  H   UNL     1     -11.560  18.270  67.145  1.00  0.00     0.000 HD 
HETATM    4  C   UNL     2     -13.787   9.669  71.031  1.00  0.00     0.008 C  
HETATM    5  C   UNL     1      -9.423  15.862  67.916  1.00  0.00    -0.213 C  
HETATM    6  C   UNL     2     -12.544  10.401  71.515  1.00  0.00    -0.544 C  
HETATM    7  C   UNL     1      -9.924  15.697  69.377  1.00  0.00    -0.279 C  
HETATM    8  N   UNL     1      -9.241  14.513  67.293  1.00  0.00    -0.199 NA 
HETATM    9  C   UNL     1      -8.043  16.495  67.840  1.00  0.00    -0.163 C  
HETATM   10  H   UNL     1      -6.638  16.633  66.486  1.00  0.00     0.000 HD 
HETATM   11  H   UNL     1     -11.466  14.875  70.303  1.00  0.00     0.000 HD 
HETATM   12  H2  UNL     1      -9.031  14.551  66.296  1.00  0.00     0.000 HD 
HETATM   13  O   UNL     1     -11.160  14.976  69.410  1.00  0.00    -0.252 OA 
HETATM   14  O   UNL     1      -7.501  16.237  66.533  1.00  0.00    -0.231 OA 
HETATM   15  H1  UNL     1      -8.521  14.041  67.841  1.00  0.00     0.000 HD 
ENDROOT
BRANCH   6  16
HETATM   16  C   UNL     2     -11.561  10.751  70.396  1.00  0.00    -0.431 C  
BRANCH  16  17
HETATM   17  C   UNL     2     -10.441   9.730  70.173  1.00  0.00    -0.338 C  
BRANCH  17  18
HETATM   18  C   UNL     2      -9.906   9.062  71.461  1.00  0.00    -0.381 C  
HETATM   19  C   UNL     2      -8.458   8.521  71.463  1.00  0.00    -0.170 C  
HETATM   20  C   UNL     2      -7.955   8.046  72.833  1.00  0.00    -0.202 C  
HETATM   21  O   UNL     2      -7.604   9.601  71.067  1.00  0.00    -0.326 OA 
HETATM   22  C   UNL     2      -8.317   7.412  70.459  1.00  0.00    -0.132 C  
HETATM   23  H   UNL     2      -6.715   9.270  71.067  1.00  0.00     0.000 HD 
HETATM   24  C   UNL     2      -8.788   6.157  70.556  1.00  0.00    -0.146 C  
BRANCH  24  25
HETATM   25  C   UNL     2      -8.643   5.085  69.499  1.00  0.00    -0.102 C  
HETATM   26  C   UNL     2      -8.485   3.636  70.017  1.00  0.00    -0.059 C  
HETATM   27  C   UNL     2      -8.664   2.826  68.757  1.00  0.00    -0.132 C  
HETATM   28  O   UNL     2      -9.510   3.195  70.904  1.00  0.00    -0.140 OA 
HETATM   29  H   UNL     2      -9.413   2.306  71.222  1.00  0.00     0.000 HD 
HETATM   30  C   UNL     2      -9.843   3.504  68.060  1.00  0.00     0.131 C  
HETATM   31  C   UNL     2      -9.807   5.001  68.466  1.00  0.00    -0.216 C  
HETATM   32  O   UNL     2      -9.723   3.255  66.668  1.00  0.00    -0.406 OA 
HETATM   33  H   UNL     2     -10.456   3.676  66.235  1.00  0.00     0.000 HD 
BRANCH  31  34
HETATM   34  C   UNL     2      -9.656   5.998  67.295  1.00  0.00    -0.124 C  
BRANCH  34  35
HETATM   35  C   UNL     2     -10.741   7.049  67.239  1.00  0.00    -0.412 C  
HETATM   36  C   UNL     2     -10.651   8.325  66.831  1.00  0.00    -0.302 C  
BRANCH  36  37
HETATM   37  C   UNL     2      -9.434   9.041  66.317  1.00  0.00    -0.306 C  
BRANCH  37  38
HETATM   38  C   UNL     2      -9.717   9.914  65.093  1.00  0.00    -0.376 C  
BRANCH  38  39
HETATM   39  C   UNL     2      -9.928  11.389  65.402  1.00  0.00    -0.289 C  
HETATM   40  C   UNL     2     -10.669  12.241  64.370  1.00  0.00    -0.331 C  
HETATM   41  O   UNL     2     -10.390  13.472  64.414  1.00  0.00    -0.433 OA 
HETATM   42  O   UNL     2     -11.531  11.700  63.605  1.00  0.00    -0.418 OA 
ENDBRANCH  38  39
ENDBRANCH  37  38
ENDBRANCH  36  37
ENDBRANCH  34  35
ENDBRANCH  31  34
ENDBRANCH  24  25
ENDBRANCH  17  18
ENDBRANCH  16  17
ENDBRANCH   6  16
TORSDOF 9
ENDMDL
MODEL      128
REMARK 921   NORMALIZED FREE ENERGY PREDICTED BY IDOCK:   -5.68 KCAL/MOL
REMARK 922        TOTAL FREE ENERGY PREDICTED BY IDOCK:  -10.59 KCAL/MOL
REMARK 923 INTER-LIGAND FREE ENERGY PREDICTED BY IDOCK:   -8.71 KCAL/MOL
REMARK 924 INTRA-LIGAND FREE ENERGY PREDICTED BY IDOCK:   -1.88 KCAL/MOL
REMARK 927      BINDING AFFINITY PREDICTED BY RF-SCORE:    0.00 PKD
ROOT
HETATM    1  O   UNL     1     -10.546   5.076  69.143  1.00  0.00    -0.121 OA 
HETATM    2  C   UNL     1     -11.248   6.253  69.528  1.00  0.00    -0.430 C  
HETATM    3  H   UNL     1     -11.133   4.337  69.028  1.00  0.00     0.000 HD 
HETATM    4  C   UNL     2     -12.390  12.013  63.238  1.00  0.00    -0.553 C  
HETATM    5  C   UNL     1     -10.287   7.463  69.716  1.00  0.00    -0.222 C  
HETATM    6  C   UNL     2     -11.103  11.894  64.040  1.00  0.00    -0.459 C  
HETATM    7  C   UNL     1      -9.479   7.677  68.406  1.00  0.00    -0.150 C  
HETATM    8  N   UNL     1     -11.158   8.653  69.968  1.00  0.00    -0.384 NA 
HETATM    9  C   UNL     1      -9.396   7.388  70.946  1.00  0.00    -0.155 C  
HETATM   10  H   UNL     1      -9.658   7.554  72.877  1.00  0.00     0.000 HD 
HETATM   11  H   UNL     1      -9.866   8.010  66.496  1.00  0.00     0.000 HD 
HETATM   12  H2  UNL     1     -11.806   8.526  70.746  1.00  0.00     0.000 HD 
HETATM   13  O   UNL     1     -10.360   7.879  67.296  1.00  0.00    -0.249 OA 
HETATM   14  O   UNL     1     -10.215   7.601  72.108  1.00  0.00    -0.192 OA 
HETATM   15  H1  UNL     1     -10.528   9.446  70.091  1.00  0.00     0.000 HD 
ENDROOT
BRANCH   6  16
HETATM   16  C   UNL     2     -11.328  11.750  65.546  1.00  0.00    -0.283 C  
BRANCH  16  17
HETATM   17  C   UNL     2     -10.359  10.803  66.259  1.00  0.00    -0.303 C  
BRANCH  17  18
HETATM   18  C   UNL     2      -8.865  11.041  65.939  1.00  0.00    -0.204 C  
HETATM   19  C   UNL     2      -7.932  11.507  67.081  1.00  0.00    -0.160 C  
HETATM   20  C   UNL     2      -6.441  11.538  66.716  1.00  0.00    -0.128 C  
HETATM   21  O   UNL     2      -8.071  10.564  68.150  1.00  0.00    -0.108 OA 
HETATM   22  C   UNL     2      -8.359  12.858  67.581  1.00  0.00    -0.176 C  
HETATM   23  H   UNL     2      -7.499  10.850  68.852  1.00  0.00     0.000 HD 
HETATM   24  C   UNL     2      -8.203  14.044  66.967  1.00  0.00    -0.078 C  
BRANCH  24  25
HETATM   25  C   UNL     2      -8.680  15.375  67.504  1.00  0.00    -0.186 C  
HETATM   26  C   UNL     2      -7.735  16.083  68.501  1.00  0.00    -0.158 C  
HETATM   27  C   UNL     2      -8.347  17.460  68.597  1.00  0.00    -0.264 C  
HETATM   28  O   UNL     2      -6.405  16.288  68.035  1.00  0.00    -0.119 OA 
HETATM   29  H   UNL     2      -5.824  16.723  68.648  1.00  0.00     0.000 HD 
HETATM   30  C   UNL     2      -8.689  17.800  67.147  1.00  0.00    -0.245 C  
HETATM   31  C   UNL     2      -8.989  16.459  66.426  1.00  0.00    -0.340 C  
HETATM   32  O   UNL     2      -9.763  18.728  67.164  1.00  0.00    -0.288 OA 
HETATM   33  H   UNL     2      -9.975  18.939  66.262  1.00  0.00     0.000 HD 
BRANCH  31  34
HETATM   34  C   UNL     2     -10.408  16.336  65.827  1.00  0.00    -0.393 C  
BRANCH  34  35
HETATM   35  C   UNL     2     -11.132  15.068  66.218  1.00  0.00    -0.334 C  
HETATM   36  C   UNL     2     -11.639  14.729  67.413  1.00  0.00    -0.377 C  
BRANCH  36  37
HETATM   37  C   UNL     2     -11.619  15.534  68.681  1.00  0.00    -0.379 C  
BRANCH  37  38
HETATM   38  C   UNL     2     -11.445  14.680  69.939  1.00  0.00    -0.320 C  
BRANCH  38  39
HETATM   39  C   UNL     2     -12.301  13.423  69.975  1.00  0.00    -0.294 C  
HETATM   40  C   UNL     2     -11.686  12.117  69.470  1.00  0.00    -0.336 C  
HETATM   41  O   UNL     2     -12.527  11.270  69.057  1.00  0.00    -0.417 OA 
HETATM   42  O   UNL     2     -10.427  11.939  69.550  1.00  0.00     0.090 OA 
ENDBRANCH  38  39
ENDBRANCH  37  38
ENDBRANCH  36  37
ENDBRANCH  34  35
ENDBRANCH  31  34
ENDBRANCH  24  25
ENDBRANCH  17  18
ENDBRANCH  16  17
ENDBRANCH   6  16
TORSDOF 9
ENDMDL
MODEL      129
REMARK 921   NORMALIZED FREE ENERGY PREDICTED BY IDOCK:   -5.68 KCAL/MOL
REMARK 922        TOTAL FREE ENERGY PREDICTED BY IDOCK:  -10.59 KCAL/MOL
REMARK 923 INTER-LIGAND FREE ENERGY PREDICTED BY IDOCK:   -8.33 KCAL/MOL
REMARK 924 INTRA-LIGAND FREE ENERGY PREDICTED BY IDOCK:   -2.25 KCAL/MOL
REMARK 927      BINDING AFFINITY PREDICTED BY RF-SCORE:    0.00 PKD
ROOT
HETATM    1  O   UNL     1     -10.677  17.083  68.725  1.00  0.00    -0.337 OA 
HETATM    2  C   UNL     1     -10.330  15.876  69.396  1.00  0.00    -0.265 C  
HETATM    3  H   UNL     1      -9.982  17.729  68.780  1.00  0.00     0.000 HD 
HETATM    4  C   UNL     2      -8.012   9.395  64.232  1.00  0.00    -0.133 C  
HETATM    5  C   UNL     1     -11.468  14.818  69.305  1.00  0.00    -0.296 C  
HETATM    6  C   UNL     2      -9.461   9.752  64.527  1.00  0.00    -0.269 C  
HETATM    7  C   UNL     1     -11.810  14.567  67.810  1.00  0.00    -0.357 C  
HETATM    8  N   UNL     1     -10.922  13.563  69.911  1.00  0.00    -0.402 NA 
HETATM    9  C   UNL     1     -12.700  15.128  70.141  1.00  0.00    -0.235 C  
HETATM   10  H   UNL     1     -13.132  15.134  72.049  1.00  0.00     0.000 HD 
HETATM   11  H   UNL     1     -10.856  13.993  66.176  1.00  0.00     0.000 HD 
HETATM   12  H2  UNL     1     -10.563  13.692  70.857  1.00  0.00     0.000 HD 
HETATM   13  O   UNL     1     -10.648  14.146  67.089  1.00  0.00    -0.275 OA 
HETATM   14  O   UNL     1     -12.362  14.940  71.526  1.00  0.00    -0.303 OA 
HETATM   15  H1  UNL     1     -11.667  12.870  69.851  1.00  0.00     0.000 HD 
ENDROOT
BRANCH   6  16
HETATM   16  C   UNL     2      -9.737  10.024  66.007  1.00  0.00    -0.301 C  
BRANCH  16  17
HETATM   17  C   UNL     2     -10.402   8.872  66.766  1.00  0.00    -0.317 C  
BRANCH  17  18
HETATM   18  C   UNL     2      -9.628   7.535  66.724  1.00  0.00    -0.265 C  
HETATM   19  C   UNL     2     -10.390   6.232  67.057  1.00  0.00    -0.240 C  
HETATM   20  C   UNL     2      -9.592   4.943  66.810  1.00  0.00    -0.170 C  
HETATM   21  O   UNL     2     -11.530   6.178  66.191  1.00  0.00    -0.423 OA 
HETATM   22  C   UNL     2     -10.874   6.262  68.479  1.00  0.00    -0.394 C  
HETATM   23  H   UNL     2     -11.999   5.377  66.395  1.00  0.00     0.000 HD 
HETATM   24  C   UNL     2     -10.141   6.121  69.596  1.00  0.00    -0.226 C  
BRANCH  24  25
HETATM   25  C   UNL     2     -10.677   6.191  71.008  1.00  0.00    -0.317 C  
HETATM   26  C   UNL     2     -10.628   4.876  71.820  1.00  0.00    -0.094 C  
HETATM   27  C   UNL     2     -10.941   5.352  73.217  1.00  0.00    -0.358 C  
HETATM   28  O   UNL     2      -9.345   4.263  71.903  1.00  0.00    -0.121 OA 
HETATM   29  H   UNL     2      -9.314   3.455  72.402  1.00  0.00     0.000 HD 
HETATM   30  C   UNL     2     -10.113   6.629  73.354  1.00  0.00    -0.228 C  
HETATM   31  C   UNL     2      -9.991   7.242  71.934  1.00  0.00    -0.184 C  
HETATM   32  O   UNL     2     -10.753   7.456  74.314  1.00  0.00    -0.454 OA 
HETATM   33  H   UNL     2     -10.238   8.250  74.398  1.00  0.00     0.000 HD 
BRANCH  31  34
HETATM   34  C   UNL     2     -10.574   8.664  71.777  1.00  0.00    -0.395 C  
BRANCH  34  35
HETATM   35  C   UNL     2     -10.363   9.267  70.407  1.00  0.00    -0.291 C  
HETATM   36  C   UNL     2      -9.233   9.753  69.871  1.00  0.00    -0.263 C  
BRANCH  36  37
HETATM   37  C   UNL     2      -7.872   9.822  70.504  1.00  0.00    -0.075 C  
BRANCH  37  38
HETATM   38  C   UNL     2      -6.788   9.119  69.685  1.00  0.00    -0.054 C  
BRANCH  38  39
HETATM   39  C   UNL     2      -6.751   9.508  68.215  1.00  0.00    -0.058 C  
HETATM   40  C   UNL     2      -6.337  10.936  67.857  1.00  0.00    -0.057 C  
HETATM   41  O   UNL     2      -6.787  11.348  66.751  1.00  0.00    -0.132 OA 
HETATM   42  O   UNL     2      -5.548  11.576  68.625  1.00  0.00    -0.043 OA 
ENDBRANCH  38  39
ENDBRANCH  37  38
ENDBRANCH  36  37
ENDBRANCH  34  35
ENDBRANCH  31  34
ENDBRANCH  24  25
ENDBRANCH  17  18
ENDBRANCH  16  17
ENDBRANCH   6  16
TORSDOF 9
ENDMDL
MODEL      130
REMARK 921   NORMALIZED FREE ENERGY PREDICTED BY IDOCK:   -5.66 KCAL/MOL
REMARK 922        TOTAL FREE ENERGY PREDICTED BY IDOCK:  -10.57 KCAL/MOL
REMARK 923 INTER-LIGAND FREE ENERGY PREDICTED BY IDOCK:   -8.16 KCAL/MOL
REMARK 924 INTRA-LIGAND FREE ENERGY PREDICTED BY IDOCK:   -2.41 KCAL/MOL
REMARK 927      BINDING AFFINITY PREDICTED BY RF-SCORE:    0.00 PKD
ROOT
HETATM    1  O   UNL     1      -9.863  13.007  63.730  1.00  0.00    -0.730 OA 
HETATM    2  C   UNL     1     -10.198  13.878  64.806  1.00  0.00    -0.324 C  
HETATM    3  H   UNL     1      -8.924  12.965  63.591  1.00  0.00     0.000 HD 
HETATM    4  C   UNL     2     -12.328   9.921  72.145  1.00  0.00    -0.149 C  
HETATM    5  C   UNL     1     -11.736  13.946  65.035  1.00  0.00    -0.359 C  
HETATM    6  C   UNL     2     -13.299  10.127  70.992  1.00  0.00    -0.333 C  
HETATM    7  C   UNL     1     -12.279  12.508  65.268  1.00  0.00    -0.433 C  
HETATM    8  N   UNL     1     -11.938  14.764  66.271  1.00  0.00    -0.232 NA 
HETATM    9  C   UNL     1     -12.512  14.696  63.963  1.00  0.00    -0.018 C  
HETATM   10  H   UNL     1     -12.711  16.567  63.430  1.00  0.00     0.000 HD 
HETATM   11  H   UNL     1     -11.945  11.012  66.517  1.00  0.00     0.000 HD 
HETATM   12  H2  UNL     1     -11.494  15.682  66.228  1.00  0.00     0.000 HD 
HETATM   13  O   UNL     1     -11.614  11.890  66.374  1.00  0.00    -0.451 OA 
HETATM   14  O   UNL     1     -12.226  16.098  64.100  1.00  0.00    -0.700 OA 
HETATM   15  H1  UNL     1     -12.946  14.809  66.422  1.00  0.00     0.000 HD 
ENDROOT
BRANCH   6  16
HETATM   16  C   UNL     2     -13.256  11.534  70.394  1.00  0.00     0.547 C  
BRANCH  16  17
HETATM   17  C   UNL     2     -11.932  12.280  70.586  1.00  0.00    -0.218 C  
BRANCH  17  18
HETATM   18  C   UNL     2     -12.000  13.486  71.551  1.00  0.00     0.416 C  
HETATM   19  C   UNL     2     -12.605  14.811  71.032  1.00  0.00    -0.333 C  
HETATM   20  C   UNL     2     -12.800  15.889  72.108  1.00  0.00    -0.491 C  
HETATM   21  O   UNL     2     -13.906  14.507  70.517  1.00  0.00    -0.363 OA 
HETATM   22  C   UNL     2     -11.767  15.360  69.912  1.00  0.00    -0.357 C  
HETATM   23  H   UNL     2     -14.278  15.321  70.198  1.00  0.00     0.000 HD 
HETATM   24  C   UNL     2     -10.560  15.944  70.004  1.00  0.00    -0.320 C  
BRANCH  24  25
HETATM   25  C   UNL     2      -9.744  16.454  68.837  1.00  0.00    -0.257 C  
HETATM   26  C   UNL     2     -10.203  17.796  68.221  1.00  0.00    -0.382 C  
HETATM   27  C   UNL     2      -9.044  18.147  67.322  1.00  0.00    -0.252 C  
HETATM   28  O   UNL     2     -10.315  18.878  69.141  1.00  0.00    -0.508 OA 
HETATM   29  H   UNL     2     -10.597  19.702  68.763  1.00  0.00     0.000 HD 
HETATM   30  C   UNL     2      -7.818  17.818  68.173  1.00  0.00    -0.264 C  
HETATM   31  C   UNL     2      -8.225  16.659  69.121  1.00  0.00    -0.126 C  
HETATM   32  O   UNL     2      -6.746  17.526  67.291  1.00  0.00    -0.156 OA 
HETATM   33  H   UNL     2      -5.984  17.321  67.820  1.00  0.00     0.000 HD 
BRANCH  31  34
HETATM   34  C   UNL     2      -7.397  15.362  68.971  1.00  0.00    -0.159 C  
BRANCH  34  35
HETATM   35  C   UNL     2      -7.883  14.447  67.870  1.00  0.00    -0.155 C  
HETATM   36  C   UNL     2      -7.712  13.122  67.746  1.00  0.00    -0.153 C  
BRANCH  36  37
HETATM   37  C   UNL     2      -6.985  12.199  68.682  1.00  0.00    -0.097 C  
BRANCH  37  38
HETATM   38  C   UNL     2      -7.634  10.818  68.795  1.00  0.00    -0.113 C  
BRANCH  38  39
HETATM   39  C   UNL     2      -9.134  10.798  68.542  1.00  0.00    -0.170 C  
HETATM   40  C   UNL     2      -9.953   9.662  69.156  1.00  0.00    -0.185 C  
HETATM   41  O   UNL     2     -11.026   9.403  68.542  1.00  0.00    -0.148 OA 
HETATM   42  O   UNL     2      -9.560   9.111  70.235  1.00  0.00    -0.182 OA 
ENDBRANCH  38  39
ENDBRANCH  37  38
ENDBRANCH  36  37
ENDBRANCH  34  35
ENDBRANCH  31  34
ENDBRANCH  24  25
ENDBRANCH  17  18
ENDBRANCH  16  17
ENDBRANCH   6  16
TORSDOF 9
ENDMDL
MODEL      131
REMARK 921   NORMALIZED FREE ENERGY PREDICTED BY IDOCK:   -5.65 KCAL/MOL
REMARK 922        TOTAL FREE ENERGY PREDICTED BY IDOCK:  -10.55 KCAL/MOL
REMARK 923 INTER-LIGAND FREE ENERGY PREDICTED BY IDOCK:   -7.98 KCAL/MOL
REMARK 924 INTRA-LIGAND FREE ENERGY PREDICTED BY IDOCK:   -2.57 KCAL/MOL
REMARK 927      BINDING AFFINITY PREDICTED BY RF-SCORE:    0.00 PKD
ROOT
HETATM    1  O   UNL     1     -10.311   5.279  73.334  1.00  0.00    -0.178 OA 
HETATM    2  C   UNL     1      -9.019   5.068  72.775  1.00  0.00    -0.120 C  
HETATM    3  H   UNL     1     -10.266   5.478  74.261  1.00  0.00     0.000 HD 
HETATM    4  C   UNL     2      -5.964  11.638  68.132  1.00  0.00    -0.046 C  
HETATM    5  C   UNL     1      -9.093   4.742  71.255  1.00  0.00    -0.138 C  
HETATM    6  C   UNL     2      -6.938  10.606  67.582  1.00  0.00    -0.079 C  
HETATM    7  C   UNL     1      -9.855   5.884  70.527  1.00  0.00    -0.183 C  
HETATM    8  N   UNL     1      -7.679   4.695  70.768  1.00  0.00    -0.060 NA 
HETATM    9  C   UNL     1      -9.647   3.366  70.921  1.00  0.00    -0.169 C  
HETATM   10  H   UNL     1      -9.009   1.524  71.080  1.00  0.00     0.000 HD 
HETATM   11  H   UNL     1      -9.685   7.843  70.315  1.00  0.00     0.000 HD 
HETATM   12  H2  UNL     1      -7.090   4.047  71.293  1.00  0.00     0.000 HD 
HETATM   13  O   UNL     1      -9.219   7.145  70.759  1.00  0.00    -0.156 OA 
HETATM   14  O   UNL     1      -8.663   2.384  71.288  1.00  0.00    -0.061 OA 
HETATM   15  H1  UNL     1      -7.727   4.481  69.772  1.00  0.00     0.000 HD 
ENDROOT
BRANCH   6  16
HETATM   16  C   UNL     2      -6.576   9.165  67.945  1.00  0.00    -0.063 C  
BRANCH  16  17
HETATM   17  C   UNL     2      -6.767   8.145  66.819  1.00  0.00    -0.064 C  
BRANCH  17  18
HETATM   18  C   UNL     2      -7.785   7.022  67.126  1.00  0.00    -0.108 C  
HETATM   19  C   UNL     2      -9.176   7.084  66.454  1.00  0.00    -0.149 C  
HETATM   20  C   UNL     2     -10.046   5.837  66.670  1.00  0.00    -0.235 C  
HETATM   21  O   UNL     2      -8.958   7.190  65.043  1.00  0.00    -0.342 OA 
HETATM   22  C   UNL     2      -9.920   8.306  66.914  1.00  0.00    -0.343 C  
HETATM   23  H   UNL     2      -9.812   7.229  64.630  1.00  0.00     0.000 HD 
HETATM   24  C   UNL     2     -10.487   8.515  68.114  1.00  0.00    -0.236 C  
BRANCH  24  25
HETATM   25  C   UNL     2     -11.200   9.780  68.536  1.00  0.00    -0.069 C  
HETATM   26  C   UNL     2     -11.209  10.082  70.053  1.00  0.00    -0.288 C  
HETATM   27  C   UNL     2     -11.714  11.503  70.091  1.00  0.00    -0.395 C  
HETATM   28  O   UNL     2      -9.927  10.114  70.672  1.00  0.00    -0.340 OA 
HETATM   29  H   UNL     2      -9.932  10.299  71.603  1.00  0.00     0.000 HD 
HETATM   30  C   UNL     2     -10.954  12.183  68.953  1.00  0.00    -0.224 C  
HETATM   31  C   UNL     2     -10.673  11.095  67.884  1.00  0.00    -0.261 C  
HETATM   32  O   UNL     2     -11.738  13.278  68.506  1.00  0.00    -0.310 OA 
HETATM   33  H   UNL     2     -11.266  13.701  67.798  1.00  0.00     0.000 HD 
BRANCH  31  34
HETATM   34  C   UNL     2     -11.280  11.368  66.489  1.00  0.00    -0.276 C  
BRANCH  34  35
HETATM   35  C   UNL     2     -10.252  11.532  65.393  1.00  0.00    -0.311 C  
HETATM   36  C   UNL     2     -10.438  11.921  64.122  1.00  0.00    -0.393 C  
BRANCH  36  37
HETATM   37  C   UNL     2     -11.730  12.301  63.458  1.00  0.00    -0.584 C  
BRANCH  37  38
HETATM   38  C   UNL     2     -12.013  13.803  63.498  1.00  0.00    -0.197 C  
BRANCH  38  39
HETATM   39  C   UNL     2     -12.185  14.380  64.895  1.00  0.00    -0.440 C  
HETATM   40  C   UNL     2     -11.115  15.340  65.415  1.00  0.00    -0.347 C  
HETATM   41  O   UNL     2     -11.023  15.386  66.674  1.00  0.00    -0.313 OA 
HETATM   42  O   UNL     2     -10.453  16.054  64.593  1.00  0.00    -0.502 OA 
ENDBRANCH  38  39
ENDBRANCH  37  38
ENDBRANCH  36  37
ENDBRANCH  34  35
ENDBRANCH  31  34
ENDBRANCH  24  25
ENDBRANCH  17  18
ENDBRANCH  16  17
ENDBRANCH   6  16
TORSDOF 9
ENDMDL
MODEL      132
REMARK 921   NORMALIZED FREE ENERGY PREDICTED BY IDOCK:   -5.64 KCAL/MOL
REMARK 922        TOTAL FREE ENERGY PREDICTED BY IDOCK:  -10.53 KCAL/MOL
REMARK 923 INTER-LIGAND FREE ENERGY PREDICTED BY IDOCK:   -9.23 KCAL/MOL
REMARK 924 INTRA-LIGAND FREE ENERGY PREDICTED BY IDOCK:   -1.30 KCAL/MOL
REMARK 927      BINDING AFFINITY PREDICTED BY RF-SCORE:    0.00 PKD
ROOT
HETATM    1  O   UNL     1      -8.569   6.155  63.622  1.00  0.00    -0.334 OA 
HETATM    2  C   UNL     1      -7.554   6.573  64.529  1.00  0.00    -0.101 C  
HETATM    3  H   UNL     1      -8.532   5.219  63.459  1.00  0.00     0.000 HD 
HETATM    4  C   UNL     2     -10.270   8.126  72.545  1.00  0.00    -0.383 C  
HETATM    5  C   UNL     1      -7.615   8.105  64.796  1.00  0.00    -0.101 C  
HETATM    6  C   UNL     2     -10.394   9.131  71.410  1.00  0.00    -0.409 C  
HETATM    7  C   UNL     1      -9.033   8.474  65.311  1.00  0.00    -0.050 C  
HETATM    8  N   UNL     1      -6.605   8.382  65.866  1.00  0.00    -0.053 NA 
HETATM    9  C   UNL     1      -7.170   8.977  63.632  1.00  0.00    -0.093 C  
HETATM   10  H   UNL     1      -5.466   9.398  62.770  1.00  0.00     0.000 HD 
HETATM   11  H   UNL     1     -10.222   7.953  66.803  1.00  0.00     0.000 HD 
HETATM   12  H2  UNL     1      -5.669   8.048  65.638  1.00  0.00     0.000 HD 
HETATM   13  O   UNL     1      -9.355   7.727  66.488  1.00  0.00    -0.172 OA 
HETATM   14  O   UNL     1      -5.744   8.853  63.497  1.00  0.00    -0.074 OA 
HETATM   15  H1  UNL     1      -6.645   9.386  66.042  1.00  0.00     0.000 HD 
ENDROOT
BRANCH   6  16
HETATM   16  C   UNL     2      -9.128   9.259  70.561  1.00  0.00    -0.307 C  
BRANCH  16  17
HETATM   17  C   UNL     2      -9.197  10.308  69.447  1.00  0.00    -0.206 C  
BRANCH  17  18
HETATM   18  C   UNL     2      -8.048  10.236  68.415  1.00  0.00    -0.109 C  
HETATM   19  C   UNL     2      -7.458  11.559  67.876  1.00  0.00    -0.103 C  
HETATM   20  C   UNL     2      -6.206  11.392  67.003  1.00  0.00    -0.123 C  
HETATM   21  O   UNL     2      -7.064  12.338  69.011  1.00  0.00    -0.153 OA 
HETATM   22  C   UNL     2      -8.506  12.322  67.116  1.00  0.00    -0.184 C  
HETATM   23  H   UNL     2      -6.703  13.152  68.680  1.00  0.00     0.000 HD 
HETATM   24  C   UNL     2      -8.999  12.043  65.898  1.00  0.00     0.035 C  
BRANCH  24  25
HETATM   25  C   UNL     2     -10.079  12.830  65.190  1.00  0.00    -0.246 C  
HETATM   26  C   UNL     2     -10.600  12.229  63.864  1.00  0.00    -0.427 C  
HETATM   27  C   UNL     2     -11.825  13.069  63.593  1.00  0.00    -0.580 C  
HETATM   28  O   UNL     2     -11.069  10.886  63.950  1.00  0.00    -0.423 OA 
HETATM   29  H   UNL     2     -11.389  10.517  63.136  1.00  0.00     0.000 HD 
HETATM   30  C   UNL     2     -12.496  13.174  64.962  1.00  0.00    -0.460 C  
HETATM   31  C   UNL     2     -11.368  13.100  66.025  1.00  0.00    -0.337 C  
HETATM   32  O   UNL     2     -13.259  14.371  64.976  1.00  0.00    -0.562 OA 
HETATM   33  H   UNL     2     -13.676  14.436  65.827  1.00  0.00     0.000 HD 
BRANCH  31  34
HETATM   34  C   UNL     2     -11.249  14.335  66.947  1.00  0.00    -0.333 C  
BRANCH  34  35
HETATM   35  C   UNL     2     -12.009  14.206  68.247  1.00  0.00    -0.367 C  
HETATM   36  C   UNL     2     -11.683  14.682  69.458  1.00  0.00    -0.366 C  
BRANCH  36  37
HETATM   37  C   UNL     2     -10.466  15.478  69.835  1.00  0.00    -0.323 C  
BRANCH  37  38
HETATM   38  C   UNL     2     -10.515  16.927  69.348  1.00  0.00    -0.283 C  
BRANCH  38  39
HETATM   39  C   UNL     2     -10.045  17.132  67.915  1.00  0.00    -0.308 C  
HETATM   40  C   UNL     2     -10.523  18.379  67.171  1.00  0.00    -0.404 C  
HETATM   41  O   UNL     2     -10.540  18.263  65.914  1.00  0.00    -0.477 OA 
HETATM   42  O   UNL     2     -10.802  19.437  67.825  1.00  0.00    -0.418 OA 
ENDBRANCH  38  39
ENDBRANCH  37  38
ENDBRANCH  36  37
ENDBRANCH  34  35
ENDBRANCH  31  34
ENDBRANCH  24  25
ENDBRANCH  17  18
ENDBRANCH  16  17
ENDBRANCH   6  16
TORSDOF 9
ENDMDL
MODEL      133
REMARK 921   NORMALIZED FREE ENERGY PREDICTED BY IDOCK:   -5.63 KCAL/MOL
REMARK 922        TOTAL FREE ENERGY PREDICTED BY IDOCK:  -10.52 KCAL/MOL
REMARK 923 INTER-LIGAND FREE ENERGY PREDICTED BY IDOCK:   -8.54 KCAL/MOL
REMARK 924 INTRA-LIGAND FREE ENERGY PREDICTED BY IDOCK:   -1.98 KCAL/MOL
REMARK 927      BINDING AFFINITY PREDICTED BY RF-SCORE:    0.00 PKD
ROOT
HETATM    1  O   UNL     1     -10.115  17.648  67.331  1.00  0.00    -0.307 OA 
HETATM    2  C   UNL     1      -9.557  16.654  68.185  1.00  0.00    -0.228 C  
HETATM    3  H   UNL     1      -9.489  18.334  67.132  1.00  0.00     0.000 HD 
HETATM    4  C   UNL     2      -7.349   9.324  64.254  1.00  0.00    -0.106 C  
HETATM    5  C   UNL     1     -10.583  15.530  68.511  1.00  0.00    -0.246 C  
HETATM    6  C   UNL     2      -8.770   9.643  64.694  1.00  0.00    -0.227 C  
HETATM    7  C   UNL     1     -11.106  14.919  67.182  1.00  0.00    -0.332 C  
HETATM    8  N   UNL     1      -9.832  14.489  69.280  1.00  0.00    -0.416 NA 
HETATM    9  C   UNL     1     -11.709  15.942  69.447  1.00  0.00    -0.343 C  
HETATM   10  H   UNL     1     -11.864  16.360  71.351  1.00  0.00     0.000 HD 
HETATM   11  H   UNL     1     -10.340  14.047  65.581  1.00  0.00     0.000 HD 
HETATM   12  H2  UNL     1      -9.358  14.857  70.106  1.00  0.00     0.000 HD 
HETATM   13  O   UNL     1     -10.021  14.421  66.393  1.00  0.00    -0.272 OA 
HETATM   14  O   UNL     1     -11.161  16.103  70.766  1.00  0.00    -0.339 OA 
HETATM   15  H1  UNL     1     -10.504  13.753  69.494  1.00  0.00     0.000 HD 
ENDROOT
BRANCH   6  16
HETATM   16  C   UNL     2      -8.860  10.231  66.104  1.00  0.00    -0.166 C  
BRANCH  16  17
HETATM   17  C   UNL     2      -9.823  11.413  66.253  1.00  0.00    -0.250 C  
BRANCH  17  18
HETATM   18  C   UNL     2     -11.073  11.127  67.118  1.00  0.00    -0.352 C  
HETATM   19  C   UNL     2     -10.868  10.705  68.591  1.00  0.00    -0.227 C  
HETATM   20  C   UNL     2     -12.159  10.624  69.417  1.00  0.00    -0.250 C  
HETATM   21  O   UNL     2     -10.051  11.706  69.207  1.00  0.00    -0.415 OA 
HETATM   22  C   UNL     2     -10.142   9.391  68.657  1.00  0.00    -0.208 C  
HETATM   23  H   UNL     2      -9.924  11.447  70.111  1.00  0.00     0.000 HD 
HETATM   24  C   UNL     2     -10.629   8.171  68.372  1.00  0.00    -0.148 C  
BRANCH  24  25
HETATM   25  C   UNL     2      -9.843   6.881  68.427  1.00  0.00    -0.143 C  
HETATM   26  C   UNL     2      -9.975   5.952  67.198  1.00  0.00    -0.159 C  
HETATM   27  C   UNL     2      -8.875   4.947  67.439  1.00  0.00    -0.103 C  
HETATM   28  O   UNL     2      -9.672   6.557  65.945  1.00  0.00    -0.393 OA 
HETATM   29  H   UNL     2      -9.753   5.987  65.190  1.00  0.00     0.000 HD 
HETATM   30  C   UNL     2      -7.701   5.807  67.906  1.00  0.00    -0.097 C  
HETATM   31  C   UNL     2      -8.305   7.042  68.627  1.00  0.00    -0.122 C  
HETATM   32  O   UNL     2      -6.863   4.991  68.710  1.00  0.00    -0.049 OA 
HETATM   33  H   UNL     2      -6.134   5.526  69.001  1.00  0.00     0.000 HD 
BRANCH  31  34
HETATM   34  C   UNL     2      -7.897   7.206  70.108  1.00  0.00    -0.108 C  
BRANCH  34  35
HETATM   35  C   UNL     2      -8.685   6.337  71.062  1.00  0.00    -0.136 C  
HETATM   36  C   UNL     2      -9.385   6.706  72.146  1.00  0.00    -0.142 C  
BRANCH  36  37
HETATM   37  C   UNL     2      -9.568   8.093  72.693  1.00  0.00    -0.352 C  
BRANCH  37  38
HETATM   38  C   UNL     2     -10.690   8.873  72.004  1.00  0.00    -0.389 C  
BRANCH  38  39
HETATM   39  C   UNL     2     -12.088   8.549  72.507  1.00  0.00    -0.395 C  
HETATM   40  C   UNL     2     -12.985   7.674  71.630  1.00  0.00    -0.350 C  
HETATM   41  O   UNL     2     -14.222   7.844  71.816  1.00  0.00    -0.404 OA 
HETATM   42  O   UNL     2     -12.460   6.819  70.845  1.00  0.00    -0.364 OA 
ENDBRANCH  38  39
ENDBRANCH  37  38
ENDBRANCH  36  37
ENDBRANCH  34  35
ENDBRANCH  31  34
ENDBRANCH  24  25
ENDBRANCH  17  18
ENDBRANCH  16  17
ENDBRANCH   6  16
TORSDOF 9
ENDMDL
MODEL      134
REMARK 921   NORMALIZED FREE ENERGY PREDICTED BY IDOCK:   -5.62 KCAL/MOL
REMARK 922        TOTAL FREE ENERGY PREDICTED BY IDOCK:  -10.50 KCAL/MOL
REMARK 923 INTER-LIGAND FREE ENERGY PREDICTED BY IDOCK:   -9.01 KCAL/MOL
REMARK 924 INTRA-LIGAND FREE ENERGY PREDICTED BY IDOCK:   -1.49 KCAL/MOL
REMARK 927      BINDING AFFINITY PREDICTED BY RF-SCORE:    0.00 PKD
ROOT
HETATM    1  O   UNL     1     -12.139   8.486  72.945  1.00  0.00    -0.421 OA 
HETATM    2  C   UNL     1     -10.842   7.898  72.928  1.00  0.00    -0.386 C  
HETATM    3  H   UNL     1     -12.262   9.046  73.703  1.00  0.00     0.000 HD 
HETATM    4  C   UNL     2      -5.308  11.491  67.403  1.00  0.00    -0.066 C  
HETATM    5  C   UNL     1     -10.640   6.982  71.686  1.00  0.00    -0.204 C  
HETATM    6  C   UNL     2      -6.348  10.458  66.994  1.00  0.00    -0.072 C  
HETATM    7  C   UNL     1     -10.915   7.806  70.397  1.00  0.00    -0.249 C  
HETATM    8  N   UNL     1      -9.205   6.556  71.711  1.00  0.00    -0.149 NA 
HETATM    9  C   UNL     1     -11.416   5.675  71.720  1.00  0.00    -0.048 C  
HETATM   10  H   UNL     1     -11.295   4.001  72.725  1.00  0.00     0.000 HD 
HETATM   11  H   UNL     1     -10.234   9.459  69.553  1.00  0.00     0.000 HD 
HETATM   12  H2  UNL     1      -8.928   6.116  72.588  1.00  0.00     0.000 HD 
HETATM   13  O   UNL     1     -10.065   8.956  70.340  1.00  0.00    -0.180 OA 
HETATM   14  O   UNL     1     -10.810   4.818  72.703  1.00  0.00    -0.210 OA 
HETATM   15  H1  UNL     1      -9.073   5.956  70.896  1.00  0.00     0.000 HD 
ENDROOT
BRANCH   6  16
HETATM   16  C   UNL     2      -6.438   9.265  67.946  1.00  0.00    -0.059 C  
BRANCH  16  17
HETATM   17  C   UNL     2      -6.887   7.951  67.300  1.00  0.00    -0.070 C  
BRANCH  17  18
HETATM   18  C   UNL     2      -8.335   7.525  67.635  1.00  0.00    -0.118 C  
HETATM   19  C   UNL     2      -9.408   7.631  66.527  1.00  0.00    -0.189 C  
HETATM   20  C   UNL     2     -10.767   7.015  66.892  1.00  0.00    -0.376 C  
HETATM   21  O   UNL     2      -8.920   6.901  65.395  1.00  0.00    -0.369 OA 
HETATM   22  C   UNL     2      -9.596   9.066  66.122  1.00  0.00    -0.341 C  
HETATM   23  H   UNL     2      -9.579   6.967  64.715  1.00  0.00     0.000 HD 
HETATM   24  C   UNL     2     -10.213  10.037  66.816  1.00  0.00    -0.295 C  
BRANCH  24  25
HETATM   25  C   UNL     2     -10.347  11.477  66.374  1.00  0.00    -0.277 C  
HETATM   26  C   UNL     2     -10.546  11.707  64.858  1.00  0.00    -0.296 C  
HETATM   27  C   UNL     2     -10.932  13.165  64.805  1.00  0.00    -0.355 C  
HETATM   28  O   UNL     2     -11.638  11.001  64.276  1.00  0.00    -0.047 OA 
HETATM   29  H   UNL     2     -11.761  11.142  63.345  1.00  0.00     0.000 HD 
HETATM   30  C   UNL     2     -11.915  13.317  65.965  1.00  0.00    -0.423 C  
HETATM   31  C   UNL     2     -11.507  12.277  67.042  1.00  0.00    -0.419 C  
HETATM   32  O   UNL     2     -11.874  14.671  66.389  1.00  0.00    -0.365 OA 
HETATM   33  H   UNL     2     -12.485  14.765  67.110  1.00  0.00     0.000 HD 
BRANCH  31  34
HETATM   34  C   UNL     2     -11.127  12.868  68.418  1.00  0.00    -0.293 C  
BRANCH  34  35
HETATM   35  C   UNL     2     -12.214  13.710  69.047  1.00  0.00    -0.245 C  
HETATM   36  C   UNL     2     -12.093  14.856  69.735  1.00  0.00    -0.357 C  
BRANCH  36  37
HETATM   37  C   UNL     2     -10.831  15.604  70.057  1.00  0.00    -0.340 C  
BRANCH  37  38
HETATM   38  C   UNL     2     -10.658  16.882  69.235  1.00  0.00    -0.325 C  
BRANCH  38  39
HETATM   39  C   UNL     2      -9.802  16.723  67.987  1.00  0.00    -0.265 C  
HETATM   40  C   UNL     2      -9.918  17.786  66.894  1.00  0.00    -0.332 C  
HETATM   41  O   UNL     2      -9.611  17.381  65.738  1.00  0.00    -0.526 OA 
HETATM   42  O   UNL     2     -10.239  18.979  67.204  1.00  0.00    -0.341 OA 
ENDBRANCH  38  39
ENDBRANCH  37  38
ENDBRANCH  36  37
ENDBRANCH  34  35
ENDBRANCH  31  34
ENDBRANCH  24  25
ENDBRANCH  17  18
ENDBRANCH  16  17
ENDBRANCH   6  16
TORSDOF 9
ENDMDL
MODEL      135
REMARK 921   NORMALIZED FREE ENERGY PREDICTED BY IDOCK:   -5.60 KCAL/MOL
REMARK 922        TOTAL FREE ENERGY PREDICTED BY IDOCK:  -10.47 KCAL/MOL
REMARK 923 INTER-LIGAND FREE ENERGY PREDICTED BY IDOCK:   -8.23 KCAL/MOL
REMARK 924 INTRA-LIGAND FREE ENERGY PREDICTED BY IDOCK:   -2.25 KCAL/MOL
REMARK 927      BINDING AFFINITY PREDICTED BY RF-SCORE:    0.00 PKD
ROOT
HETATM    1  O   UNL     1      -9.969   6.061  72.532  1.00  0.00    -0.175 OA 
HETATM    2  C   UNL     1      -8.891   5.880  71.621  1.00  0.00    -0.139 C  
HETATM    3  H   UNL     1      -9.712   5.865  73.425  1.00  0.00     0.000 HD 
HETATM    4  C   UNL     2      -5.155  13.153  68.939  1.00  0.00    -0.065 C  
HETATM    5  C   UNL     1      -9.312   6.202  70.157  1.00  0.00    -0.155 C  
HETATM    6  C   UNL     2      -6.437  12.600  68.337  1.00  0.00    -0.078 C  
HETATM    7  C   UNL     1      -9.879   7.647  70.098  1.00  0.00    -0.184 C  
HETATM    8  N   UNL     1      -8.063   6.119  69.336  1.00  0.00    -0.110 NA 
HETATM    9  C   UNL     1     -10.243   5.182  69.519  1.00  0.00    -0.248 C  
HETATM   10  H   UNL     1     -10.070   3.351  68.855  1.00  0.00     0.000 HD 
HETATM   11  H   UNL     1      -9.262   9.472  70.545  1.00  0.00     0.000 HD 
HETATM   12  H2  UNL     1      -7.573   5.229  69.430  1.00  0.00     0.000 HD 
HETATM   13  O   UNL     1      -8.916   8.589  70.581  1.00  0.00    -0.142 OA 
HETATM   14  O   UNL     1      -9.488   3.988  69.253  1.00  0.00    -0.165 OA 
HETATM   15  H1  UNL     1      -8.339   6.330  68.376  1.00  0.00     0.000 HD 
ENDROOT
BRANCH   6  16
HETATM   16  C   UNL     2      -6.391  11.095  68.067  1.00  0.00    -0.053 C  
BRANCH  16  17
HETATM   17  C   UNL     2      -5.966  10.703  66.649  1.00  0.00    -0.079 C  
BRANCH  17  18
HETATM   18  C   UNL     2      -6.773   9.540  66.027  1.00  0.00    -0.082 C  
HETATM   19  C   UNL     2      -7.920   9.881  65.047  1.00  0.00    -0.137 C  
HETATM   20  C   UNL     2      -8.540   8.667  64.341  1.00  0.00    -0.068 C  
HETATM   21  O   UNL     2      -7.365  10.711  64.021  1.00  0.00    -0.346 OA 
HETATM   22  C   UNL     2      -8.994  10.657  65.756  1.00  0.00    -0.200 C  
HETATM   23  H   UNL     2      -8.069  10.921  63.419  1.00  0.00     0.000 HD 
HETATM   24  C   UNL     2      -9.888  10.191  66.645  1.00  0.00    -0.253 C  
BRANCH  24  25
HETATM   25  C   UNL     2     -10.932  11.025  67.354  1.00  0.00    -0.349 C  
HETATM   26  C   UNL     2     -10.974  10.896  68.894  1.00  0.00    -0.229 C  
HETATM   27  C   UNL     2     -11.881  12.037  69.284  1.00  0.00    -0.377 C  
HETATM   28  O   UNL     2      -9.738  11.146  69.556  1.00  0.00    -0.418 OA 
HETATM   29  H   UNL     2      -9.763  11.067  70.503  1.00  0.00     0.000 HD 
HETATM   30  C   UNL     2     -11.405  13.190  68.402  1.00  0.00    -0.289 C  
HETATM   31  C   UNL     2     -10.851  12.560  67.096  1.00  0.00    -0.282 C  
HETATM   32  O   UNL     2     -12.499  14.077  68.225  1.00  0.00    -0.498 OA 
HETATM   33  H   UNL     2     -12.203  14.794  67.675  1.00  0.00     0.000 HD 
BRANCH  31  34
HETATM   34  C   UNL     2     -11.566  12.999  65.797  1.00  0.00    -0.396 C  
BRANCH  34  35
HETATM   35  C   UNL     2     -10.676  13.744  64.829  1.00  0.00    -0.429 C  
HETATM   36  C   UNL     2     -10.399  15.057  64.787  1.00  0.00    -0.201 C  
BRANCH  36  37
HETATM   37  C   UNL     2     -10.907  16.132  65.704  1.00  0.00    -0.246 C  
BRANCH  37  38
HETATM   38  C   UNL     2      -9.795  17.005  66.289  1.00  0.00    -0.310 C  
BRANCH  38  39
HETATM   39  C   UNL     2      -9.969  17.356  67.759  1.00  0.00    -0.301 C  
HETATM   40  C   UNL     2     -10.307  18.803  68.119  1.00  0.00    -0.365 C  
HETATM   41  O   UNL     2      -9.956  19.146  69.283  1.00  0.00    -0.355 OA 
HETATM   42  O   UNL     2     -10.950  19.527  67.291  1.00  0.00    -0.499 OA 
ENDBRANCH  38  39
ENDBRANCH  37  38
ENDBRANCH  36  37
ENDBRANCH  34  35
ENDBRANCH  31  34
ENDBRANCH  24  25
ENDBRANCH  17  18
ENDBRANCH  16  17
ENDBRANCH   6  16
TORSDOF 9
ENDMDL
MODEL      136
REMARK 921   NORMALIZED FREE ENERGY PREDICTED BY IDOCK:   -5.60 KCAL/MOL
REMARK 922        TOTAL FREE ENERGY PREDICTED BY IDOCK:  -10.47 KCAL/MOL
REMARK 923 INTER-LIGAND FREE ENERGY PREDICTED BY IDOCK:   -8.82 KCAL/MOL
REMARK 924 INTRA-LIGAND FREE ENERGY PREDICTED BY IDOCK:   -1.65 KCAL/MOL
REMARK 927      BINDING AFFINITY PREDICTED BY RF-SCORE:    0.00 PKD
ROOT
HETATM    1  O   UNL     1      -6.346  19.472  65.584  1.00  0.00    -0.201 OA 
HETATM    2  C   UNL     1      -6.488  18.456  66.572  1.00  0.00    -0.191 C  
HETATM    3  H   UNL     1      -5.580  19.330  65.040  1.00  0.00     0.000 HD 
HETATM    4  C   UNL     2     -12.525  12.565  64.867  1.00  0.00    -0.524 C  
HETATM    5  C   UNL     1      -7.743  18.688  67.462  1.00  0.00    -0.229 C  
HETATM    6  C   UNL     2     -12.831  13.924  65.477  1.00  0.00    -0.471 C  
HETATM    7  C   UNL     1      -9.000  18.787  66.553  1.00  0.00    -0.319 C  
HETATM    8  N   UNL     1      -7.857  17.485  68.345  1.00  0.00    -0.253 NA 
HETATM    9  C   UNL     1      -7.633  19.853  68.434  1.00  0.00    -0.263 C  
HETATM   10  H   UNL     1      -6.644  20.210  70.083  1.00  0.00     0.000 HD 
HETATM   11  H   UNL     1      -9.907  17.668  65.198  1.00  0.00     0.000 HD 
HETATM   12  H2  UNL     1      -7.010  17.293  68.881  1.00  0.00     0.000 HD 
HETATM   13  O   UNL     1      -9.139  17.608  65.754  1.00  0.00    -0.503 OA 
HETATM   14  O   UNL     1      -6.713  19.483  69.476  1.00  0.00    -0.328 OA 
HETATM   15  H1  UNL     1      -8.680  17.637  68.929  1.00  0.00     0.000 HD 
ENDROOT
BRANCH   6  16
HETATM   16  C   UNL     2     -11.873  14.323  66.601  1.00  0.00    -0.442 C  
BRANCH  16  17
HETATM   17  C   UNL     2     -11.503  13.195  67.569  1.00  0.00    -0.371 C  
BRANCH  17  18
HETATM   18  C   UNL     2      -9.997  13.096  67.906  1.00  0.00    -0.233 C  
HETATM   19  C   UNL     2      -9.064  12.381  66.901  1.00  0.00    -0.211 C  
HETATM   20  C   UNL     2      -7.568  12.494  67.228  1.00  0.00    -0.131 C  
HETATM   21  O   UNL     2      -9.253  13.010  65.629  1.00  0.00    -0.443 OA 
HETATM   22  C   UNL     2      -9.447  10.933  66.778  1.00  0.00    -0.200 C  
HETATM   23  H   UNL     2      -8.680  12.570  65.012  1.00  0.00     0.000 HD 
HETATM   24  C   UNL     2      -9.239   9.953  67.674  1.00  0.00    -0.146 C  
BRANCH  24  25
HETATM   25  C   UNL     2      -9.674   8.514  67.511  1.00  0.00    -0.209 C  
HETATM   26  C   UNL     2      -8.939   7.701  66.420  1.00  0.00    -0.167 C  
HETATM   27  C   UNL     2      -9.384   6.290  66.720  1.00  0.00    -0.158 C  
HETATM   28  O   UNL     2      -7.518   7.685  66.530  1.00  0.00    -0.088 OA 
HETATM   29  H   UNL     2      -7.066   7.186  65.861  1.00  0.00     0.000 HD 
HETATM   30  C   UNL     2      -9.298   6.204  68.243  1.00  0.00    -0.116 C  
HETATM   31  C   UNL     2      -9.562   7.631  68.792  1.00  0.00    -0.153 C  
HETATM   32  O   UNL     2     -10.221   5.215  68.671  1.00  0.00    -0.171 OA 
HETATM   33  H   UNL     2     -10.167   5.161  69.619  1.00  0.00     0.000 HD 
BRANCH  31  34
HETATM   34  C   UNL     2     -10.784   7.762  69.730  1.00  0.00    -0.236 C  
BRANCH  34  35
HETATM   35  C   UNL     2     -10.702   8.931  70.685  1.00  0.00    -0.282 C  
HETATM   36  C   UNL     2     -10.929   8.948  72.007  1.00  0.00    -0.412 C  
BRANCH  36  37
HETATM   37  C   UNL     2     -11.323   7.796  72.887  1.00  0.00    -0.406 C  
BRANCH  37  38
HETATM   38  C   UNL     2     -10.154   7.217  73.686  1.00  0.00    -0.389 C  
BRANCH  38  39
HETATM   39  C   UNL     2      -8.984   6.736  72.842  1.00  0.00    -0.141 C  
HETATM   40  C   UNL     2      -9.131   5.411  72.094  1.00  0.00    -0.136 C  
HETATM   41  O   UNL     2      -8.039   4.829  71.844  1.00  0.00    -0.104 OA 
HETATM   42  O   UNL     2     -10.286   5.018  71.725  1.00  0.00    -0.196 OA 
ENDBRANCH  38  39
ENDBRANCH  37  38
ENDBRANCH  36  37
ENDBRANCH  34  35
ENDBRANCH  31  34
ENDBRANCH  24  25
ENDBRANCH  17  18
ENDBRANCH  16  17
ENDBRANCH   6  16
TORSDOF 9
ENDMDL
MODEL      137
REMARK 921   NORMALIZED FREE ENERGY PREDICTED BY IDOCK:   -5.58 KCAL/MOL
REMARK 922        TOTAL FREE ENERGY PREDICTED BY IDOCK:  -10.44 KCAL/MOL
REMARK 923 INTER-LIGAND FREE ENERGY PREDICTED BY IDOCK:   -8.09 KCAL/MOL
REMARK 924 INTRA-LIGAND FREE ENERGY PREDICTED BY IDOCK:   -2.35 KCAL/MOL
REMARK 927      BINDING AFFINITY PREDICTED BY RF-SCORE:    0.00 PKD
ROOT
HETATM    1  O   UNL     1      -8.349  16.057  66.794  1.00  0.00    -0.215 OA 
HETATM    2  C   UNL     1      -8.790  15.722  68.106  1.00  0.00    -0.178 C  
HETATM    3  H   UNL     1      -7.650  16.700  66.811  1.00  0.00     0.000 HD 
HETATM    4  C   UNL     2      -5.981   8.139  71.048  1.00  0.00    -0.033 C  
HETATM    5  C   UNL     1      -9.935  14.669  68.078  1.00  0.00    -0.220 C  
HETATM    6  C   UNL     2      -7.179   8.286  70.123  1.00  0.00    -0.055 C  
HETATM    7  C   UNL     1      -9.454  13.416  67.296  1.00  0.00    -0.234 C  
HETATM    8  N   UNL     1     -10.197  14.299  69.505  1.00  0.00    -0.426 NA 
HETATM    9  C   UNL     1     -11.274  15.190  67.579  1.00  0.00    -0.330 C  
HETATM   10  H   UNL     1     -12.659  16.383  68.275  1.00  0.00     0.000 HD 
HETATM   11  H   UNL     1      -7.972  12.112  67.406  1.00  0.00     0.000 HD 
HETATM   12  H2  UNL     1     -10.398  15.101  70.102  1.00  0.00     0.000 HD 
HETATM   13  O   UNL     1      -8.266  12.878  67.884  1.00  0.00    -0.140 OA 
HETATM   14  O   UNL     1     -11.822  16.057  68.586  1.00  0.00    -0.367 OA 
HETATM   15  H1  UNL     1     -10.947  13.608  69.487  1.00  0.00     0.000 HD 
ENDROOT
BRANCH   6  16
HETATM   16  C   UNL     2      -8.132   9.414  70.524  1.00  0.00    -0.212 C  
BRANCH  16  17
HETATM   17  C   UNL     2      -9.439   9.473  69.729  1.00  0.00    -0.228 C  
BRANCH  17  18
HETATM   18  C   UNL     2      -9.272   9.799  68.226  1.00  0.00    -0.130 C  
HETATM   19  C   UNL     2     -10.396   9.379  67.252  1.00  0.00    -0.260 C  
HETATM   20  C   UNL     2     -10.230   9.906  65.819  1.00  0.00    -0.251 C  
HETATM   21  O   UNL     2     -11.617   9.935  67.752  1.00  0.00    -0.542 OA 
HETATM   22  C   UNL     2     -10.529   7.883  67.228  1.00  0.00    -0.390 C  
HETATM   23  H   UNL     2     -12.308   9.676  67.154  1.00  0.00     0.000 HD 
HETATM   24  C   UNL     2      -9.697   6.997  66.654  1.00  0.00    -0.226 C  
BRANCH  24  25
HETATM   25  C   UNL     2      -9.863   5.494  66.686  1.00  0.00    -0.190 C  
HETATM   26  C   UNL     2      -9.367   4.728  65.438  1.00  0.00    -0.156 C  
HETATM   27  C   UNL     2      -9.402   3.295  65.908  1.00  0.00    -0.123 C  
HETATM   28  O   UNL     2      -8.013   4.978  65.072  1.00  0.00    -0.094 OA 
HETATM   29  H   UNL     2      -7.708   4.508  64.305  1.00  0.00     0.000 HD 
HETATM   30  C   UNL     2      -8.819   3.368  67.319  1.00  0.00    -0.134 C  
HETATM   31  C   UNL     2      -9.175   4.769  67.883  1.00  0.00    -0.146 C  
HETATM   32  O   UNL     2      -9.339   2.273  68.057  1.00  0.00    -0.192 OA 
HETATM   33  H   UNL     2      -8.977   2.318  68.934  1.00  0.00     0.000 HD 
BRANCH  31  34
HETATM   34  C   UNL     2     -10.034   4.765  69.168  1.00  0.00    -0.233 C  
BRANCH  34  35
HETATM   35  C   UNL     2      -9.226   4.748  70.446  1.00  0.00    -0.195 C  
HETATM   36  C   UNL     2      -9.608   5.106  71.682  1.00  0.00    -0.204 C  
BRANCH  36  37
HETATM   37  C   UNL     2     -10.951   5.620  72.115  1.00  0.00    -0.307 C  
BRANCH  37  38
HETATM   38  C   UNL     2     -11.127   7.123  71.889  1.00  0.00    -0.268 C  
BRANCH  38  39
HETATM   39  C   UNL     2     -12.478   7.524  71.316  1.00  0.00    -0.354 C  
HETATM   40  C   UNL     2     -13.011   8.921  71.639  1.00  0.00    -0.354 C  
HETATM   41  O   UNL     2     -14.269   9.023  71.588  1.00  0.00    -0.326 OA 
HETATM   42  O   UNL     2     -12.194   9.872  71.867  1.00  0.00    -0.372 OA 
ENDBRANCH  38  39
ENDBRANCH  37  38
ENDBRANCH  36  37
ENDBRANCH  34  35
ENDBRANCH  31  34
ENDBRANCH  24  25
ENDBRANCH  17  18
ENDBRANCH  16  17
ENDBRANCH   6  16
TORSDOF 9
ENDMDL
MODEL      138
REMARK 921   NORMALIZED FREE ENERGY PREDICTED BY IDOCK:   -5.56 KCAL/MOL
REMARK 922        TOTAL FREE ENERGY PREDICTED BY IDOCK:  -10.41 KCAL/MOL
REMARK 923 INTER-LIGAND FREE ENERGY PREDICTED BY IDOCK:   -8.64 KCAL/MOL
REMARK 924 INTRA-LIGAND FREE ENERGY PREDICTED BY IDOCK:   -1.77 KCAL/MOL
REMARK 927      BINDING AFFINITY PREDICTED BY RF-SCORE:    0.00 PKD
ROOT
HETATM    1  O   UNL     1     -13.353  14.120  65.103  1.00  0.00    -0.684 OA 
HETATM    2  C   UNL     1     -11.965  14.023  64.803  1.00  0.00    -0.417 C  
HETATM    3  H   UNL     1     -13.876  14.236  64.318  1.00  0.00     0.000 HD 
HETATM    4  C   UNL     2      -8.734   6.054  65.118  1.00  0.00    -0.017 C  
HETATM    5  C   UNL     1     -11.108  13.833  66.088  1.00  0.00    -0.296 C  
HETATM    6  C   UNL     2      -8.936   6.924  66.349  1.00  0.00    -0.172 C  
HETATM    7  C   UNL     1     -11.619  12.583  66.858  1.00  0.00    -0.370 C  
HETATM    8  N   UNL     1      -9.705  13.597  65.624  1.00  0.00    -0.494 NA 
HETATM    9  C   UNL     1     -11.003  15.063  66.977  1.00  0.00    -0.318 C  
HETATM   10  H   UNL     1     -10.097  16.793  66.870  1.00  0.00     0.000 HD 
HETATM   11  H   UNL     1     -11.883  10.658  66.494  1.00  0.00     0.000 HD 
HETATM   12  H2  UNL     1      -9.353  14.329  65.007  1.00  0.00     0.000 HD 
HETATM   13  O   UNL     1     -11.572  11.421  66.024  1.00  0.00    -0.243 OA 
HETATM   14  O   UNL     1     -10.162  16.024  66.316  1.00  0.00    -0.284 OA 
HETATM   15  H1  UNL     1      -9.144  13.472  66.466  1.00  0.00     0.000 HD 
ENDROOT
BRANCH   6  16
HETATM   16  C   UNL     2      -8.467   8.368  66.165  1.00  0.00    -0.139 C  
BRANCH  16  17
HETATM   17  C   UNL     2      -9.314   9.422  66.883  1.00  0.00    -0.188 C  
BRANCH  17  18
HETATM   18  C   UNL     2      -8.556  10.251  67.946  1.00  0.00    -0.118 C  
HETATM   19  C   UNL     2      -8.081   9.539  69.234  1.00  0.00    -0.103 C  
HETATM   20  C   UNL     2      -7.181  10.391  70.140  1.00  0.00    -0.093 C  
HETATM   21  O   UNL     2      -7.299   8.410  68.827  1.00  0.00    -0.083 OA 
HETATM   22  C   UNL     2      -9.263   9.042  70.018  1.00  0.00    -0.193 C  
HETATM   23  H   UNL     2      -7.008   7.972  69.618  1.00  0.00     0.000 HD 
HETATM   24  C   UNL     2     -10.131   9.771  70.738  1.00  0.00    -0.200 C  
BRANCH  24  25
HETATM   25  C   UNL     2     -11.325   9.220  71.486  1.00  0.00    -0.455 C  
HETATM   26  C   UNL     2     -12.638  10.027  71.358  1.00  0.00    -0.415 C  
HETATM   27  C   UNL     2     -13.653   9.079  71.948  1.00  0.00    -0.486 C  
HETATM   28  O   UNL     2     -13.073  10.269  70.023  1.00  0.00    -0.541 OA 
HETATM   29  H   UNL     2     -13.879  10.765  69.944  1.00  0.00     0.000 HD 
HETATM   30  C   UNL     2     -13.264   7.725  71.358  1.00  0.00    -0.267 C  
HETATM   31  C   UNL     2     -11.731   7.760  71.118  1.00  0.00    -0.304 C  
HETATM   32  O   UNL     2     -13.709   6.719  72.254  1.00  0.00    -0.539 OA 
HETATM   33  H   UNL     2     -13.467   5.877  71.887  1.00  0.00     0.000 HD 
BRANCH  31  34
HETATM   34  C   UNL     2     -10.919   6.691  71.883  1.00  0.00    -0.277 C  
BRANCH  34  35
HETATM   35  C   UNL     2     -10.873   5.346  71.194  1.00  0.00    -0.188 C  
HETATM   36  C   UNL     2      -9.829   4.743  70.604  1.00  0.00    -0.292 C  
BRANCH  36  37
HETATM   37  C   UNL     2      -8.424   5.257  70.477  1.00  0.00    -0.120 C  
BRANCH  37  38
HETATM   38  C   UNL     2      -7.554   4.950  71.697  1.00  0.00    -0.095 C  
BRANCH  38  39
HETATM   39  C   UNL     2      -7.505   6.060  72.737  1.00  0.00    -0.094 C  
HETATM   40  C   UNL     2      -6.444   7.150  72.578  1.00  0.00    -0.052 C  
HETATM   41  O   UNL     2      -6.116   7.720  73.656  1.00  0.00    -0.066 OA 
HETATM   42  O   UNL     2      -6.017   7.451  71.415  1.00  0.00    -0.036 OA 
ENDBRANCH  38  39
ENDBRANCH  37  38
ENDBRANCH  36  37
ENDBRANCH  34  35
ENDBRANCH  31  34
ENDBRANCH  24  25
ENDBRANCH  17  18
ENDBRANCH  16  17
ENDBRANCH   6  16
TORSDOF 9
ENDMDL
MODEL      139
REMARK 921   NORMALIZED FREE ENERGY PREDICTED BY IDOCK:   -5.53 KCAL/MOL
REMARK 922        TOTAL FREE ENERGY PREDICTED BY IDOCK:  -10.37 KCAL/MOL
REMARK 923 INTER-LIGAND FREE ENERGY PREDICTED BY IDOCK:   -8.67 KCAL/MOL
REMARK 924 INTRA-LIGAND FREE ENERGY PREDICTED BY IDOCK:   -1.69 KCAL/MOL
REMARK 927      BINDING AFFINITY PREDICTED BY RF-SCORE:    0.00 PKD
ROOT
HETATM    1  O   UNL     1     -13.259   7.276  71.068  1.00  0.00    -0.584 OA 
HETATM    2  C   UNL     1     -12.225   8.255  71.098  1.00  0.00    -0.233 C  
HETATM    3  H   UNL     1     -14.121   7.674  71.107  1.00  0.00     0.000 HD 
HETATM    4  C   UNL     2      -8.514   9.840  63.497  1.00  0.00    -0.184 C  
HETATM    5  C   UNL     1     -10.812   7.603  71.035  1.00  0.00    -0.242 C  
HETATM    6  C   UNL     2      -8.137   8.662  64.384  1.00  0.00    -0.156 C  
HETATM    7  C   UNL     1     -10.722   6.709  69.767  1.00  0.00    -0.257 C  
HETATM    8  N   UNL     1      -9.836   8.732  70.922  1.00  0.00    -0.204 NA 
HETATM    9  C   UNL     1     -10.387   6.870  72.298  1.00  0.00    -0.196 C  
HETATM   10  H   UNL     1      -9.846   7.391  74.103  1.00  0.00     0.000 HD 
HETATM   11  H   UNL     1     -10.942   6.927  67.814  1.00  0.00     0.000 HD 
HETATM   12  H2  UNL     1      -9.930   9.426  71.665  1.00  0.00     0.000 HD 
HETATM   13  O   UNL     1     -10.997   7.473  68.589  1.00  0.00    -0.061 OA 
HETATM   14  O   UNL     1     -10.111   7.849  73.314  1.00  0.00    -0.313 OA 
HETATM   15  H1  UNL     1      -8.911   8.306  70.880  1.00  0.00     0.000 HD 
ENDROOT
BRANCH   6  16
HETATM   16  C   UNL     2      -7.978   9.030  65.860  1.00  0.00    -0.103 C  
BRANCH  16  17
HETATM   17  C   UNL     2      -6.541   9.313  66.307  1.00  0.00    -0.070 C  
BRANCH  17  18
HETATM   18  C   UNL     2      -6.372  10.564  67.200  1.00  0.00    -0.068 C  
HETATM   19  C   UNL     2      -7.548  10.980  68.114  1.00  0.00    -0.095 C  
HETATM   20  C   UNL     2      -7.224  12.117  69.094  1.00  0.00     0.022 C  
HETATM   21  O   UNL     2      -7.886   9.838  68.910  1.00  0.00    -0.081 OA 
HETATM   22  C   UNL     2      -8.744  11.353  67.284  1.00  0.00    -0.148 C  
HETATM   23  H   UNL     2      -8.608  10.093  69.472  1.00  0.00     0.000 HD 
HETATM   24  C   UNL     2      -8.917  12.466  66.552  1.00  0.00    -0.145 C  
BRANCH  24  25
HETATM   25  C   UNL     2     -10.132  12.778  65.709  1.00  0.00    -0.296 C  
HETATM   26  C   UNL     2     -11.275  11.736  65.751  1.00  0.00    -0.281 C  
HETATM   27  C   UNL     2     -12.403  12.473  65.071  1.00  0.00    -0.522 C  
HETATM   28  O   UNL     2     -11.756  11.418  67.054  1.00  0.00    -0.535 OA 
HETATM   29  H   UNL     2     -12.458  10.778  67.080  1.00  0.00     0.000 HD 
HETATM   30  C   UNL     2     -12.323  13.877  65.667  1.00  0.00    -0.482 C  
HETATM   31  C   UNL     2     -10.834  14.134  66.021  1.00  0.00    -0.297 C  
HETATM   32  O   UNL     2     -12.881  14.778  64.723  1.00  0.00    -0.457 OA 
HETATM   33  H   UNL     2     -12.832  15.652  65.094  1.00  0.00     0.000 HD 
BRANCH  31  34
HETATM   34  C   UNL     2     -10.184  15.337  65.302  1.00  0.00    -0.397 C  
BRANCH  34  35
HETATM   35  C   UNL     2     -10.246  16.629  66.085  1.00  0.00    -0.360 C  
HETATM   36  C   UNL     2      -9.579  16.964  67.200  1.00  0.00    -0.245 C  
BRANCH  36  37
HETATM   37  C   UNL     2      -8.587  16.133  67.962  1.00  0.00    -0.171 C  
BRANCH  37  38
HETATM   38  C   UNL     2      -9.239  15.059  68.835  1.00  0.00    -0.206 C  
BRANCH  38  39
HETATM   39  C   UNL     2     -10.292  15.580  69.801  1.00  0.00    -0.316 C  
HETATM   40  C   UNL     2     -11.718  15.043  69.673  1.00  0.00    -0.321 C  
HETATM   41  O   UNL     2     -12.610  15.821  70.112  1.00  0.00    -0.347 OA 
HETATM   42  O   UNL     2     -11.912  13.871  69.212  1.00  0.00    -0.321 OA 
ENDBRANCH  38  39
ENDBRANCH  37  38
ENDBRANCH  36  37
ENDBRANCH  34  35
ENDBRANCH  31  34
ENDBRANCH  24  25
ENDBRANCH  17  18
ENDBRANCH  16  17
ENDBRANCH   6  16
TORSDOF 9
ENDMDL
MODEL      140
REMARK 921   NORMALIZED FREE ENERGY PREDICTED BY IDOCK:   -5.52 KCAL/MOL
REMARK 922        TOTAL FREE ENERGY PREDICTED BY IDOCK:  -10.35 KCAL/MOL
REMARK 923 INTER-LIGAND FREE ENERGY PREDICTED BY IDOCK:   -8.24 KCAL/MOL
REMARK 924 INTRA-LIGAND FREE ENERGY PREDICTED BY IDOCK:   -2.12 KCAL/MOL
REMARK 927      BINDING AFFINITY PREDICTED BY RF-SCORE:    0.00 PKD
ROOT
HETATM    1  O   UNL     1     -11.888  15.570  64.040  1.00  0.00    -0.908 OA 
HETATM    2  C   UNL     1     -10.789  15.260  64.890  1.00  0.00    -0.425 C  
HETATM    3  H   UNL     1     -11.660  16.229  63.395  1.00  0.00     0.000 HD 
HETATM    4  C   UNL     2      -6.838   7.820  63.132  1.00  0.00    -0.075 C  
HETATM    5  C   UNL     1     -11.163  14.181  65.947  1.00  0.00    -0.313 C  
HETATM    6  C   UNL     2      -8.114   7.916  63.954  1.00  0.00    -0.082 C  
HETATM    7  C   UNL     1     -11.700  12.919  65.217  1.00  0.00    -0.364 C  
HETATM    8  N   UNL     1      -9.895  13.842  66.666  1.00  0.00    -0.276 NA 
HETATM    9  C   UNL     1     -12.097  14.659  67.048  1.00  0.00    -0.186 C  
HETATM   10  H   UNL     1     -11.942  15.839  68.601  1.00  0.00     0.000 HD 
HETATM   11  H   UNL     1     -11.060  11.652  63.840  1.00  0.00     0.000 HD 
HETATM   12  H2  UNL     1      -9.425  14.655  67.065  1.00  0.00     0.000 HD 
HETATM   13  O   UNL     1     -10.732  12.423  64.287  1.00  0.00    -0.307 OA 
HETATM   14  O   UNL     1     -11.358  15.539  67.913  1.00  0.00    -0.331 OA 
HETATM   15  H1  UNL     1     -10.140  13.135  67.359  1.00  0.00     0.000 HD 
ENDROOT
BRANCH   6  16
HETATM   16  C   UNL     2      -8.090   9.032  65.000  1.00  0.00    -0.137 C  
BRANCH  16  17
HETATM   17  C   UNL     2      -8.672   8.655  66.365  1.00  0.00    -0.150 C  
BRANCH  17  18
HETATM   18  C   UNL     2     -10.064   9.257  66.666  1.00  0.00    -0.341 C  
HETATM   19  C   UNL     2     -10.223  10.158  67.912  1.00  0.00    -0.180 C  
HETATM   20  C   UNL     2     -11.586  10.855  68.026  1.00  0.00    -0.295 C  
HETATM   21  O   UNL     2      -9.241  11.195  67.811  1.00  0.00    -0.148 OA 
HETATM   22  C   UNL     2      -9.954   9.367  69.162  1.00  0.00    -0.184 C  
HETATM   23  H   UNL     2      -9.338  11.748  68.577  1.00  0.00     0.000 HD 
HETATM   24  C   UNL     2     -10.743   8.439  69.729  1.00  0.00    -0.211 C  
BRANCH  24  25
HETATM   25  C   UNL     2     -10.407   7.649  70.974  1.00  0.00    -0.208 C  
HETATM   26  C   UNL     2     -10.809   8.298  72.319  1.00  0.00    -0.338 C  
HETATM   27  C   UNL     2     -10.614   7.161  73.292  1.00  0.00    -0.405 C  
HETATM   28  O   UNL     2     -12.181   8.665  72.429  1.00  0.00    -0.374 OA 
HETATM   29  H   UNL     2     -12.428   9.064  73.255  1.00  0.00     0.000 HD 
HETATM   30  C   UNL     2     -11.207   5.958  72.559  1.00  0.00    -0.294 C  
HETATM   31  C   UNL     2     -11.014   6.214  71.041  1.00  0.00    -0.354 C  
HETATM   32  O   UNL     2     -10.569   4.793  73.058  1.00  0.00    -0.190 OA 
HETATM   33  H   UNL     2     -10.938   4.045  72.602  1.00  0.00     0.000 HD 
BRANCH  31  34
HETATM   34  C   UNL     2     -10.166   5.159  70.296  1.00  0.00    -0.342 C  
BRANCH  34  35
HETATM   35  C   UNL     2     -10.357   5.164  68.796  1.00  0.00    -0.162 C  
HETATM   36  C   UNL     2      -9.493   4.787  67.841  1.00  0.00    -0.181 C  
BRANCH  36  37
HETATM   37  C   UNL     2      -8.100   4.256  68.021  1.00  0.00    -0.090 C  
BRANCH  37  38
HETATM   38  C   UNL     2      -7.105   4.807  66.997  1.00  0.00    -0.072 C  
BRANCH  38  39
HETATM   39  C   UNL     2      -7.679   5.020  65.605  1.00  0.00    -0.087 C  
HETATM   40  C   UNL     2      -7.720   3.825  64.652  1.00  0.00    -0.081 C  
HETATM   41  O   UNL     2      -7.717   4.134  63.427  1.00  0.00    -0.064 OA 
HETATM   42  O   UNL     2      -7.814   2.645  65.122  1.00  0.00    -0.079 OA 
ENDBRANCH  38  39
ENDBRANCH  37  38
ENDBRANCH  36  37
ENDBRANCH  34  35
ENDBRANCH  31  34
ENDBRANCH  24  25
ENDBRANCH  17  18
ENDBRANCH  16  17
ENDBRANCH   6  16
TORSDOF 9
ENDMDL
MODEL      141
REMARK 921   NORMALIZED FREE ENERGY PREDICTED BY IDOCK:   -5.51 KCAL/MOL
REMARK 922        TOTAL FREE ENERGY PREDICTED BY IDOCK:  -10.33 KCAL/MOL
REMARK 923 INTER-LIGAND FREE ENERGY PREDICTED BY IDOCK:   -8.86 KCAL/MOL
REMARK 924 INTRA-LIGAND FREE ENERGY PREDICTED BY IDOCK:   -1.47 KCAL/MOL
REMARK 927      BINDING AFFINITY PREDICTED BY RF-SCORE:    0.00 PKD
ROOT
HETATM    1  O   UNL     1     -10.491  19.893  67.967  1.00  0.00    -0.418 OA 
HETATM    2  C   UNL     1      -9.663  19.358  66.939  1.00  0.00    -0.343 C  
HETATM    3  H   UNL     1     -10.993  20.640  67.661  1.00  0.00     0.000 HD 
HETATM    4  C   UNL     2     -12.573  12.100  63.349  1.00  0.00    -0.584 C  
HETATM    5  C   UNL     1      -8.841  18.135  67.439  1.00  0.00    -0.256 C  
HETATM    6  C   UNL     2     -11.808  12.135  64.663  1.00  0.00    -0.400 C  
HETATM    7  C   UNL     1      -9.815  17.067  68.008  1.00  0.00    -0.275 C  
HETATM    8  N   UNL     1      -8.138  17.585  66.237  1.00  0.00    -0.404 NA 
HETATM    9  C   UNL     1      -7.715  18.471  68.405  1.00  0.00    -0.298 C  
HETATM   10  H   UNL     1      -5.966  19.338  68.270  1.00  0.00     0.000 HD 
HETATM   11  H   UNL     1     -11.369  16.027  67.366  1.00  0.00     0.000 HD 
HETATM   12  H2  UNL     1      -7.575  18.277  65.743  1.00  0.00     0.000 HD 
HETATM   13  O   UNL     1     -10.774  16.680  67.019  1.00  0.00    -0.278 OA 
HETATM   14  O   UNL     1      -6.670  19.127  67.666  1.00  0.00    -0.206 OA 
HETATM   15  H1  UNL     1      -7.600  16.783  66.565  1.00  0.00     0.000 HD 
ENDROOT
BRANCH   6  16
HETATM   16  C   UNL     2     -10.575  13.040  64.632  1.00  0.00    -0.397 C  
BRANCH  16  17
HETATM   17  C   UNL     2     -10.176  13.639  65.984  1.00  0.00    -0.312 C  
BRANCH  17  18
HETATM   18  C   UNL     2     -10.571  12.787  67.213  1.00  0.00    -0.245 C  
HETATM   19  C   UNL     2      -9.491  11.895  67.868  1.00  0.00    -0.194 C  
HETATM   20  C   UNL     2      -9.922  11.233  69.185  1.00  0.00    -0.058 C  
HETATM   21  O   UNL     2      -8.378  12.740  68.180  1.00  0.00    -0.158 OA 
HETATM   22  C   UNL     2      -9.031  10.842  66.899  1.00  0.00    -0.147 C  
HETATM   23  H   UNL     2      -7.715  12.192  68.582  1.00  0.00     0.000 HD 
HETATM   24  C   UNL     2      -9.701   9.746  66.504  1.00  0.00    -0.267 C  
BRANCH  24  25
HETATM   25  C   UNL     2      -9.201   8.731  65.500  1.00  0.00    -0.202 C  
HETATM   26  C   UNL     2      -8.596   9.305  64.197  1.00  0.00    -0.188 C  
HETATM   27  C   UNL     2      -7.950   8.087  63.583  1.00  0.00    -0.130 C  
HETATM   28  O   UNL     2      -7.542  10.245  64.381  1.00  0.00    -0.191 OA 
HETATM   29  H   UNL     2      -7.171  10.597  63.581  1.00  0.00     0.000 HD 
HETATM   30  C   UNL     2      -7.273   7.404  64.771  1.00  0.00    -0.072 C  
HETATM   31  C   UNL     2      -8.116   7.744  66.028  1.00  0.00    -0.117 C  
HETATM   32  O   UNL     2      -7.170   6.021  64.471  1.00  0.00    -0.058 OA 
HETATM   33  H   UNL     2      -6.748   5.597  65.210  1.00  0.00     0.000 HD 
BRANCH  31  34
HETATM   34  C   UNL     2      -8.710   6.528  66.773  1.00  0.00    -0.123 C  
BRANCH  34  35
HETATM   35  C   UNL     2     -10.215   6.428  66.684  1.00  0.00    -0.216 C  
HETATM   36  C   UNL     2     -11.098   6.191  67.666  1.00  0.00    -0.311 C  
BRANCH  36  37
HETATM   37  C   UNL     2     -10.812   5.964  69.123  1.00  0.00    -0.406 C  
BRANCH  37  38
HETATM   38  C   UNL     2     -11.229   7.137  70.012  1.00  0.00    -0.271 C  
BRANCH  38  39
HETATM   39  C   UNL     2     -11.304   6.813  71.497  1.00  0.00    -0.316 C  
HETATM   40  C   UNL     2     -10.775   7.849  72.489  1.00  0.00    -0.328 C  
HETATM   41  O   UNL     2     -10.400   7.369  73.595  1.00  0.00    -0.351 OA 
HETATM   42  O   UNL     2     -10.801   9.086  72.184  1.00  0.00    -0.337 OA 
ENDBRANCH  38  39
ENDBRANCH  37  38
ENDBRANCH  36  37
ENDBRANCH  34  35
ENDBRANCH  31  34
ENDBRANCH  24  25
ENDBRANCH  17  18
ENDBRANCH  16  17
ENDBRANCH   6  16
TORSDOF 9
ENDMDL
MODEL      142
REMARK 921   NORMALIZED FREE ENERGY PREDICTED BY IDOCK:   -5.50 KCAL/MOL
REMARK 922        TOTAL FREE ENERGY PREDICTED BY IDOCK:  -10.33 KCAL/MOL
REMARK 923 INTER-LIGAND FREE ENERGY PREDICTED BY IDOCK:   -8.34 KCAL/MOL
REMARK 924 INTRA-LIGAND FREE ENERGY PREDICTED BY IDOCK:   -1.99 KCAL/MOL
REMARK 927      BINDING AFFINITY PREDICTED BY RF-SCORE:    0.00 PKD
ROOT
HETATM    1  O   UNL     1     -10.711   6.767  70.954  1.00  0.00    -0.224 OA 
HETATM    2  C   UNL     1      -9.799   7.083  69.907  1.00  0.00    -0.170 C  
HETATM    3  H   UNL     1     -10.314   6.206  71.610  1.00  0.00     0.000 HD 
HETATM    4  C   UNL     2      -6.448  15.000  70.286  1.00  0.00    -0.095 C  
HETATM    5  C   UNL     1     -10.450   8.002  68.833  1.00  0.00    -0.191 C  
HETATM    6  C   UNL     2      -7.820  14.699  69.702  1.00  0.00     0.101 C  
HETATM    7  C   UNL     1     -10.998   9.281  69.524  1.00  0.00    -0.151 C  
HETATM    8  N   UNL     1      -9.354   8.376  67.884  1.00  0.00    -0.135 NA 
HETATM    9  C   UNL     1     -11.488   7.324  67.953  1.00  0.00     0.666 C  
HETATM   10  H   UNL     1     -11.452   6.002  66.511  1.00  0.00     0.000 HD 
HETATM   11  H   UNL     1     -10.290  10.744  70.651  1.00  0.00     0.000 HD 
HETATM   12  H2  UNL     1      -8.868   7.571  67.488  1.00  0.00     0.000 HD 
HETATM   13  O   UNL     1      -9.955   9.962  70.229  1.00  0.00    -0.254 OA 
HETATM   14  O   UNL     1     -10.804   6.426  67.062  1.00  0.00    -0.325 OA 
HETATM   15  H1  UNL     1      -9.781   8.978  67.180  1.00  0.00     0.000 HD 
ENDROOT
BRANCH   6  16
HETATM   16  C   UNL     2      -7.840  13.483  68.774  1.00  0.00    -0.029 C  
BRANCH  16  17
HETATM   17  C   UNL     2      -6.717  12.469  69.009  1.00  0.00    -0.098 C  
BRANCH  17  18
HETATM   18  C   UNL     2      -6.872  11.137  68.239  1.00  0.00    -0.068 C  
HETATM   19  C   UNL     2      -6.732  11.156  66.700  1.00  0.00    -0.137 C  
HETATM   20  C   UNL     2      -6.716   9.768  66.043  1.00  0.00    -0.087 C  
HETATM   21  O   UNL     2      -5.470  11.764  66.399  1.00  0.00    -0.367 OA 
HETATM   22  C   UNL     2      -7.820  11.993  66.089  1.00  0.00     0.514 C  
HETATM   23  H   UNL     2      -5.384  11.776  65.454  1.00  0.00     0.000 HD 
HETATM   24  C   UNL     2      -9.122  11.680  65.969  1.00  0.00    -0.188 C  
BRANCH  24  25
HETATM   25  C   UNL     2     -10.184  12.575  65.372  1.00  0.00    -0.303 C  
HETATM   26  C   UNL     2     -10.568  12.287  63.902  1.00  0.00    -0.427 C  
HETATM   27  C   UNL     2     -11.811  13.125  63.727  1.00  0.00    -0.546 C  
HETATM   28  O   UNL     2     -10.969  10.947  63.632  1.00  0.00    -0.531 OA 
HETATM   29  H   UNL     2     -11.204  10.769  62.729  1.00  0.00     0.000 HD 
HETATM   30  C   UNL     2     -12.591  12.881  65.018  1.00  0.00    -0.472 C  
HETATM   31  C   UNL     2     -11.546  12.597  66.130  1.00  0.00    -0.445 C  
HETATM   32  O   UNL     2     -13.416  14.014  65.243  1.00  0.00    -0.622 OA 
HETATM   33  H   UNL     2     -13.901  13.862  66.046  1.00  0.00     0.000 HD 
BRANCH  31  34
HETATM   34  C   UNL     2     -11.566  13.582  67.320  1.00  0.00    -0.398 C  
BRANCH  34  35
HETATM   35  C   UNL     2     -11.541  12.909  68.674  1.00  0.00    -0.353 C  
HETATM   36  C   UNL     2     -11.866  13.423  69.870  1.00  0.00    -0.385 C  
BRANCH  36  37
HETATM   37  C   UNL     2     -12.346  14.814  70.172  1.00  0.00    -0.381 C  
BRANCH  37  38
HETATM   38  C   UNL     2     -13.612  14.845  71.031  1.00  0.00    -0.402 C  
BRANCH  38  39
HETATM   39  C   UNL     2     -13.445  14.267  72.428  1.00  0.00    -0.586 C  
HETATM   40  C   UNL     2     -12.753  15.128  73.486  1.00  0.00    -0.547 C  
HETATM   41  O   UNL     2     -12.205  14.472  74.415  1.00  0.00    -0.259 OA 
HETATM   42  O   UNL     2     -12.820  16.398  73.410  1.00  0.00    -0.443 OA 
ENDBRANCH  38  39
ENDBRANCH  37  38
ENDBRANCH  36  37
ENDBRANCH  34  35
ENDBRANCH  31  34
ENDBRANCH  24  25
ENDBRANCH  17  18
ENDBRANCH  16  17
ENDBRANCH   6  16
TORSDOF 9
ENDMDL
MODEL      143
REMARK 921   NORMALIZED FREE ENERGY PREDICTED BY IDOCK:   -5.50 KCAL/MOL
REMARK 922        TOTAL FREE ENERGY PREDICTED BY IDOCK:  -10.32 KCAL/MOL
REMARK 923 INTER-LIGAND FREE ENERGY PREDICTED BY IDOCK:   -8.20 KCAL/MOL
REMARK 924 INTRA-LIGAND FREE ENERGY PREDICTED BY IDOCK:   -2.12 KCAL/MOL
REMARK 927      BINDING AFFINITY PREDICTED BY RF-SCORE:    0.00 PKD
ROOT
HETATM    1  O   UNL     1      -6.828   3.033  70.806  1.00  0.00    -0.032 OA 
HETATM    2  C   UNL     1      -7.995   3.708  70.349  1.00  0.00    -0.050 C  
HETATM    3  H   UNL     1      -6.604   2.298  70.246  1.00  0.00     0.000 HD 
HETATM    4  C   UNL     2      -6.523  11.146  66.281  1.00  0.00    -0.082 C  
HETATM    5  C   UNL     1      -8.361   4.912  71.265  1.00  0.00    -0.115 C  
HETATM    6  C   UNL     2      -6.562  11.014  67.796  1.00  0.00    -0.063 C  
HETATM    7  C   UNL     1      -7.141   5.869  71.356  1.00  0.00    -0.077 C  
HETATM    8  N   UNL     1      -9.501   5.614  70.597  1.00  0.00    -0.161 NA 
HETATM    9  C   UNL     1      -8.909   4.533  72.633  1.00  0.00    -0.113 C  
HETATM   10  H   UNL     1     -10.578   3.770  73.309  1.00  0.00     0.000 HD 
HETATM   11  H   UNL     1      -5.999   6.893  70.109  1.00  0.00     0.000 HD 
HETATM   12  H2  UNL     1     -10.293   5.003  70.395  1.00  0.00     0.000 HD 
HETATM   13  O   UNL     1      -6.744   6.308  70.053  1.00  0.00    -0.049 OA 
HETATM   14  O   UNL     1     -10.235   4.006  72.455  1.00  0.00    -0.170 OA 
HETATM   15  H1  UNL     1      -9.740   6.403  71.197  1.00  0.00     0.000 HD 
ENDROOT
BRANCH   6  16
HETATM   16  C   UNL     2      -7.734  10.177  68.310  1.00  0.00    -0.088 C  
BRANCH  16  17
HETATM   17  C   UNL     2      -8.891  10.980  68.911  1.00  0.00    -0.120 C  
BRANCH  17  18
HETATM   18  C   UNL     2      -9.914  10.144  69.715  1.00  0.00    -0.258 C  
HETATM   19  C   UNL     2     -11.413  10.275  69.361  1.00  0.00    -0.186 C  
HETATM   20  C   UNL     2     -12.329   9.275  70.081  1.00  0.00     0.461 C  
HETATM   21  O   UNL     2     -11.540  10.009  67.959  1.00  0.00    -0.644 OA 
HETATM   22  C   UNL     2     -11.888  11.676  69.624  1.00  0.00    -0.419 C  
HETATM   23  H   UNL     2     -12.460  10.089  67.742  1.00  0.00     0.000 HD 
HETATM   24  C   UNL     2     -12.116  12.252  70.816  1.00  0.00    -0.259 C  
BRANCH  24  25
HETATM   25  C   UNL     2     -12.566  13.681  71.024  1.00  0.00    -0.441 C  
HETATM   26  C   UNL     2     -13.751  13.886  71.997  1.00  0.00    -0.486 C  
HETATM   27  C   UNL     2     -13.742  15.381  72.199  1.00  0.00    -0.618 C  
HETATM   28  O   UNL     2     -13.574  13.323  73.294  1.00  0.00    -0.286 OA 
HETATM   29  H   UNL     2     -14.301  13.449  73.892  1.00  0.00     0.000 HD 
HETATM   30  C   UNL     2     -12.259  15.711  72.365  1.00  0.00    -0.443 C  
HETATM   31  C   UNL     2     -11.468  14.660  71.541  1.00  0.00    -0.072 C  
HETATM   32  O   UNL     2     -12.070  17.058  71.961  1.00  0.00    -0.137 OA 
HETATM   33  H   UNL     2     -11.148  17.263  72.064  1.00  0.00     0.000 HD 
BRANCH  31  34
HETATM   34  C   UNL     2     -10.586  15.237  70.411  1.00  0.00    -0.225 C  
BRANCH  34  35
HETATM   35  C   UNL     2     -11.335  15.517  69.128  1.00  0.00    -0.333 C  
HETATM   36  C   UNL     2     -11.101  15.033  67.899  1.00  0.00    -0.310 C  
BRANCH  36  37
HETATM   37  C   UNL     2     -10.022  14.076  67.479  1.00  0.00    -0.236 C  
BRANCH  37  38
HETATM   38  C   UNL     2     -10.118  13.661  66.010  1.00  0.00    -0.320 C  
BRANCH  38  39
HETATM   39  C   UNL     2     -11.526  13.335  65.534  1.00  0.00    -0.335 C  
HETATM   40  C   UNL     2     -11.717  12.933  64.071  1.00  0.00    -0.434 C  
HETATM   41  O   UNL     2     -12.872  13.161  63.614  1.00  0.00    -0.656 OA 
HETATM   42  O   UNL     2     -10.767  12.361  63.443  1.00  0.00    -0.446 OA 
ENDBRANCH  38  39
ENDBRANCH  37  38
ENDBRANCH  36  37
ENDBRANCH  34  35
ENDBRANCH  31  34
ENDBRANCH  24  25
ENDBRANCH  17  18
ENDBRANCH  16  17
ENDBRANCH   6  16
TORSDOF 9
ENDMDL
MODEL      144
REMARK 921   NORMALIZED FREE ENERGY PREDICTED BY IDOCK:   -5.49 KCAL/MOL
REMARK 922        TOTAL FREE ENERGY PREDICTED BY IDOCK:  -10.30 KCAL/MOL
REMARK 923 INTER-LIGAND FREE ENERGY PREDICTED BY IDOCK:   -8.22 KCAL/MOL
REMARK 924 INTRA-LIGAND FREE ENERGY PREDICTED BY IDOCK:   -2.08 KCAL/MOL
REMARK 927      BINDING AFFINITY PREDICTED BY RF-SCORE:    0.00 PKD
ROOT
HETATM    1  O   UNL     1     -13.724   9.757  72.289  1.00  0.00    -0.528 OA 
HETATM    2  C   UNL     1     -12.453   9.199  72.608  1.00  0.00    -0.068 C  
HETATM    3  H   UNL     1     -14.088  10.245  73.018  1.00  0.00     0.000 HD 
HETATM    4  C   UNL     2      -5.717  13.370  69.251  1.00  0.00    -0.082 C  
HETATM    5  C   UNL     1     -11.857   8.399  71.413  1.00  0.00    -0.296 C  
HETATM    6  C   UNL     2      -6.545  12.357  68.475  1.00  0.00    -0.073 C  
HETATM    7  C   UNL     1     -11.782   9.326  70.169  1.00  0.00     0.027 C  
HETATM    8  N   UNL     1     -10.475   8.001  71.826  1.00  0.00    -0.219 NA 
HETATM    9  C   UNL     1     -12.551   7.078  71.117  1.00  0.00    -0.339 C  
HETATM   10  H   UNL     1     -12.653   5.326  71.979  1.00  0.00     0.000 HD 
HETATM   11  H   UNL     1     -10.959  11.060  69.693  1.00  0.00     0.000 HD 
HETATM   12  H2  UNL     1     -10.445   7.491  72.709  1.00  0.00     0.000 HD 
HETATM   13  O   UNL     1     -11.005  10.493  70.454  1.00  0.00    -0.287 OA 
HETATM   14  O   UNL     1     -12.219   6.151  72.164  1.00  0.00    -0.319 OA 
HETATM   15  H1  UNL     1     -10.084   7.477  71.043  1.00  0.00     0.000 HD 
ENDROOT
BRANCH   6  16
HETATM   16  C   UNL     2      -6.855  11.083  69.264  1.00  0.00    -0.110 C  
BRANCH  16  17
HETATM   17  C   UNL     2      -6.061   9.845  68.836  1.00  0.00    -0.041 C  
BRANCH  17  18
HETATM   18  C   UNL     2      -6.924   8.623  68.446  1.00  0.00    -0.066 C  
HETATM   19  C   UNL     2      -6.820   8.080  67.002  1.00  0.00    -0.073 C  
HETATM   20  C   UNL     2      -7.567   6.761  66.760  1.00  0.00    -0.090 C  
HETATM   21  O   UNL     2      -5.435   7.817  66.749  1.00  0.00    -0.027 OA 
HETATM   22  C   UNL     2      -7.293   9.116  66.022  1.00  0.00    -0.094 C  
HETATM   23  H   UNL     2      -5.371   7.483  65.863  1.00  0.00     0.000 HD 
HETATM   24  C   UNL     2      -8.559   9.503  65.788  1.00  0.00    -0.152 C  
BRANCH  24  25
HETATM   25  C   UNL     2      -8.978  10.576  64.809  1.00  0.00    -0.227 C  
HETATM   26  C   UNL     2      -8.605  10.329  63.328  1.00  0.00    -0.194 C  
HETATM   27  C   UNL     2      -9.402  11.394  62.617  1.00  0.00    -0.247 C  
HETATM   28  O   UNL     2      -9.056   9.090  62.789  1.00  0.00    -0.447 OA 
HETATM   29  H   UNL     2      -8.827   8.937  61.880  1.00  0.00     0.000 HD 
HETATM   30  C   UNL     2     -10.761  11.350  63.314  1.00  0.00    -0.257 C  
HETATM   31  C   UNL     2     -10.504  10.893  64.775  1.00  0.00    -0.373 C  
HETATM   32  O   UNL     2     -11.356  12.631  63.181  1.00  0.00    -0.743 OA 
HETATM   33  H   UNL     2     -12.201  12.604  63.615  1.00  0.00     0.000 HD 
BRANCH  31  34
HETATM   34  C   UNL     2     -10.942  11.896  65.867  1.00  0.00    -0.354 C  
BRANCH  34  35
HETATM   35  C   UNL     2      -9.795  12.625  66.526  1.00  0.00    -0.258 C  
HETATM   36  C   UNL     2      -9.801  13.824  67.130  1.00  0.00    -0.242 C  
BRANCH  36  37
HETATM   37  C   UNL     2     -10.965  14.756  67.308  1.00  0.00    -0.318 C  
BRANCH  37  38
HETATM   38  C   UNL     2     -10.697  15.875  68.316  1.00  0.00    -0.291 C  
BRANCH  38  39
HETATM   39  C   UNL     2     -10.477  15.403  69.745  1.00  0.00    -0.303 C  
HETATM   40  C   UNL     2     -11.655  15.477  70.718  1.00  0.00    -0.367 C  
HETATM   41  O   UNL     2     -11.323  15.563  71.933  1.00  0.00    -0.412 OA 
HETATM   42  O   UNL     2     -12.846  15.387  70.275  1.00  0.00    -0.350 OA 
ENDBRANCH  38  39
ENDBRANCH  37  38
ENDBRANCH  36  37
ENDBRANCH  34  35
ENDBRANCH  31  34
ENDBRANCH  24  25
ENDBRANCH  17  18
ENDBRANCH  16  17
ENDBRANCH   6  16
TORSDOF 9
ENDMDL
MODEL      145
REMARK 921   NORMALIZED FREE ENERGY PREDICTED BY IDOCK:   -5.45 KCAL/MOL
REMARK 922        TOTAL FREE ENERGY PREDICTED BY IDOCK:  -10.24 KCAL/MOL
REMARK 923 INTER-LIGAND FREE ENERGY PREDICTED BY IDOCK:   -9.37 KCAL/MOL
REMARK 924 INTRA-LIGAND FREE ENERGY PREDICTED BY IDOCK:   -0.87 KCAL/MOL
REMARK 927      BINDING AFFINITY PREDICTED BY RF-SCORE:    0.00 PKD
ROOT
HETATM    1  O   UNL     1      -6.954  18.294  68.151  1.00  0.00    -0.216 OA 
HETATM    2  C   UNL     1      -8.262  17.915  68.565  1.00  0.00    -0.295 C  
HETATM    3  H   UNL     1      -6.285  17.925  68.716  1.00  0.00     0.000 HD 
HETATM    4  C   UNL     2     -11.923  11.744  63.814  1.00  0.00    -0.468 C  
HETATM    5  C   UNL     1      -9.358  18.518  67.639  1.00  0.00    -0.281 C  
HETATM    6  C   UNL     2     -11.912  13.212  63.416  1.00  0.00    -0.552 C  
HETATM    7  C   UNL     1      -9.073  18.093  66.172  1.00  0.00    -0.108 C  
HETATM    8  N   UNL     1     -10.657  17.927  68.089  1.00  0.00    -0.374 NA 
HETATM    9  C   UNL     1      -9.564  20.018  67.782  1.00  0.00    -0.384 C  
HETATM   10  H   UNL     1     -10.338  21.202  69.133  1.00  0.00     0.000 HD 
HETATM   11  H   UNL     1      -8.849  16.407  65.163  1.00  0.00     0.000 HD 
HETATM   12  H2  UNL     1     -10.845  18.066  69.082  1.00  0.00     0.000 HD 
HETATM   13  O   UNL     1      -9.023  16.667  66.059  1.00  0.00    -0.418 OA 
HETATM   14  O   UNL     1     -10.209  20.265  69.043  1.00  0.00    -0.276 OA 
HETATM   15  H1  UNL     1     -11.375  18.322  67.482  1.00  0.00     0.000 HD 
ENDROOT
BRANCH   6  16
HETATM   16  C   UNL     2     -12.259  14.163  64.562  1.00  0.00    -0.468 C  
BRANCH  16  17
HETATM   17  C   UNL     2     -11.325  14.087  65.774  1.00  0.00    -0.312 C  
BRANCH  17  18
HETATM   18  C   UNL     2     -11.997  13.610  67.082  1.00  0.00    -0.434 C  
HETATM   19  C   UNL     2     -11.101  13.038  68.205  1.00  0.00    -0.256 C  
HETATM   20  C   UNL     2     -11.830  12.766  69.528  1.00  0.00    -0.379 C  
HETATM   21  O   UNL     2     -10.098  14.022  68.485  1.00  0.00    -0.230 OA 
HETATM   22  C   UNL     2     -10.419  11.784  67.735  1.00  0.00    -0.219 C  
HETATM   23  H   UNL     2      -9.547  13.670  69.174  1.00  0.00     0.000 HD 
HETATM   24  C   UNL     2     -10.970  10.572  67.554  1.00  0.00    -0.365 C  
BRANCH  24  25
HETATM   25  C   UNL     2     -10.242   9.347  67.049  1.00  0.00    -0.322 C  
HETATM   26  C   UNL     2      -9.678   9.435  65.612  1.00  0.00    -0.266 C  
HETATM   27  C   UNL     2      -8.791   8.217  65.543  1.00  0.00    -0.130 C  
HETATM   28  O   UNL     2      -8.822  10.547  65.365  1.00  0.00    -0.173 OA 
HETATM   29  H   UNL     2      -8.475  10.601  64.482  1.00  0.00     0.000 HD 
HETATM   30  C   UNL     2      -8.069   8.222  66.889  1.00  0.00    -0.103 C  
HETATM   31  C   UNL     2      -9.028   8.886  67.913  1.00  0.00    -0.142 C  
HETATM   32  O   UNL     2      -7.703   6.884  67.188  1.00  0.00    -0.104 OA 
HETATM   33  H   UNL     2      -7.254   6.888  68.025  1.00  0.00     0.000 HD 
BRANCH  31  34
HETATM   34  C   UNL     2      -9.434   7.996  69.109  1.00  0.00    -0.155 C  
BRANCH  34  35
HETATM   35  C   UNL     2     -10.887   8.128  69.507  1.00  0.00    -0.128 C  
HETATM   36  C   UNL     2     -11.400   8.506  70.688  1.00  0.00    -0.265 C  
BRANCH  36  37
HETATM   37  C   UNL     2     -10.653   8.901  71.929  1.00  0.00    -0.419 C  
BRANCH  37  38
HETATM   38  C   UNL     2     -10.565   7.780  72.967  1.00  0.00    -0.441 C  
BRANCH  38  39
HETATM   39  C   UNL     2      -9.158   7.261  73.222  1.00  0.00    -0.201 C  
HETATM   40  C   UNL     2      -7.994   7.955  72.513  1.00  0.00    -0.120 C  
HETATM   41  O   UNL     2      -6.976   7.227  72.348  1.00  0.00    -0.063 OA 
HETATM   42  O   UNL     2      -8.088   9.187  72.201  1.00  0.00    -0.305 OA 
ENDBRANCH  38  39
ENDBRANCH  37  38
ENDBRANCH  36  37
ENDBRANCH  34  35
ENDBRANCH  31  34
ENDBRANCH  24  25
ENDBRANCH  17  18
ENDBRANCH  16  17
ENDBRANCH   6  16
TORSDOF 9
ENDMDL
MODEL      146
REMARK 921   NORMALIZED FREE ENERGY PREDICTED BY IDOCK:   -5.44 KCAL/MOL
REMARK 922        TOTAL FREE ENERGY PREDICTED BY IDOCK:  -10.23 KCAL/MOL
REMARK 923 INTER-LIGAND FREE ENERGY PREDICTED BY IDOCK:   -8.40 KCAL/MOL
REMARK 924 INTRA-LIGAND FREE ENERGY PREDICTED BY IDOCK:   -1.82 KCAL/MOL
REMARK 927      BINDING AFFINITY PREDICTED BY RF-SCORE:    0.00 PKD
ROOT
HETATM    1  O   UNL     1     -10.765  20.143  68.694  1.00  0.00    -0.373 OA 
HETATM    2  C   UNL     1      -9.884  19.766  67.641  1.00  0.00    -0.390 C  
HETATM    3  H   UNL     1     -11.292  20.897  68.459  1.00  0.00     0.000 HD 
HETATM    4  C   UNL     2     -12.352  12.852  63.152  1.00  0.00    -0.256 C  
HETATM    5  C   UNL     1      -9.020  18.529  68.026  1.00  0.00    -0.301 C  
HETATM    6  C   UNL     2     -11.627  12.768  64.487  1.00  0.00    -0.397 C  
HETATM    7  C   UNL     1      -9.960  17.362  68.436  1.00  0.00    -0.329 C  
HETATM    8  N   UNL     1      -8.259  18.151  66.794  1.00  0.00    -0.244 NA 
HETATM    9  C   UNL     1      -7.939  18.799  69.061  1.00  0.00    -0.158 C  
HETATM   10  H   UNL     1      -6.229  19.749  69.084  1.00  0.00     0.000 HD 
HETATM   11  H   UNL     1     -11.446  16.338  67.628  1.00  0.00     0.000 HD 
HETATM   12  H2  UNL     1      -7.715  18.919  66.401  1.00  0.00     0.000 HD 
HETATM   13  O   UNL     1     -10.872  17.051  67.378  1.00  0.00    -0.281 OA 
HETATM   14  O   UNL     1      -6.905  19.580  68.438  1.00  0.00    -0.267 OA 
HETATM   15  H1  UNL     1      -7.694  17.341  67.046  1.00  0.00     0.000 HD 
ENDROOT
BRANCH   6  16
HETATM   16  C   UNL     2     -10.437  13.722  64.601  1.00  0.00    -0.433 C  
BRANCH  16  17
HETATM   17  C   UNL     2     -10.190  14.286  66.003  1.00  0.00    -0.327 C  
BRANCH  17  18
HETATM   18  C   UNL     2     -11.169  13.781  67.088  1.00  0.00    -0.327 C  
HETATM   19  C   UNL     2     -10.603  12.945  68.259  1.00  0.00    -0.246 C  
HETATM   20  C   UNL     2     -11.612  12.647  69.377  1.00  0.00    -0.369 C  
HETATM   21  O   UNL     2      -9.549  13.711  68.853  1.00  0.00    -0.405 OA 
HETATM   22  C   UNL     2     -10.024  11.657  67.744  1.00  0.00    -0.191 C  
HETATM   23  H   UNL     2      -9.200  13.197  69.571  1.00  0.00     0.000 HD 
HETATM   24  C   UNL     2     -10.692  10.581  67.295  1.00  0.00    -0.333 C  
BRANCH  24  25
HETATM   25  C   UNL     2     -10.056   9.319  66.758  1.00  0.00    -0.331 C  
HETATM   26  C   UNL     2      -9.647   9.345  65.267  1.00  0.00    -0.180 C  
HETATM   27  C   UNL     2      -8.807   8.097  65.146  1.00  0.00     0.024 C  
HETATM   28  O   UNL     2      -8.791  10.420  64.893  1.00  0.00    -0.173 OA 
HETATM   29  H   UNL     2      -8.539  10.436  63.977  1.00  0.00     0.000 HD 
HETATM   30  C   UNL     2      -7.946   8.121  66.408  1.00  0.00    -0.104 C  
HETATM   31  C   UNL     2      -8.771   8.846  67.504  1.00  0.00    -0.124 C  
HETATM   32  O   UNL     2      -7.588   6.782  66.712  1.00  0.00    -0.087 OA 
HETATM   33  H   UNL     2      -7.053   6.797  67.496  1.00  0.00     0.000 HD 
BRANCH  31  34
HETATM   34  C   UNL     2      -9.073   8.007  68.766  1.00  0.00    -0.144 C  
BRANCH  34  35
HETATM   35  C   UNL     2     -10.428   7.337  68.748  1.00  0.00    -0.214 C  
HETATM   36  C   UNL     2     -10.755   6.099  69.149  1.00  0.00    -0.381 C  
BRANCH  36  37
HETATM   37  C   UNL     2      -9.848   5.051  69.726  1.00  0.00    -0.286 C  
BRANCH  37  38
HETATM   38  C   UNL     2      -9.169   4.185  68.662  1.00  0.00    -0.203 C  
BRANCH  38  39
HETATM   39  C   UNL     2      -9.772   4.301  67.271  1.00  0.00    -0.216 C  
HETATM   40  C   UNL     2      -8.831   4.216  66.068  1.00  0.00    -0.121 C  
HETATM   41  O   UNL     2      -9.258   4.794  65.030  1.00  0.00    -0.156 OA 
HETATM   42  O   UNL     2      -7.751   3.544  66.157  1.00  0.00    -0.080 OA 
ENDBRANCH  38  39
ENDBRANCH  37  38
ENDBRANCH  36  37
ENDBRANCH  34  35
ENDBRANCH  31  34
ENDBRANCH  24  25
ENDBRANCH  17  18
ENDBRANCH  16  17
ENDBRANCH   6  16
TORSDOF 9
ENDMDL
MODEL      147
REMARK 921   NORMALIZED FREE ENERGY PREDICTED BY IDOCK:   -5.44 KCAL/MOL
REMARK 922        TOTAL FREE ENERGY PREDICTED BY IDOCK:  -10.22 KCAL/MOL
REMARK 923 INTER-LIGAND FREE ENERGY PREDICTED BY IDOCK:   -8.24 KCAL/MOL
REMARK 924 INTRA-LIGAND FREE ENERGY PREDICTED BY IDOCK:   -1.99 KCAL/MOL
REMARK 927      BINDING AFFINITY PREDICTED BY RF-SCORE:    0.00 PKD
ROOT
HETATM    1  O   UNL     1      -7.312  19.797  68.756  1.00  0.00    -0.334 OA 
HETATM    2  C   UNL     1      -8.062  19.124  67.750  1.00  0.00    -0.278 C  
HETATM    3  H   UNL     1      -7.872  20.298  69.337  1.00  0.00     0.000 HD 
HETATM    4  C   UNL     2      -9.135  10.687  69.063  1.00  0.00    -0.174 C  
HETATM    5  C   UNL     1      -7.144  18.303  66.797  1.00  0.00    -0.206 C  
HETATM    6  C   UNL     2      -7.876  11.286  68.454  1.00  0.00    -0.136 C  
HETATM    7  C   UNL     1      -6.294  17.313  67.641  1.00  0.00    -0.150 C  
HETATM    8  N   UNL     1      -8.059  17.536  65.894  1.00  0.00    -0.555 NA 
HETATM    9  C   UNL     1      -6.298  19.136  65.847  1.00  0.00    -0.215 C  
HETATM   10  H   UNL     1      -6.637  20.223  64.257  1.00  0.00     0.000 HD 
HETATM   11  H   UNL     1      -6.619  15.851  68.932  1.00  0.00     0.000 HD 
HETATM   12  H2  UNL     1      -8.731  18.125  65.402  1.00  0.00     0.000 HD 
HETATM   13  O   UNL     1      -7.138  16.456  68.417  1.00  0.00    -0.146 OA 
HETATM   14  O   UNL     1      -7.166  19.702  64.851  1.00  0.00    -0.275 OA 
HETATM   15  H1  UNL     1      -7.457  16.998  65.271  1.00  0.00     0.000 HD 
ENDROOT
BRANCH   6  16
HETATM   16  C   UNL     2      -8.153  12.346  67.386  1.00  0.00    -0.177 C  
BRANCH  16  17
HETATM   17  C   UNL     2      -9.386  13.218  67.643  1.00  0.00    -0.212 C  
BRANCH  17  18
HETATM   18  C   UNL     2     -10.275  13.466  66.402  1.00  0.00    -0.293 C  
HETATM   19  C   UNL     2     -11.293  12.375  65.996  1.00  0.00    -0.353 C  
HETATM   20  C   UNL     2     -12.255  12.785  64.872  1.00  0.00    -0.519 C  
HETATM   21  O   UNL     2     -12.102  12.105  67.147  1.00  0.00    -0.575 OA 
HETATM   22  C   UNL     2     -10.575  11.112  65.612  1.00  0.00    -0.286 C  
HETATM   23  H   UNL     2     -12.727  11.434  66.898  1.00  0.00     0.000 HD 
HETATM   24  C   UNL     2      -9.874  10.879  64.490  1.00  0.00    -0.356 C  
BRANCH  24  25
HETATM   25  C   UNL     2      -9.143   9.596  64.166  1.00  0.00    -0.256 C  
HETATM   26  C   UNL     2      -8.528   9.501  62.751  1.00  0.00    -0.190 C  
HETATM   27  C   UNL     2      -7.654   8.277  62.864  1.00  0.00    -0.121 C  
HETATM   28  O   UNL     2      -7.650  10.567  62.399  1.00  0.00    -0.139 OA 
HETATM   29  H   UNL     2      -7.272  10.510  61.530  1.00  0.00     0.000 HD 
HETATM   30  C   UNL     2      -6.980   8.443  64.225  1.00  0.00    -0.081 C  
HETATM   31  C   UNL     2      -7.966   9.235  65.124  1.00  0.00    -0.116 C  
HETATM   32  O   UNL     2      -6.641   7.149  64.699  1.00  0.00    -0.039 OA 
HETATM   33  H   UNL     2      -6.222   7.253  65.545  1.00  0.00     0.000 HD 
BRANCH  31  34
HETATM   34  C   UNL     2      -8.425   8.503  66.405  1.00  0.00    -0.122 C  
BRANCH  34  35
HETATM   35  C   UNL     2      -9.664   7.657  66.218  1.00  0.00    -0.126 C  
HETATM   36  C   UNL     2     -10.546   7.249  67.143  1.00  0.00    -0.416 C  
BRANCH  36  37
HETATM   37  C   UNL     2     -10.529   7.535  68.617  1.00  0.00    -0.207 C  
BRANCH  37  38
HETATM   38  C   UNL     2     -11.123   6.406  69.461  1.00  0.00    -0.460 C  
BRANCH  38  39
HETATM   39  C   UNL     2     -10.215   5.198  69.635  1.00  0.00    -0.337 C  
HETATM   40  C   UNL     2      -9.382   5.102  70.915  1.00  0.00    -0.150 C  
HETATM   41  O   UNL     2      -8.330   4.412  70.802  1.00  0.00    -0.076 OA 
HETATM   42  O   UNL     2      -9.807   5.643  71.987  1.00  0.00    -0.160 OA 
ENDBRANCH  38  39
ENDBRANCH  37  38
ENDBRANCH  36  37
ENDBRANCH  34  35
ENDBRANCH  31  34
ENDBRANCH  24  25
ENDBRANCH  17  18
ENDBRANCH  16  17
ENDBRANCH   6  16
TORSDOF 9
ENDMDL
MODEL      148
REMARK 921   NORMALIZED FREE ENERGY PREDICTED BY IDOCK:   -5.43 KCAL/MOL
REMARK 922        TOTAL FREE ENERGY PREDICTED BY IDOCK:  -10.22 KCAL/MOL
REMARK 923 INTER-LIGAND FREE ENERGY PREDICTED BY IDOCK:   -8.17 KCAL/MOL
REMARK 924 INTRA-LIGAND FREE ENERGY PREDICTED BY IDOCK:   -2.05 KCAL/MOL
REMARK 927      BINDING AFFINITY PREDICTED BY RF-SCORE:    0.00 PKD
ROOT
HETATM    1  O   UNL     1     -12.536  14.742  63.808  1.00  0.00    -0.998 OA 
HETATM    2  C   UNL     1     -11.286  14.661  64.485  1.00  0.00    -0.310 C  
HETATM    3  H   UNL     1     -12.494  15.326  63.060  1.00  0.00     0.000 HD 
HETATM    4  C   UNL     2      -6.795   7.481  62.958  1.00  0.00    -0.066 C  
HETATM    5  C   UNL     1     -11.356  13.704  65.711  1.00  0.00    -0.306 C  
HETATM    6  C   UNL     2      -7.927   7.561  63.971  1.00  0.00    -0.091 C  
HETATM    7  C   UNL     1     -11.845  12.308  65.237  1.00  0.00    -0.355 C  
HETATM    8  N   UNL     1      -9.958  13.594  66.234  1.00  0.00    -0.293 NA 
HETATM    9  C   UNL     1     -12.154  14.233  66.893  1.00  0.00    -0.409 C  
HETATM   10  H   UNL     1     -11.898  15.622  68.246  1.00  0.00     0.000 HD 
HETATM   11  H   UNL     1     -11.283  10.935  63.929  1.00  0.00     0.000 HD 
HETATM   12  H2  UNL     1      -9.532  14.496  66.448  1.00  0.00     0.000 HD 
HETATM   13  O   UNL     1     -10.984  11.788  64.219  1.00  0.00    -0.317 OA 
HETATM   14  O   UNL     1     -11.399  15.291  67.507  1.00  0.00    -0.331 OA 
HETATM   15  H1  UNL     1     -10.003  12.967  67.037  1.00  0.00     0.000 HD 
ENDROOT
BRANCH   6  16
HETATM   16  C   UNL     2      -7.873   8.806  64.858  1.00  0.00    -0.120 C  
BRANCH  16  17
HETATM   17  C   UNL     2      -8.655   8.702  66.171  1.00  0.00    -0.158 C  
BRANCH  17  18
HETATM   18  C   UNL     2      -8.893  10.049  66.893  1.00  0.00    -0.142 C  
HETATM   19  C   UNL     2      -7.914  10.466  68.015  1.00  0.00    -0.105 C  
HETATM   20  C   UNL     2      -8.119  11.893  68.543  1.00  0.00    -0.130 C  
HETATM   21  O   UNL     2      -6.594  10.421  67.461  1.00  0.00    -0.065 OA 
HETATM   22  C   UNL     2      -7.985   9.489  69.155  1.00  0.00    -0.094 C  
HETATM   23  H   UNL     2      -5.993  10.677  68.150  1.00  0.00     0.000 HD 
HETATM   24  C   UNL     2      -8.970   9.358  70.059  1.00  0.00    -0.234 C  
BRANCH  24  25
HETATM   25  C   UNL     2      -9.005   8.334  71.172  1.00  0.00    -0.192 C  
HETATM   26  C   UNL     2      -7.637   7.943  71.778  1.00  0.00    -0.086 C  
HETATM   27  C   UNL     2      -8.044   7.169  73.008  1.00  0.00    -0.121 C  
HETATM   28  O   UNL     2      -6.851   9.032  72.254  1.00  0.00    -0.303 OA 
HETATM   29  H   UNL     2      -6.011   8.792  72.627  1.00  0.00     0.000 HD 
HETATM   30  C   UNL     2      -9.183   8.002  73.594  1.00  0.00    -0.200 C  
HETATM   31  C   UNL     2      -9.880   8.714  72.405  1.00  0.00    -0.315 C  
HETATM   32  O   UNL     2     -10.014   7.129  74.343  1.00  0.00    -0.451 OA 
HETATM   33  H   UNL     2     -10.722   7.647  74.707  1.00  0.00     0.000 HD 
BRANCH  31  34
HETATM   34  C   UNL     2     -11.376   8.375  72.218  1.00  0.00    -0.448 C  
BRANCH  34  35
HETATM   35  C   UNL     2     -11.671   7.563  70.978  1.00  0.00    -0.317 C  
HETATM   36  C   UNL     2     -11.524   6.243  70.787  1.00  0.00    -0.383 C  
BRANCH  36  37
HETATM   37  C   UNL     2     -11.025   5.223  71.770  1.00  0.00    -0.143 C  
BRANCH  37  38
HETATM   38  C   UNL     2      -9.994   4.262  71.176  1.00  0.00    -0.226 C  
BRANCH  38  39
HETATM   39  C   UNL     2      -9.500   4.640  69.787  1.00  0.00    -0.238 C  
HETATM   40  C   UNL     2      -8.043   5.077  69.635  1.00  0.00    -0.078 C  
HETATM   41  O   UNL     2      -7.824   5.827  68.643  1.00  0.00    -0.095 OA 
HETATM   42  O   UNL     2      -7.162   4.630  70.440  1.00  0.00    -0.047 OA 
ENDBRANCH  38  39
ENDBRANCH  37  38
ENDBRANCH  36  37
ENDBRANCH  34  35
ENDBRANCH  31  34
ENDBRANCH  24  25
ENDBRANCH  17  18
ENDBRANCH  16  17
ENDBRANCH   6  16
TORSDOF 9
ENDMDL
MODEL      149
REMARK 921   NORMALIZED FREE ENERGY PREDICTED BY IDOCK:   -5.42 KCAL/MOL
REMARK 922        TOTAL FREE ENERGY PREDICTED BY IDOCK:  -10.20 KCAL/MOL
REMARK 923 INTER-LIGAND FREE ENERGY PREDICTED BY IDOCK:   -8.03 KCAL/MOL
REMARK 924 INTRA-LIGAND FREE ENERGY PREDICTED BY IDOCK:   -2.17 KCAL/MOL
REMARK 927      BINDING AFFINITY PREDICTED BY RF-SCORE:    0.00 PKD
ROOT
HETATM    1  O   UNL     1      -8.578   7.520  62.758  1.00  0.00    -0.382 OA 
HETATM    2  C   UNL     1      -7.596   7.448  63.786  1.00  0.00    -0.118 C  
HETATM    3  H   UNL     1      -8.619   6.717  62.253  1.00  0.00     0.000 HD 
HETATM    4  C   UNL     2     -10.722   6.185  71.704  1.00  0.00    -0.294 C  
HETATM    5  C   UNL     1      -7.530   8.764  64.615  1.00  0.00    -0.104 C  
HETATM    6  C   UNL     2     -10.667   7.549  71.033  1.00  0.00    -0.243 C  
HETATM    7  C   UNL     1      -8.940   9.075  65.187  1.00  0.00    -0.165 C  
HETATM    8  N   UNL     1      -6.578   8.501  65.740  1.00  0.00    -0.056 NA 
HETATM    9  C   UNL     1      -6.922   9.951  63.884  1.00  0.00    -0.124 C  
HETATM   10  H   UNL     1      -5.127  10.465  63.299  1.00  0.00     0.000 HD 
HETATM   11  H   UNL     1     -10.277   8.173  66.331  1.00  0.00     0.000 HD 
HETATM   12  H2  UNL     1      -5.664   8.171  65.430  1.00  0.00     0.000 HD 
HETATM   13  O   UNL     1      -9.416   7.983  65.981  1.00  0.00    -0.155 OA 
HETATM   14  O   UNL     1      -5.508   9.724  63.756  1.00  0.00    -0.071 OA 
HETATM   15  H1  UNL     1      -6.535   9.364  66.283  1.00  0.00     0.000 HD 
ENDROOT
BRANCH   6  16
HETATM   16  C   UNL     2      -9.337   7.839  70.335  1.00  0.00    -0.160 C  
BRANCH  16  17
HETATM   17  C   UNL     2      -9.322   9.100  69.466  1.00  0.00    -0.165 C  
BRANCH  17  18
HETATM   18  C   UNL     2      -7.965   9.407  68.791  1.00  0.00    -0.092 C  
HETATM   19  C   UNL     2      -7.255  10.737  69.135  1.00  0.00    -0.107 C  
HETATM   20  C   UNL     2      -5.836  10.870  68.564  1.00  0.00    -0.043 C  
HETATM   21  O   UNL     2      -7.129  10.791  70.561  1.00  0.00    -0.471 OA 
HETATM   22  C   UNL     2      -8.092  11.902  68.687  1.00  0.00    -0.086 C  
HETATM   23  H   UNL     2      -6.694  11.608  70.772  1.00  0.00     0.000 HD 
HETATM   24  C   UNL     2      -8.291  12.330  67.429  1.00  0.00    -0.177 C  
BRANCH  24  25
HETATM   25  C   UNL     2      -9.170  13.494  67.030  1.00  0.00    -0.248 C  
HETATM   26  C   UNL     2     -10.404  13.149  66.164  1.00  0.00    -0.284 C  
HETATM   27  C   UNL     2     -11.190  14.437  66.203  1.00  0.00    -0.336 C  
HETATM   28  O   UNL     2     -11.268  12.157  66.710  1.00  0.00    -0.285 OA 
HETATM   29  H   UNL     2     -12.026  11.944  66.178  1.00  0.00     0.000 HD 
HETATM   30  C   UNL     2     -11.099  14.868  67.666  1.00  0.00    -0.311 C  
HETATM   31  C   UNL     2      -9.749  14.332  68.211  1.00  0.00    -0.221 C  
HETATM   32  O   UNL     2     -11.248  16.279  67.709  1.00  0.00    -0.278 OA 
HETATM   33  H   UNL     2     -11.191  16.547  68.619  1.00  0.00     0.000 HD 
BRANCH  31  34
HETATM   34  C   UNL     2      -8.771  15.411  68.729  1.00  0.00    -0.195 C  
BRANCH  34  35
HETATM   35  C   UNL     2      -7.814  15.927  67.679  1.00  0.00    -0.164 C  
HETATM   36  C   UNL     2      -7.317  17.165  67.535  1.00  0.00    -0.180 C  
BRANCH  36  37
HETATM   37  C   UNL     2      -7.589  18.369  68.392  1.00  0.00    -0.307 C  
BRANCH  37  38
HETATM   38  C   UNL     2      -7.943  19.619  67.586  1.00  0.00    -0.320 C  
BRANCH  38  39
HETATM   39  C   UNL     2      -8.710  19.349  66.300  1.00  0.00    -0.364 C  
HETATM   40  C   UNL     2     -10.185  18.960  66.410  1.00  0.00    -0.426 C  
HETATM   41  O   UNL     2     -10.621  18.286  65.435  1.00  0.00    -0.612 OA 
HETATM   42  O   UNL     2     -10.876  19.372  67.398  1.00  0.00    -0.490 OA 
ENDBRANCH  38  39
ENDBRANCH  37  38
ENDBRANCH  36  37
ENDBRANCH  34  35
ENDBRANCH  31  34
ENDBRANCH  24  25
ENDBRANCH  17  18
ENDBRANCH  16  17
ENDBRANCH   6  16
TORSDOF 9
ENDMDL
MODEL      150
REMARK 921   NORMALIZED FREE ENERGY PREDICTED BY IDOCK:   -5.41 KCAL/MOL
REMARK 922        TOTAL FREE ENERGY PREDICTED BY IDOCK:  -10.18 KCAL/MOL
REMARK 923 INTER-LIGAND FREE ENERGY PREDICTED BY IDOCK:   -8.46 KCAL/MOL
REMARK 924 INTRA-LIGAND FREE ENERGY PREDICTED BY IDOCK:   -1.72 KCAL/MOL
REMARK 927      BINDING AFFINITY PREDICTED BY RF-SCORE:    0.00 PKD
ROOT
HETATM    1  O   UNL     1      -7.215  18.247  68.644  1.00  0.00    -0.265 OA 
HETATM    2  C   UNL     1      -8.603  18.019  68.425  1.00  0.00    -0.290 C  
HETATM    3  H   UNL     1      -6.966  18.071  69.544  1.00  0.00     0.000 HD 
HETATM    4  C   UNL     2     -10.471  10.684  64.331  1.00  0.00    -0.247 C  
HETATM    5  C   UNL     1      -9.010  18.306  66.950  1.00  0.00    -0.279 C  
HETATM    6  C   UNL     2     -10.038  11.955  63.616  1.00  0.00    -0.450 C  
HETATM    7  C   UNL     1      -8.129  17.444  66.004  1.00  0.00    -0.144 C  
HETATM    8  N   UNL     1     -10.441  17.887  66.823  1.00  0.00    -0.337 NA 
HETATM    9  C   UNL     1      -9.018  19.777  66.563  1.00  0.00    -0.371 C  
HETATM   10  H   UNL     1     -10.144  21.324  66.964  1.00  0.00     0.000 HD 
HETATM   11  H   UNL     1      -7.721  15.528  65.740  1.00  0.00     0.000 HD 
HETATM   12  H2  UNL     1     -11.056  18.329  67.507  1.00  0.00     0.000 HD 
HETATM   13  O   UNL     1      -8.259  16.054  66.318  1.00  0.00    -0.294 OA 
HETATM   14  O   UNL     1     -10.139  20.405  67.206  1.00  0.00    -0.425 OA 
HETATM   15  H1  UNL     1     -10.708  18.075  65.857  1.00  0.00     0.000 HD 
ENDROOT
BRANCH   6  16
HETATM   16  C   UNL     2     -10.735  13.217  64.128  1.00  0.00    -0.399 C  
BRANCH  16  17
HETATM   17  C   UNL     2     -10.330  13.655  65.538  1.00  0.00    -0.319 C  
BRANCH  17  18
HETATM   18  C   UNL     2     -11.219  13.094  66.673  1.00  0.00    -0.335 C  
HETATM   19  C   UNL     2     -10.639  13.043  68.105  1.00  0.00    -0.245 C  
HETATM   20  C   UNL     2     -11.651  12.648  69.190  1.00  0.00    -0.374 C  
HETATM   21  O   UNL     2     -10.191  14.365  68.426  1.00  0.00    -0.229 OA 
HETATM   22  C   UNL     2      -9.457  12.116  68.153  1.00  0.00    -0.205 C  
HETATM   23  H   UNL     2      -9.835  14.334  69.305  1.00  0.00     0.000 HD 
HETATM   24  C   UNL     2      -9.469  10.773  68.107  1.00  0.00    -0.161 C  
BRANCH  24  25
HETATM   25  C   UNL     2      -8.243   9.887  68.129  1.00  0.00    -0.109 C  
HETATM   26  C   UNL     2      -7.139  10.278  69.139  1.00  0.00    -0.074 C  
HETATM   27  C   UNL     2      -6.240   9.067  69.113  1.00  0.00    -0.042 C  
HETATM   28  O   UNL     2      -7.572  10.405  70.490  1.00  0.00    -0.443 OA 
HETATM   29  H   UNL     2      -6.894  10.646  71.111  1.00  0.00     0.000 HD 
HETATM   30  C   UNL     2      -7.220   7.894  69.125  1.00  0.00    -0.081 C  
HETATM   31  C   UNL     2      -8.513   8.378  68.416  1.00  0.00    -0.135 C  
HETATM   32  O   UNL     2      -6.576   6.788  68.512  1.00  0.00    -0.053 OA 
HETATM   33  H   UNL     2      -7.185   6.059  68.520  1.00  0.00     0.000 HD 
BRANCH  31  34
HETATM   34  C   UNL     2      -8.912   7.580  67.155  1.00  0.00    -0.136 C  
BRANCH  34  35
HETATM   35  C   UNL     2     -10.403   7.392  66.994  1.00  0.00    -0.384 C  
HETATM   36  C   UNL     2     -11.232   6.619  67.712  1.00  0.00    -0.244 C  
BRANCH  36  37
HETATM   37  C   UNL     2     -10.885   5.734  68.875  1.00  0.00    -0.305 C  
BRANCH  37  38
HETATM   38  C   UNL     2     -11.167   6.380  70.233  1.00  0.00    -0.445 C  
BRANCH  38  39
HETATM   39  C   UNL     2     -10.807   5.517  71.433  1.00  0.00    -0.256 C  
HETATM   40  C   UNL     2      -9.402   4.915  71.491  1.00  0.00    -0.149 C  
HETATM   41  O   UNL     2      -9.314   3.862  72.182  1.00  0.00    -0.115 OA 
HETATM   42  O   UNL     2      -8.433   5.516  70.922  1.00  0.00    -0.119 OA 
ENDBRANCH  38  39
ENDBRANCH  37  38
ENDBRANCH  36  37
ENDBRANCH  34  35
ENDBRANCH  31  34
ENDBRANCH  24  25
ENDBRANCH  17  18
ENDBRANCH  16  17
ENDBRANCH   6  16
TORSDOF 9
ENDMDL
MODEL      151
REMARK 921   NORMALIZED FREE ENERGY PREDICTED BY IDOCK:   -5.40 KCAL/MOL
REMARK 922        TOTAL FREE ENERGY PREDICTED BY IDOCK:  -10.17 KCAL/MOL
REMARK 923 INTER-LIGAND FREE ENERGY PREDICTED BY IDOCK:   -7.56 KCAL/MOL
REMARK 924 INTRA-LIGAND FREE ENERGY PREDICTED BY IDOCK:   -2.61 KCAL/MOL
REMARK 927      BINDING AFFINITY PREDICTED BY RF-SCORE:    0.00 PKD
ROOT
HETATM    1  O   UNL     1      -6.061  10.598  63.668  1.00  0.00    -0.340 OA 
HETATM    2  C   UNL     1      -7.446  10.270  63.634  1.00  0.00    -0.087 C  
HETATM    3  H   UNL     1      -5.817  11.168  62.949  1.00  0.00     0.000 HD 
HETATM    4  C   UNL     2     -12.315  14.514  69.320  1.00  0.00    -0.185 C  
HETATM    5  C   UNL     1      -7.847   9.336  64.814  1.00  0.00    -0.118 C  
HETATM    6  C   UNL     2     -11.501  13.279  69.673  1.00  0.00    -0.267 C  
HETATM    7  C   UNL     1      -7.448  10.012  66.155  1.00  0.00    -0.109 C  
HETATM    8  N   UNL     1      -9.335   9.194  64.747  1.00  0.00    -0.434 NA 
HETATM    9  C   UNL     1      -7.333   7.909  64.704  1.00  0.00    -0.084 C  
HETATM   10  H   UNL     1      -7.749   6.353  63.593  1.00  0.00     0.000 HD 
HETATM   11  H   UNL     1      -7.821  11.710  67.095  1.00  0.00     0.000 HD 
HETATM   12  H2  UNL     1      -9.672   8.870  63.840  1.00  0.00     0.000 HD 
HETATM   13  O   UNL     1      -8.065  11.298  66.276  1.00  0.00    -0.165 OA 
HETATM   14  O   UNL     1      -8.070   7.245  63.662  1.00  0.00    -0.103 OA 
HETATM   15  H1  UNL     1      -9.598   8.583  65.519  1.00  0.00     0.000 HD 
ENDROOT
BRANCH   6  16
HETATM   16  C   UNL     2     -11.619  12.151  68.647  1.00  0.00    -0.372 C  
BRANCH  16  17
HETATM   17  C   UNL     2     -10.890  10.856  69.019  1.00  0.00    -0.275 C  
BRANCH  17  18
HETATM   18  C   UNL     2     -11.473  10.111  70.242  1.00  0.00    -0.381 C  
HETATM   19  C   UNL     2     -10.618   9.009  70.910  1.00  0.00    -0.250 C  
HETATM   20  C   UNL     2     -11.198   8.458  72.221  1.00  0.00    -0.446 C  
HETATM   21  O   UNL     2      -9.354   9.598  71.238  1.00  0.00    -0.321 OA 
HETATM   22  C   UNL     2     -10.382   7.881  69.947  1.00  0.00    -0.224 C  
HETATM   23  H   UNL     2      -8.829   8.921  71.647  1.00  0.00     0.000 HD 
HETATM   24  C   UNL     2     -11.266   6.953  69.541  1.00  0.00    -0.246 C  
BRANCH  24  25
HETATM   25  C   UNL     2     -10.983   5.853  68.543  1.00  0.00    -0.277 C  
HETATM   26  C   UNL     2     -10.974   6.272  67.054  1.00  0.00    -0.364 C  
HETATM   27  C   UNL     2     -10.386   5.054  66.384  1.00  0.00    -0.335 C  
HETATM   28  O   UNL     2     -10.097   7.347  66.732  1.00  0.00    -0.247 OA 
HETATM   29  H   UNL     2     -10.091   7.605  65.818  1.00  0.00     0.000 HD 
HETATM   30  C   UNL     2      -9.233   4.660  67.306  1.00  0.00    -0.130 C  
HETATM   31  C   UNL     2      -9.631   5.101  68.740  1.00  0.00    -0.198 C  
HETATM   32  O   UNL     2      -9.009   3.269  67.145  1.00  0.00    -0.131 OA 
HETATM   33  H   UNL     2      -8.292   3.024  67.719  1.00  0.00     0.000 HD 
BRANCH  31  34
HETATM   34  C   UNL     2      -9.715   3.961  69.781  1.00  0.00    -0.227 C  
BRANCH  34  35
HETATM   35  C   UNL     2      -9.680   4.436  71.216  1.00  0.00    -0.252 C  
HETATM   36  C   UNL     2      -8.696   5.081  71.860  1.00  0.00    -0.136 C  
BRANCH  36  37
HETATM   37  C   UNL     2      -7.362   5.503  71.312  1.00  0.00    -0.085 C  
BRANCH  37  38
HETATM   38  C   UNL     2      -7.170   7.021  71.287  1.00  0.00    -0.075 C  
BRANCH  38  39
HETATM   39  C   UNL     2      -6.314   7.571  72.418  1.00  0.00    -0.050 C  
HETATM   40  C   UNL     2      -7.014   8.306  73.561  1.00  0.00    -0.118 C  
HETATM   41  O   UNL     2      -6.286   9.140  74.169  1.00  0.00    -0.327 OA 
HETATM   42  O   UNL     2      -8.215   8.006  73.863  1.00  0.00    -0.205 OA 
ENDBRANCH  38  39
ENDBRANCH  37  38
ENDBRANCH  36  37
ENDBRANCH  34  35
ENDBRANCH  31  34
ENDBRANCH  24  25
ENDBRANCH  17  18
ENDBRANCH  16  17
ENDBRANCH   6  16
TORSDOF 9
ENDMDL
MODEL      152
REMARK 921   NORMALIZED FREE ENERGY PREDICTED BY IDOCK:   -5.39 KCAL/MOL
REMARK 922        TOTAL FREE ENERGY PREDICTED BY IDOCK:  -10.15 KCAL/MOL
REMARK 923 INTER-LIGAND FREE ENERGY PREDICTED BY IDOCK:   -8.54 KCAL/MOL
REMARK 924 INTRA-LIGAND FREE ENERGY PREDICTED BY IDOCK:   -1.62 KCAL/MOL
REMARK 927      BINDING AFFINITY PREDICTED BY RF-SCORE:    0.00 PKD
ROOT
HETATM    1  O   UNL     1     -14.098  15.672  70.351  1.00  0.00    -0.504 OA 
HETATM    2  C   UNL     1     -13.076  15.122  69.526  1.00  0.00     0.674 C  
HETATM    3  H   UNL     1     -14.905  15.807  69.868  1.00  0.00     0.000 HD 
HETATM    4  C   UNL     2     -11.623   6.718  70.672  1.00  0.00    -0.422 C  
HETATM    5  C   UNL     1     -11.754  14.900  70.317  1.00  0.00    -0.303 C  
HETATM    6  C   UNL     2     -11.038   7.798  71.569  1.00  0.00    -0.270 C  
HETATM    7  C   UNL     1     -12.044  14.001  71.550  1.00  0.00    -0.094 C  
HETATM    8  N   UNL     1     -10.824  14.188  69.385  1.00  0.00    -0.397 NA 
HETATM    9  C   UNL     1     -11.006  16.173  70.686  1.00  0.00    -0.209 C  
HETATM   10  H   UNL     1      -9.967  17.516  69.716  1.00  0.00     0.000 HD 
HETATM   11  H   UNL     1     -12.800  12.207  71.896  1.00  0.00     0.000 HD 
HETATM   12  H2  UNL     1     -10.689  14.673  68.497  1.00  0.00     0.000 HD 
HETATM   13  O   UNL     1     -12.623  12.756  71.143  1.00  0.00    -0.371 OA 
HETATM   14  O   UNL     1     -10.433  16.721  69.486  1.00  0.00    -0.310 OA 
HETATM   15  H1  UNL     1      -9.958  14.042  69.903  1.00  0.00     0.000 HD 
ENDROOT
BRANCH   6  16
HETATM   16  C   UNL     2     -10.461   8.989  70.801  1.00  0.00    -0.304 C  
BRANCH  16  17
HETATM   17  C   UNL     2      -9.249   8.668  69.921  1.00  0.00    -0.155 C  
BRANCH  17  18
HETATM   18  C   UNL     2      -8.145   9.751  69.917  1.00  0.00    -0.192 C  
HETATM   19  C   UNL     2      -8.280  10.937  68.934  1.00  0.00    -0.141 C  
HETATM   20  C   UNL     2      -7.241  12.051  69.130  1.00  0.00     0.002 C  
HETATM   21  O   UNL     2      -9.563  11.530  69.164  1.00  0.00    -0.414 OA 
HETATM   22  C   UNL     2      -8.231  10.443  67.516  1.00  0.00    -0.114 C  
HETATM   23  H   UNL     2      -9.647  12.258  68.560  1.00  0.00     0.000 HD 
HETATM   24  C   UNL     2      -7.157  10.002  66.840  1.00  0.00    -0.090 C  
BRANCH  24  25
HETATM   25  C   UNL     2      -7.169   9.486  65.419  1.00  0.00    -0.095 C  
HETATM   26  C   UNL     2      -5.969   8.603  65.005  1.00  0.00    -0.055 C  
HETATM   27  C   UNL     2      -6.431   8.036  63.685  1.00  0.00    -0.071 C  
HETATM   28  O   UNL     2      -5.730   7.476  65.843  1.00  0.00    -0.035 OA 
HETATM   29  H   UNL     2      -4.992   6.933  65.589  1.00  0.00     0.000 HD 
HETATM   30  C   UNL     2      -7.889   7.662  63.947  1.00  0.00    -0.122 C  
HETATM   31  C   UNL     2      -8.422   8.647  65.022  1.00  0.00    -0.192 C  
HETATM   32  O   UNL     2      -8.574   7.699  62.705  1.00  0.00    -0.392 OA 
HETATM   33  H   UNL     2      -9.481   7.467  62.868  1.00  0.00     0.000 HD 
BRANCH  31  34
HETATM   34  C   UNL     2      -9.623   9.514  64.584  1.00  0.00    -0.026 C  
BRANCH  34  35
HETATM   35  C   UNL     2      -9.239  10.729  63.769  1.00  0.00    -0.266 C  
HETATM   36  C   UNL     2     -10.019  11.736  63.349  1.00  0.00    -0.446 C  
BRANCH  36  37
HETATM   37  C   UNL     2     -11.491  11.918  63.586  1.00  0.00    -0.551 C  
BRANCH  37  38
HETATM   38  C   UNL     2     -11.930  13.383  63.577  1.00  0.00    -0.467 C  
BRANCH  38  39
HETATM   39  C   UNL     2     -11.401  14.212  64.737  1.00  0.00    -0.371 C  
HETATM   40  C   UNL     2     -11.265  15.722  64.541  1.00  0.00    -0.322 C  
HETATM   41  O   UNL     2     -10.399  16.269  65.281  1.00  0.00    -0.552 OA 
HETATM   42  O   UNL     2     -12.040  16.326  63.730  1.00  0.00    -0.959 OA 
ENDBRANCH  38  39
ENDBRANCH  37  38
ENDBRANCH  36  37
ENDBRANCH  34  35
ENDBRANCH  31  34
ENDBRANCH  24  25
ENDBRANCH  17  18
ENDBRANCH  16  17
ENDBRANCH   6  16
TORSDOF 9
ENDMDL
MODEL      153
REMARK 921   NORMALIZED FREE ENERGY PREDICTED BY IDOCK:   -5.37 KCAL/MOL
REMARK 922        TOTAL FREE ENERGY PREDICTED BY IDOCK:  -10.12 KCAL/MOL
REMARK 923 INTER-LIGAND FREE ENERGY PREDICTED BY IDOCK:   -8.78 KCAL/MOL
REMARK 924 INTRA-LIGAND FREE ENERGY PREDICTED BY IDOCK:   -1.35 KCAL/MOL
REMARK 927      BINDING AFFINITY PREDICTED BY RF-SCORE:    0.00 PKD
ROOT
HETATM    1  O   UNL     1     -11.997  11.272  66.297  1.00  0.00    -0.018 OA 
HETATM    2  C   UNL     1     -10.833  11.986  65.892  1.00  0.00    -0.288 C  
HETATM    3  H   UNL     1     -11.804  10.645  66.985  1.00  0.00     0.000 HD 
HETATM    4  C   UNL     2     -10.285  20.027  68.908  1.00  0.00    -0.348 C  
HETATM    5  C   UNL     1     -11.150  13.013  64.766  1.00  0.00    -0.322 C  
HETATM    6  C   UNL     2     -11.108  19.646  67.686  1.00  0.00    -0.128 C  
HETATM    7  C   UNL     1     -12.273  13.971  65.253  1.00  0.00    -0.440 C  
HETATM    8  N   UNL     1      -9.890  13.790  64.544  1.00  0.00    -0.653 NA 
HETATM    9  C   UNL     1     -11.454  12.401  63.407  1.00  0.00    -0.448 C  
HETATM   10  H   UNL     1     -10.417  11.498  62.016  1.00  0.00     0.000 HD 
HETATM   11  H   UNL     1     -12.572  15.213  66.762  1.00  0.00     0.000 HD 
HETATM   12  H2  UNL     1      -9.081  13.203  64.340  1.00  0.00     0.000 HD 
HETATM   13  O   UNL     1     -11.887  14.628  66.464  1.00  0.00    -0.373 OA 
HETATM   14  O   UNL     1     -10.228  11.881  62.865  1.00  0.00    -0.269 OA 
HETATM   15  H1  UNL     1     -10.098  14.464  63.806  1.00  0.00     0.000 HD 
ENDROOT
BRANCH   6  16
HETATM   16  C   UNL     2     -10.379  18.708  66.722  1.00  0.00    -0.449 C  
BRANCH  16  17
HETATM   17  C   UNL     2      -9.258  19.359  65.906  1.00  0.00    -0.049 C  
BRANCH  17  18
HETATM   18  C   UNL     2      -7.905  19.483  66.645  1.00  0.00    -0.300 C  
HETATM   19  C   UNL     2      -6.702  18.666  66.120  1.00  0.00    -0.233 C  
HETATM   20  C   UNL     2      -5.364  18.993  66.798  1.00  0.00    -0.151 C  
HETATM   21  O   UNL     2      -6.547  18.987  64.733  1.00  0.00    -0.484 OA 
HETATM   22  C   UNL     2      -6.983  17.194  66.240  1.00  0.00    -0.257 C  
HETATM   23  H   UNL     2      -5.809  18.484  64.411  1.00  0.00     0.000 HD 
HETATM   24  C   UNL     2      -7.002  16.453  67.360  1.00  0.00    -0.196 C  
BRANCH  24  25
HETATM   25  C   UNL     2      -7.321  14.977  67.427  1.00  0.00    -0.231 C  
HETATM   26  C   UNL     2      -6.108  14.018  67.446  1.00  0.00     0.231 C  
HETATM   27  C   UNL     2      -6.749  12.700  67.807  1.00  0.00    -0.127 C  
HETATM   28  O   UNL     2      -5.152  14.272  68.471  1.00  0.00    -0.087 OA 
HETATM   29  H   UNL     2      -4.406  13.684  68.484  1.00  0.00     0.000 HD 
HETATM   30  C   UNL     2      -7.732  13.072  68.916  1.00  0.00     0.088 C  
HETATM   31  C   UNL     2      -8.184  14.532  68.647  1.00  0.00    -0.152 C  
HETATM   32  O   UNL     2      -8.774  12.109  68.909  1.00  0.00    -0.368 OA 
HETATM   33  H   UNL     2      -9.385  12.340  69.599  1.00  0.00     0.000 HD 
BRANCH  31  34
HETATM   34  C   UNL     2      -9.701  14.722  68.422  1.00  0.00    -0.214 C  
BRANCH  34  35
HETATM   35  C   UNL     2     -10.504  14.820  69.699  1.00  0.00    -0.130 C  
HETATM   36  C   UNL     2     -11.400  13.952  70.194  1.00  0.00    -0.063 C  
BRANCH  36  37
HETATM   37  C   UNL     2     -11.837  12.644  69.598  1.00  0.00    -0.379 C  
BRANCH  37  38
HETATM   38  C   UNL     2     -12.517  11.717  70.607  1.00  0.00    -0.386 C  
BRANCH  38  39
HETATM   39  C   UNL     2     -11.816  10.383  70.817  1.00  0.00    -0.466 C  
HETATM   40  C   UNL     2     -12.256   9.515  71.996  1.00  0.00    -0.298 C  
HETATM   41  O   UNL     2     -11.369   8.721  72.419  1.00  0.00    -0.338 OA 
HETATM   42  O   UNL     2     -13.453   9.591  72.425  1.00  0.00    -0.453 OA 
ENDBRANCH  38  39
ENDBRANCH  37  38
ENDBRANCH  36  37
ENDBRANCH  34  35
ENDBRANCH  31  34
ENDBRANCH  24  25
ENDBRANCH  17  18
ENDBRANCH  16  17
ENDBRANCH   6  16
TORSDOF 9
ENDMDL
MODEL      154
REMARK 921   NORMALIZED FREE ENERGY PREDICTED BY IDOCK:   -5.36 KCAL/MOL
REMARK 922        TOTAL FREE ENERGY PREDICTED BY IDOCK:  -10.10 KCAL/MOL
REMARK 923 INTER-LIGAND FREE ENERGY PREDICTED BY IDOCK:   -8.10 KCAL/MOL
REMARK 924 INTRA-LIGAND FREE ENERGY PREDICTED BY IDOCK:   -2.00 KCAL/MOL
REMARK 927      BINDING AFFINITY PREDICTED BY RF-SCORE:    0.00 PKD
ROOT
HETATM    1  O   UNL     1      -8.447   7.087  63.270  1.00  0.00    -0.348 OA 
HETATM    2  C   UNL     1      -7.354   7.480  64.094  1.00  0.00    -0.091 C  
HETATM    3  H   UNL     1      -8.356   6.190  62.969  1.00  0.00     0.000 HD 
HETATM    4  C   UNL     2      -9.055   7.659  72.528  1.00  0.00    -0.205 C  
HETATM    5  C   UNL     1      -7.504   8.948  64.589  1.00  0.00    -0.104 C  
HETATM    6  C   UNL     2      -9.417   8.789  71.577  1.00  0.00    -0.341 C  
HETATM    7  C   UNL     1      -8.864   9.099  65.326  1.00  0.00    -0.199 C  
HETATM    8  N   UNL     1      -6.383   9.180  65.553  1.00  0.00    -0.066 NA 
HETATM    9  C   UNL     1      -7.299  10.009  63.519  1.00  0.00    -0.138 C  
HETATM   10  H   UNL     1      -5.771  10.713  62.521  1.00  0.00     0.000 HD 
HETATM   11  H   UNL     1      -9.787   8.264  66.862  1.00  0.00     0.000 HD 
HETATM   12  H2  UNL     1      -5.463   8.976  65.163  1.00  0.00     0.000 HD 
HETATM   13  O   UNL     1      -8.957   8.172  66.411  1.00  0.00    -0.152 OA 
HETATM   14  O   UNL     1      -5.900  10.050  63.189  1.00  0.00    -0.108 OA 
HETATM   15  H1  UNL     1      -6.482  10.142  65.878  1.00  0.00     0.000 HD 
ENDROOT
BRANCH   6  16
HETATM   16  C   UNL     2      -8.296   9.158  70.604  1.00  0.00    -0.239 C  
BRANCH  16  17
HETATM   17  C   UNL     2      -8.608  10.329  69.667  1.00  0.00    -0.126 C  
BRANCH  17  18
HETATM   18  C   UNL     2      -7.440  10.756  68.749  1.00  0.00    -0.109 C  
HETATM   19  C   UNL     2      -6.895  12.198  68.873  1.00  0.00    -0.100 C  
HETATM   20  C   UNL     2      -5.623  12.472  68.059  1.00  0.00    -0.082 C  
HETATM   21  O   UNL     2      -6.553  12.403  70.248  1.00  0.00    -0.423 OA 
HETATM   22  C   UNL     2      -7.960  13.188  68.495  1.00  0.00    -0.094 C  
HETATM   23  H   UNL     2      -6.219  13.289  70.324  1.00  0.00     0.000 HD 
HETATM   24  C   UNL     2      -8.421  13.465  67.263  1.00  0.00    -0.205 C  
BRANCH  24  25
HETATM   25  C   UNL     2      -9.519  14.453  66.942  1.00  0.00    -0.268 C  
HETATM   26  C   UNL     2      -9.096  15.938  66.864  1.00  0.00    -0.231 C  
HETATM   27  C   UNL     2     -10.315  16.585  66.254  1.00  0.00    -0.327 C  
HETATM   28  O   UNL     2      -8.025  16.217  65.968  1.00  0.00    -0.159 OA 
HETATM   29  H   UNL     2      -7.765  17.130  65.920  1.00  0.00     0.000 HD 
HETATM   30  C   UNL     2     -10.718  15.613  65.145  1.00  0.00    -0.443 C  
HETATM   31  C   UNL     2     -10.280  14.197  65.605  1.00  0.00    -0.357 C  
HETATM   32  O   UNL     2     -12.111  15.769  64.921  1.00  0.00     0.135 OA 
HETATM   33  H   UNL     2     -12.361  15.164  64.232  1.00  0.00     0.000 HD 
BRANCH  31  34
HETATM   34  C   UNL     2     -11.422  13.165  65.741  1.00  0.00    -0.355 C  
BRANCH  34  35
HETATM   35  C   UNL     2     -10.999  11.863  66.382  1.00  0.00    -0.337 C  
HETATM   36  C   UNL     2     -11.278  11.407  67.613  1.00  0.00    -0.346 C  
BRANCH  36  37
HETATM   37  C   UNL     2     -12.093  12.081  68.679  1.00  0.00    -0.145 C  
BRANCH  37  38
HETATM   38  C   UNL     2     -11.799  11.559  70.087  1.00  0.00    -0.440 C  
BRANCH  38  39
HETATM   39  C   UNL     2     -12.909  11.804  71.098  1.00  0.00    -0.365 C  
HETATM   40  C   UNL     2     -13.150  13.239  71.571  1.00  0.00    -0.328 C  
HETATM   41  O   UNL     2     -13.685  13.330  72.711  1.00  0.00    -0.669 OA 
HETATM   42  O   UNL     2     -12.870  14.213  70.799  1.00  0.00    -0.331 OA 
ENDBRANCH  38  39
ENDBRANCH  37  38
ENDBRANCH  36  37
ENDBRANCH  34  35
ENDBRANCH  31  34
ENDBRANCH  24  25
ENDBRANCH  17  18
ENDBRANCH  16  17
ENDBRANCH   6  16
TORSDOF 9
ENDMDL
MODEL      155
REMARK 921   NORMALIZED FREE ENERGY PREDICTED BY IDOCK:   -5.35 KCAL/MOL
REMARK 922        TOTAL FREE ENERGY PREDICTED BY IDOCK:  -10.09 KCAL/MOL
REMARK 923 INTER-LIGAND FREE ENERGY PREDICTED BY IDOCK:   -7.66 KCAL/MOL
REMARK 924 INTRA-LIGAND FREE ENERGY PREDICTED BY IDOCK:   -2.43 KCAL/MOL
REMARK 927      BINDING AFFINITY PREDICTED BY RF-SCORE:    0.00 PKD
ROOT
HETATM    1  O   UNL     1     -10.353   8.185  66.140  1.00  0.00    -0.393 OA 
HETATM    2  C   UNL     1      -9.570   8.989  67.016  1.00  0.00    -0.176 C  
HETATM    3  H   UNL     1     -10.409   7.286  66.442  1.00  0.00     0.000 HD 
HETATM    4  C   UNL     2     -14.093  14.187  72.172  1.00  0.00    -0.643 C  
HETATM    5  C   UNL     1      -9.480  10.462  66.521  1.00  0.00    -0.167 C  
HETATM    6  C   UNL     2     -13.760  14.525  70.726  1.00  0.00     0.023 C  
HETATM    7  C   UNL     1     -10.916  11.029  66.348  1.00  0.00    -0.137 C  
HETATM    8  N   UNL     1      -8.767  11.221  67.596  1.00  0.00    -0.129 NA 
HETATM    9  C   UNL     1      -8.617  10.671  65.286  1.00  0.00    -0.169 C  
HETATM   10  H   UNL     1      -6.701  10.632  64.893  1.00  0.00     0.000 HD 
HETATM   11  H   UNL     1     -12.525  11.283  67.469  1.00  0.00     0.000 HD 
HETATM   12  H2  UNL     1      -7.862  10.821  67.845  1.00  0.00     0.000 HD 
HETATM   13  O   UNL     1     -11.647  10.936  67.574  1.00  0.00    -0.526 OA 
HETATM   14  O   UNL     1      -7.241  10.501  65.665  1.00  0.00    -0.146 OA 
HETATM   15  H1  UNL     1      -8.708  12.186  67.272  1.00  0.00     0.000 HD 
ENDROOT
BRANCH   6  16
HETATM   16  C   UNL     2     -12.308  14.233  70.345  1.00  0.00    -0.419 C  
BRANCH  16  17
HETATM   17  C   UNL     2     -11.800  12.844  70.740  1.00  0.00     0.092 C  
BRANCH  17  18
HETATM   18  C   UNL     2     -12.677  11.668  70.249  1.00  0.00    -0.043 C  
HETATM   19  C   UNL     2     -12.937  10.490  71.216  1.00  0.00    -0.433 C  
HETATM   20  C   UNL     2     -13.964   9.465  70.712  1.00  0.00     0.280 C  
HETATM   21  O   UNL     2     -13.473  11.046  72.422  1.00  0.00    -0.591 OA 
HETATM   22  C   UNL     2     -11.647   9.794  71.546  1.00  0.00    -0.424 C  
HETATM   23  H   UNL     2     -13.633  10.323  73.017  1.00  0.00     0.000 HD 
HETATM   24  C   UNL     2     -10.928   8.985  70.750  1.00  0.00    -0.315 C  
BRANCH  24  25
HETATM   25  C   UNL     2      -9.616   8.332  71.123  1.00  0.00    -0.206 C  
HETATM   26  C   UNL     2      -8.371   8.814  70.342  1.00  0.00    -0.140 C  
HETATM   27  C   UNL     2      -7.241   8.208  71.139  1.00  0.00    -0.060 C  
HETATM   28  O   UNL     2      -8.146  10.221  70.369  1.00  0.00    -0.410 OA 
HETATM   29  H   UNL     2      -7.381  10.517  69.890  1.00  0.00     0.000 HD 
HETATM   30  C   UNL     2      -7.655   8.453  72.589  1.00  0.00    -0.077 C  
HETATM   31  C   UNL     2      -9.206   8.461  72.622  1.00  0.00    -0.325 C  
HETATM   32  O   UNL     2      -7.041   7.453  73.387  1.00  0.00    -0.068 OA 
HETATM   33  H   UNL     2      -7.298   7.605  74.289  1.00  0.00     0.000 HD 
BRANCH  31  34
HETATM   34  C   UNL     2      -9.852   7.385  73.524  1.00  0.00    -0.363 C  
BRANCH  34  35
HETATM   35  C   UNL     2     -11.024   6.673  72.888  1.00  0.00    -0.286 C  
HETATM   36  C   UNL     2     -11.055   5.459  72.315  1.00  0.00    -0.259 C  
BRANCH  36  37
HETATM   37  C   UNL     2      -9.920   4.487  72.162  1.00  0.00    -0.246 C  
BRANCH  37  38
HETATM   38  C   UNL     2      -9.144   4.663  70.855  1.00  0.00    -0.181 C  
BRANCH  38  39
HETATM   39  C   UNL     2      -9.981   4.507  69.594  1.00  0.00    -0.251 C  
HETATM   40  C   UNL     2      -9.653   5.399  68.397  1.00  0.00    -0.129 C  
HETATM   41  O   UNL     2     -10.623   5.597  67.612  1.00  0.00    -0.226 OA 
HETATM   42  O   UNL     2      -8.462   5.820  68.229  1.00  0.00    -0.113 OA 
ENDBRANCH  38  39
ENDBRANCH  37  38
ENDBRANCH  36  37
ENDBRANCH  34  35
ENDBRANCH  31  34
ENDBRANCH  24  25
ENDBRANCH  17  18
ENDBRANCH  16  17
ENDBRANCH   6  16
TORSDOF 9
ENDMDL
MODEL      156
REMARK 921   NORMALIZED FREE ENERGY PREDICTED BY IDOCK:   -5.34 KCAL/MOL
REMARK 922        TOTAL FREE ENERGY PREDICTED BY IDOCK:  -10.08 KCAL/MOL
REMARK 923 INTER-LIGAND FREE ENERGY PREDICTED BY IDOCK:   -8.37 KCAL/MOL
REMARK 924 INTRA-LIGAND FREE ENERGY PREDICTED BY IDOCK:   -1.71 KCAL/MOL
REMARK 927      BINDING AFFINITY PREDICTED BY RF-SCORE:    0.00 PKD
ROOT
HETATM    1  O   UNL     1     -12.859  14.307  64.583  1.00  0.00    -0.658 OA 
HETATM    2  C   UNL     1     -11.444  14.226  64.717  1.00  0.00    -0.393 C  
HETATM    3  H   UNL     1     -13.115  14.591  63.713  1.00  0.00     0.000 HD 
HETATM    4  C   UNL     2      -8.231   6.247  64.456  1.00  0.00    -0.062 C  
HETATM    5  C   UNL     1     -11.026  13.760  66.142  1.00  0.00    -0.292 C  
HETATM    6  C   UNL     2      -8.834   6.866  65.708  1.00  0.00    -0.088 C  
HETATM    7  C   UNL     1     -11.713  12.401  66.454  1.00  0.00    -0.391 C  
HETATM    8  N   UNL     1      -9.541  13.574  66.102  1.00  0.00    -0.429 NA 
HETATM    9  C   UNL     1     -11.241  14.788  67.242  1.00  0.00    -0.346 C  
HETATM   10  H   UNL     1     -10.400  16.475  67.765  1.00  0.00     0.000 HD 
HETATM   11  H   UNL     1     -11.792  10.594  65.656  1.00  0.00     0.000 HD 
HETATM   12  H2  UNL     1      -9.037  14.400  65.782  1.00  0.00     0.000 HD 
HETATM   13  O   UNL     1     -11.372  11.424  65.466  1.00  0.00    -0.153 OA 
HETATM   14  O   UNL     1     -10.266  15.832  67.078  1.00  0.00    -0.267 OA 
HETATM   15  H1  UNL     1      -9.267  13.268  67.036  1.00  0.00     0.000 HD 
ENDROOT
BRANCH   6  16
HETATM   16  C   UNL     2      -8.374   8.302  65.967  1.00  0.00    -0.130 C  
BRANCH  16  17
HETATM   17  C   UNL     2      -9.320   9.140  66.833  1.00  0.00    -0.199 C  
BRANCH  17  18
HETATM   18  C   UNL     2      -8.617  10.084  67.836  1.00  0.00    -0.121 C  
HETATM   19  C   UNL     2      -8.061   9.484  69.148  1.00  0.00    -0.103 C  
HETATM   20  C   UNL     2      -7.222  10.456  69.990  1.00  0.00    -0.143 C  
HETATM   21  O   UNL     2      -7.194   8.405  68.783  1.00  0.00    -0.075 OA 
HETATM   22  C   UNL     2      -9.183   8.932  69.981  1.00  0.00    -0.183 C  
HETATM   23  H   UNL     2      -6.853   8.035  69.589  1.00  0.00     0.000 HD 
HETATM   24  C   UNL     2     -10.098   9.623  70.682  1.00  0.00    -0.324 C  
BRANCH  24  25
HETATM   25  C   UNL     2     -11.228   9.015  71.482  1.00  0.00    -0.418 C  
HETATM   26  C   UNL     2     -12.542   9.830  71.530  1.00  0.00    -0.398 C  
HETATM   27  C   UNL     2     -13.510   8.838  72.128  1.00  0.00    -0.469 C  
HETATM   28  O   UNL     2     -13.086  10.178  70.261  1.00  0.00    -0.586 OA 
HETATM   29  H   UNL     2     -13.893  10.678  70.290  1.00  0.00     0.000 HD 
HETATM   30  C   UNL     2     -13.181   7.535  71.401  1.00  0.00    -0.316 C  
HETATM   31  C   UNL     2     -11.674   7.589  71.035  1.00  0.00    -0.317 C  
HETATM   32  O   UNL     2     -13.556   6.461  72.249  1.00  0.00    -0.476 OA 
HETATM   33  H   UNL     2     -13.352   5.651  71.797  1.00  0.00     0.000 HD 
BRANCH  31  34
HETATM   34  C   UNL     2     -10.808   6.462  71.641  1.00  0.00    -0.291 C  
BRANCH  34  35
HETATM   35  C   UNL     2     -10.674   5.246  70.754  1.00  0.00    -0.196 C  
HETATM   36  C   UNL     2      -9.565   4.728  70.204  1.00  0.00    -0.265 C  
BRANCH  36  37
HETATM   37  C   UNL     2      -8.155   5.230  70.335  1.00  0.00    -0.096 C  
BRANCH  37  38
HETATM   38  C   UNL     2      -7.163   4.495  69.432  1.00  0.00    -0.051 C  
BRANCH  38  39
HETATM   39  C   UNL     2      -6.706   5.285  68.215  1.00  0.00    -0.054 C  
HETATM   40  C   UNL     2      -6.150   4.510  67.019  1.00  0.00    -0.031 C  
HETATM   41  O   UNL     2      -5.357   5.171  66.293  1.00  0.00    -0.011 OA 
HETATM   42  O   UNL     2      -6.549   3.321  66.797  1.00  0.00    -0.036 OA 
ENDBRANCH  38  39
ENDBRANCH  37  38
ENDBRANCH  36  37
ENDBRANCH  34  35
ENDBRANCH  31  34
ENDBRANCH  24  25
ENDBRANCH  17  18
ENDBRANCH  16  17
ENDBRANCH   6  16
TORSDOF 9
ENDMDL
MODEL      157
REMARK 921   NORMALIZED FREE ENERGY PREDICTED BY IDOCK:   -5.32 KCAL/MOL
REMARK 922        TOTAL FREE ENERGY PREDICTED BY IDOCK:  -10.04 KCAL/MOL
REMARK 923 INTER-LIGAND FREE ENERGY PREDICTED BY IDOCK:   -8.53 KCAL/MOL
REMARK 924 INTRA-LIGAND FREE ENERGY PREDICTED BY IDOCK:   -1.51 KCAL/MOL
REMARK 927      BINDING AFFINITY PREDICTED BY RF-SCORE:    0.00 PKD
ROOT
HETATM    1  O   UNL     1     -10.690  17.357  68.378  1.00  0.00    -0.358 OA 
HETATM    2  C   UNL     1     -10.283  16.236  69.156  1.00  0.00    -0.266 C  
HETATM    3  H   UNL     1     -10.013  18.022  68.337  1.00  0.00     0.000 HD 
HETATM    4  C   UNL     2      -7.979   9.308  64.601  1.00  0.00    -0.125 C  
HETATM    5  C   UNL     1     -11.392  15.146  69.223  1.00  0.00    -0.300 C  
HETATM    6  C   UNL     2      -9.425   9.658  64.918  1.00  0.00    -0.288 C  
HETATM    7  C   UNL     1     -11.784  14.732  67.778  1.00  0.00    -0.343 C  
HETATM    8  N   UNL     1     -10.786  13.977  69.933  1.00  0.00    -0.449 NA 
HETATM    9  C   UNL     1     -12.599  15.512  70.073  1.00  0.00    -0.196 C  
HETATM   10  H   UNL     1     -12.956  15.707  71.987  1.00  0.00     0.000 HD 
HETATM   11  H   UNL     1     -10.879  14.013  66.174  1.00  0.00     0.000 HD 
HETATM   12  H2  UNL     1     -10.395  14.213  70.845  1.00  0.00     0.000 HD 
HETATM   13  O   UNL     1     -10.639  14.266  67.057  1.00  0.00    -0.276 OA 
HETATM   14  O   UNL     1     -12.202  15.479  71.455  1.00  0.00    -0.327 OA 
HETATM   15  H1  UNL     1     -11.513  13.262  69.977  1.00  0.00     0.000 HD 
ENDROOT
BRANCH   6  16
HETATM   16  C   UNL     2      -9.652  10.078  66.372  1.00  0.00    -0.248 C  
BRANCH  16  17
HETATM   17  C   UNL     2     -10.820  11.044  66.594  1.00  0.00    -0.284 C  
BRANCH  17  18
HETATM   18  C   UNL     2     -11.542  10.888  67.952  1.00  0.00    -0.270 C  
HETATM   19  C   UNL     2     -10.735  10.357  69.159  1.00  0.00    -0.234 C  
HETATM   20  C   UNL     2     -11.480  10.411  70.500  1.00  0.00    -0.431 C  
HETATM   21  O   UNL     2      -9.583  11.196  69.298  1.00  0.00    -0.407 OA 
HETATM   22  C   UNL     2     -10.271   8.952  68.895  1.00  0.00    -0.220 C  
HETATM   23  H   UNL     2      -9.086  10.870  70.039  1.00  0.00     0.000 HD 
HETATM   24  C   UNL     2     -11.013   7.832  68.895  1.00  0.00     0.082 C  
BRANCH  24  25
HETATM   25  C   UNL     2     -10.499   6.442  68.592  1.00  0.00    -0.260 C  
HETATM   26  C   UNL     2     -10.812   5.894  67.180  1.00  0.00    -0.285 C  
HETATM   27  C   UNL     2      -9.934   4.669  67.112  1.00  0.00    -0.215 C  
HETATM   28  O   UNL     2     -10.395   6.725  66.101  1.00  0.00    -0.420 OA 
HETATM   29  H   UNL     2     -10.588   6.389  65.234  1.00  0.00     0.000 HD 
HETATM   30  C   UNL     2      -8.613   5.142  67.717  1.00  0.00    -0.103 C  
HETATM   31  C   UNL     2      -8.959   6.249  68.748  1.00  0.00    -0.125 C  
HETATM   32  O   UNL     2      -7.954   4.005  68.253  1.00  0.00    -0.076 OA 
HETATM   33  H   UNL     2      -7.132   4.300  68.629  1.00  0.00     0.000 HD 
BRANCH  31  34
HETATM   34  C   UNL     2      -8.527   5.954  70.202  1.00  0.00    -0.126 C  
BRANCH  34  35
HETATM   35  C   UNL     2      -9.463   5.029  70.946  1.00  0.00    -0.222 C  
HETATM   36  C   UNL     2     -10.450   5.345  71.799  1.00  0.00    -0.288 C  
BRANCH  36  37
HETATM   37  C   UNL     2     -10.882   6.715  72.235  1.00  0.00    -0.260 C  
BRANCH  37  38
HETATM   38  C   UNL     2     -10.497   7.041  73.679  1.00  0.00    -0.414 C  
BRANCH  38  39
HETATM   39  C   UNL     2      -9.061   6.698  74.045  1.00  0.00    -0.190 C  
HETATM   40  C   UNL     2      -7.943   7.567  73.468  1.00  0.00    -0.125 C  
HETATM   41  O   UNL     2      -6.825   6.986  73.374  1.00  0.00    -0.070 OA 
HETATM   42  O   UNL     2      -8.173   8.789  73.187  1.00  0.00    -0.411 OA 
ENDBRANCH  38  39
ENDBRANCH  37  38
ENDBRANCH  36  37
ENDBRANCH  34  35
ENDBRANCH  31  34
ENDBRANCH  24  25
ENDBRANCH  17  18
ENDBRANCH  16  17
ENDBRANCH   6  16
TORSDOF 9
ENDMDL
MODEL      158
REMARK 921   NORMALIZED FREE ENERGY PREDICTED BY IDOCK:   -5.31 KCAL/MOL
REMARK 922        TOTAL FREE ENERGY PREDICTED BY IDOCK:  -10.03 KCAL/MOL
REMARK 923 INTER-LIGAND FREE ENERGY PREDICTED BY IDOCK:   -8.31 KCAL/MOL
REMARK 924 INTRA-LIGAND FREE ENERGY PREDICTED BY IDOCK:   -1.71 KCAL/MOL
REMARK 927      BINDING AFFINITY PREDICTED BY RF-SCORE:    0.00 PKD
ROOT
HETATM    1  O   UNL     1     -14.384   8.762  73.099  1.00  0.00    -1.119 OA 
HETATM    2  C   UNL     1     -13.921   8.581  71.764  1.00  0.00    -0.431 C  
HETATM    3  H   UNL     1     -15.293   8.502  73.195  1.00  0.00     0.000 HD 
HETATM    4  C   UNL     2      -8.924   1.678  70.569  1.00  0.00    -0.132 C  
HETATM    5  C   UNL     1     -12.432   9.007  71.607  1.00  0.00    -0.351 C  
HETATM    6  C   UNL     2      -8.408   2.999  71.119  1.00  0.00    -0.086 C  
HETATM    7  C   UNL     1     -11.568   8.217  72.628  1.00  0.00    -0.375 C  
HETATM    8  N   UNL     1     -12.035   8.627  70.215  1.00  0.00    -0.436 NA 
HETATM    9  C   UNL     1     -12.185  10.506  71.668  1.00  0.00    -0.195 C  
HETATM   10  H   UNL     1     -12.536  12.032  70.496  1.00  0.00     0.000 HD 
HETATM   11  H   UNL     1     -11.201   6.324  73.067  1.00  0.00     0.000 HD 
HETATM   12  H2  UNL     1     -12.646   9.018  69.497  1.00  0.00     0.000 HD 
HETATM   13  O   UNL     1     -11.729   6.807  72.444  1.00  0.00    -0.272 OA 
HETATM   14  O   UNL     1     -12.691  11.095  70.458  1.00  0.00    -0.285 OA 
HETATM   15  H1  UNL     1     -11.059   8.906  70.111  1.00  0.00     0.000 HD 
ENDROOT
BRANCH   6  16
HETATM   16  C   UNL     2      -8.912   4.223  70.352  1.00  0.00    -0.147 C  
BRANCH  16  17
HETATM   17  C   UNL     2      -9.077   5.493  71.192  1.00  0.00    -0.159 C  
BRANCH  17  18
HETATM   18  C   UNL     2      -7.862   6.450  71.167  1.00  0.00    -0.114 C  
HETATM   19  C   UNL     2      -7.905   7.669  70.217  1.00  0.00    -0.092 C  
HETATM   20  C   UNL     2      -6.744   8.658  70.395  1.00  0.00    -0.038 C  
HETATM   21  O   UNL     2      -9.106   8.391  70.511  1.00  0.00    -0.142 OA 
HETATM   22  C   UNL     2      -7.964   7.210  68.787  1.00  0.00    -0.123 C  
HETATM   23  H   UNL     2      -9.132   9.140  69.927  1.00  0.00     0.000 HD 
HETATM   24  C   UNL     2      -6.970   6.674  68.058  1.00  0.00    -0.080 C  
BRANCH  24  25
HETATM   25  C   UNL     2      -7.093   6.200  66.627  1.00  0.00    -0.072 C  
HETATM   26  C   UNL     2      -7.728   4.805  66.425  1.00  0.00    -0.091 C  
HETATM   27  C   UNL     2      -7.966   4.776  64.936  1.00  0.00    -0.098 C  
HETATM   28  O   UNL     2      -9.010   4.630  67.021  1.00  0.00    -0.110 OA 
HETATM   29  H   UNL     2      -9.400   3.773  66.897  1.00  0.00     0.000 HD 
HETATM   30  C   UNL     2      -8.522   6.167  64.635  1.00  0.00     0.023 C  
HETATM   31  C   UNL     2      -7.905   7.135  65.680  1.00  0.00    -0.112 C  
HETATM   32  O   UNL     2      -8.219   6.469  63.282  1.00  0.00    -0.275 OA 
HETATM   33  H   UNL     2      -8.565   7.335  63.096  1.00  0.00     0.000 HD 
BRANCH  31  34
HETATM   34  C   UNL     2      -7.061   8.289  65.092  1.00  0.00    -0.075 C  
BRANCH  34  35
HETATM   35  C   UNL     2      -7.379   9.644  65.682  1.00  0.00    -0.101 C  
HETATM   36  C   UNL     2      -8.322  10.521  65.304  1.00  0.00    -0.155 C  
BRANCH  36  37
HETATM   37  C   UNL     2      -9.316  10.376  64.188  1.00  0.00    -0.323 C  
BRANCH  37  38
HETATM   38  C   UNL     2     -10.697  10.941  64.528  1.00  0.00    -0.258 C  
BRANCH  38  39
HETATM   39  C   UNL     2     -11.268  11.891  63.486  1.00  0.00    -0.501 C  
HETATM   40  C   UNL     2     -11.714  13.280  63.946  1.00  0.00    -0.431 C  
HETATM   41  O   UNL     2     -12.597  13.812  63.217  1.00  0.00    -0.830 OA 
HETATM   42  O   UNL     2     -11.152  13.823  64.952  1.00  0.00    -0.329 OA 
ENDBRANCH  38  39
ENDBRANCH  37  38
ENDBRANCH  36  37
ENDBRANCH  34  35
ENDBRANCH  31  34
ENDBRANCH  24  25
ENDBRANCH  17  18
ENDBRANCH  16  17
ENDBRANCH   6  16
TORSDOF 9
ENDMDL
MODEL      159
REMARK 921   NORMALIZED FREE ENERGY PREDICTED BY IDOCK:   -5.28 KCAL/MOL
REMARK 922        TOTAL FREE ENERGY PREDICTED BY IDOCK:   -9.99 KCAL/MOL
REMARK 923 INTER-LIGAND FREE ENERGY PREDICTED BY IDOCK:   -8.41 KCAL/MOL
REMARK 924 INTRA-LIGAND FREE ENERGY PREDICTED BY IDOCK:   -1.58 KCAL/MOL
REMARK 927      BINDING AFFINITY PREDICTED BY RF-SCORE:    0.00 PKD
ROOT
HETATM    1  O   UNL     1     -12.301  14.421  63.936  1.00  0.00    -0.897 OA 
HETATM    2  C   UNL     1     -11.034  14.314  64.576  1.00  0.00    -0.298 C  
HETATM    3  H   UNL     1     -12.251  14.935  63.139  1.00  0.00     0.000 HD 
HETATM    4  C   UNL     2      -7.075   6.745  63.529  1.00  0.00    -0.060 C  
HETATM    5  C   UNL     1     -11.116  13.470  65.882  1.00  0.00    -0.284 C  
HETATM    6  C   UNL     2      -8.159   6.986  64.569  1.00  0.00    -0.069 C  
HETATM    7  C   UNL     1     -11.712  12.075  65.548  1.00  0.00    -0.251 C  
HETATM    8  N   UNL     1      -9.708  13.312  66.365  1.00  0.00    -0.275 NA 
HETATM    9  C   UNL     1     -11.832  14.150  67.039  1.00  0.00    -0.429 C  
HETATM   10  H   UNL     1     -11.434  15.628  68.256  1.00  0.00     0.000 HD 
HETATM   11  H   UNL     1     -11.291  10.562  64.347  1.00  0.00     0.000 HD 
HETATM   12  H2  UNL     1      -9.218  14.198  66.486  1.00  0.00     0.000 HD 
HETATM   13  O   UNL     1     -10.927  11.415  64.550  1.00  0.00    -0.326 OA 
HETATM   14  O   UNL     1     -10.987  15.203  67.533  1.00  0.00    -0.294 OA 
HETATM   15  H1  UNL     1      -9.762  12.759  67.221  1.00  0.00     0.000 HD 
ENDROOT
BRANCH   6  16
HETATM   16  C   UNL     2      -7.990   8.295  65.342  1.00  0.00    -0.127 C  
BRANCH  16  17
HETATM   17  C   UNL     2      -8.978   8.501  66.494  1.00  0.00    -0.194 C  
BRANCH  17  18
HETATM   18  C   UNL     2      -8.900   9.886  67.177  1.00  0.00    -0.146 C  
HETATM   19  C   UNL     2      -7.642  10.228  68.008  1.00  0.00    -0.088 C  
HETATM   20  C   UNL     2      -7.572  11.684  68.490  1.00  0.00    -0.127 C  
HETATM   21  O   UNL     2      -6.507  10.024  67.158  1.00  0.00    -0.067 OA 
HETATM   22  C   UNL     2      -7.529   9.299  69.184  1.00  0.00    -0.072 C  
HETATM   23  H   UNL     2      -5.735  10.233  67.669  1.00  0.00     0.000 HD 
HETATM   24  C   UNL     2      -8.273   9.303  70.303  1.00  0.00    -0.187 C  
BRANCH  24  25
HETATM   25  C   UNL     2      -8.136   8.323  71.446  1.00  0.00    -0.148 C  
HETATM   26  C   UNL     2      -6.820   8.401  72.255  1.00  0.00    -0.089 C  
HETATM   27  C   UNL     2      -7.130   7.534  73.451  1.00  0.00    -0.091 C  
HETATM   28  O   UNL     2      -6.510   9.686  72.784  1.00  0.00    -0.013 OA 
HETATM   29  H   UNL     2      -5.701   9.734  73.281  1.00  0.00     0.000 HD 
HETATM   30  C   UNL     2      -8.550   7.946  73.833  1.00  0.00    -0.274 C  
HETATM   31  C   UNL     2      -9.258   8.393  72.527  1.00  0.00    -0.338 C  
HETATM   32  O   UNL     2      -9.153   6.847  74.499  1.00  0.00    -0.192 OA 
HETATM   33  H   UNL     2     -10.037   7.104  74.737  1.00  0.00     0.000 HD 
BRANCH  31  34
HETATM   34  C   UNL     2     -10.519   7.582  72.149  1.00  0.00    -0.255 C  
BRANCH  34  35
HETATM   35  C   UNL     2     -11.817   8.244  72.551  1.00  0.00    -0.439 C  
HETATM   36  C   UNL     2     -12.495   9.212  71.915  1.00  0.00    -0.459 C  
BRANCH  36  37
HETATM   37  C   UNL     2     -12.133   9.891  70.626  1.00  0.00    -0.343 C  
BRANCH  37  38
HETATM   38  C   UNL     2     -12.890  11.201  70.398  1.00  0.00    -0.176 C  
BRANCH  38  39
HETATM   39  C   UNL     2     -12.045  12.457  70.554  1.00  0.00    -0.363 C  
HETATM   40  C   UNL     2     -12.712  13.707  71.128  1.00  0.00    -0.353 C  
HETATM   41  O   UNL     2     -12.169  14.794  70.783  1.00  0.00    -0.272 OA 
HETATM   42  O   UNL     2     -13.691  13.588  71.934  1.00  0.00    -0.410 OA 
ENDBRANCH  38  39
ENDBRANCH  37  38
ENDBRANCH  36  37
ENDBRANCH  34  35
ENDBRANCH  31  34
ENDBRANCH  24  25
ENDBRANCH  17  18
ENDBRANCH  16  17
ENDBRANCH   6  16
TORSDOF 9
ENDMDL
MODEL      160
REMARK 921   NORMALIZED FREE ENERGY PREDICTED BY IDOCK:   -5.24 KCAL/MOL
REMARK 922        TOTAL FREE ENERGY PREDICTED BY IDOCK:   -9.93 KCAL/MOL
REMARK 923 INTER-LIGAND FREE ENERGY PREDICTED BY IDOCK:   -7.21 KCAL/MOL
REMARK 924 INTRA-LIGAND FREE ENERGY PREDICTED BY IDOCK:   -2.71 KCAL/MOL
REMARK 927      BINDING AFFINITY PREDICTED BY RF-SCORE:    0.00 PKD
ROOT
HETATM    1  O   UNL     1      -9.513   7.292  72.802  1.00  0.00    -0.141 OA 
HETATM    2  C   UNL     1      -8.600   8.316  72.421  1.00  0.00    -0.206 C  
HETATM    3  H   UNL     1      -9.544   7.181  73.745  1.00  0.00     0.000 HD 
HETATM    4  C   UNL     2     -12.255  15.768  70.148  1.00  0.00    -0.340 C  
HETATM    5  C   UNL     1      -8.550   8.499  70.876  1.00  0.00    -0.158 C  
HETATM    6  C   UNL     2     -12.120  14.580  69.207  1.00  0.00    -0.325 C  
HETATM    7  C   UNL     1      -9.984   8.783  70.352  1.00  0.00    -0.189 C  
HETATM    8  N   UNL     1      -7.679   9.690  70.625  1.00  0.00    -0.285 NA 
HETATM    9  C   UNL     1      -7.864   7.372  70.119  1.00  0.00    -0.099 C  
HETATM   10  H   UNL     1      -6.022   6.748  69.904  1.00  0.00     0.000 HD 
HETATM   11  H   UNL     1     -11.416  10.108  70.674  1.00  0.00     0.000 HD 
HETATM   12  H2  UNL     1      -6.757   9.617  71.054  1.00  0.00     0.000 HD 
HETATM   13  O   UNL     1     -10.539   9.935  70.994  1.00  0.00    -0.290 OA 
HETATM   14  O   UNL     1      -6.451   7.452  70.377  1.00  0.00    -0.038 OA 
HETATM   15  H1  UNL     1      -7.646   9.811  69.612  1.00  0.00     0.000 HD 
ENDROOT
BRANCH   6  16
HETATM   16  C   UNL     2     -10.741  13.919  69.244  1.00  0.00    -0.117 C  
BRANCH  16  17
HETATM   17  C   UNL     2      -9.603  14.760  68.658  1.00  0.00    -0.218 C  
BRANCH  17  18
HETATM   18  C   UNL     2      -8.209  14.478  69.264  1.00  0.00     0.057 C  
HETATM   19  C   UNL     2      -7.001  14.354  68.307  1.00  0.00    -0.113 C  
HETATM   20  C   UNL     2      -5.638  14.259  69.007  1.00  0.00    -0.088 C  
HETATM   21  O   UNL     2      -6.970  15.544  67.511  1.00  0.00    -0.162 OA 
HETATM   22  C   UNL     2      -7.183  13.175  67.393  1.00  0.00    -0.119 C  
HETATM   23  H   UNL     2      -6.229  15.468  66.923  1.00  0.00     0.000 HD 
HETATM   24  C   UNL     2      -7.072  11.873  67.705  1.00  0.00    -0.103 C  
BRANCH  24  25
HETATM   25  C   UNL     2      -7.296  10.722  66.750  1.00  0.00    -0.129 C  
HETATM   26  C   UNL     2      -6.196   9.636  66.724  1.00  0.00    -0.065 C  
HETATM   27  C   UNL     2      -6.853   8.537  65.925  1.00  0.00    -0.064 C  
HETATM   28  O   UNL     2      -5.887   9.058  67.988  1.00  0.00    -0.038 OA 
HETATM   29  H   UNL     2      -5.211   8.390  67.973  1.00  0.00     0.000 HD 
HETATM   30  C   UNL     2      -8.275   8.490  66.483  1.00  0.00    -0.108 C  
HETATM   31  C   UNL     2      -8.621   9.927  66.958  1.00  0.00    -0.130 C  
HETATM   32  O   UNL     2      -9.120   7.973  65.467  1.00  0.00    -0.385 OA 
HETATM   33  H   UNL     2     -10.004   7.944  65.814  1.00  0.00     0.000 HD 
BRANCH  31  34
HETATM   34  C   UNL     2      -9.838  10.576  66.262  1.00  0.00    -0.269 C  
BRANCH  34  35
HETATM   35  C   UNL     2      -9.470  11.557  65.171  1.00  0.00    -0.190 C  
HETATM   36  C   UNL     2     -10.135  11.839  64.040  1.00  0.00    -0.360 C  
BRANCH  36  37
HETATM   37  C   UNL     2     -11.431  11.247  63.565  1.00  0.00     0.004 C  
BRANCH  37  38
HETATM   38  C   UNL     2     -12.639  12.154  63.814  1.00  0.00    -0.585 C  
BRANCH  38  39
HETATM   39  C   UNL     2     -12.541  13.010  65.068  1.00  0.00    -0.515 C  
HETATM   40  C   UNL     2     -12.242  14.500  64.901  1.00  0.00    -0.402 C  
HETATM   41  O   UNL     2     -11.692  15.037  65.903  1.00  0.00    -0.248 OA 
HETATM   42  O   UNL     2     -12.605  15.102  63.838  1.00  0.00    -0.794 OA 
ENDBRANCH  38  39
ENDBRANCH  37  38
ENDBRANCH  36  37
ENDBRANCH  34  35
ENDBRANCH  31  34
ENDBRANCH  24  25
ENDBRANCH  17  18
ENDBRANCH  16  17
ENDBRANCH   6  16
TORSDOF 9
ENDMDL
MODEL      161
REMARK 921   NORMALIZED FREE ENERGY PREDICTED BY IDOCK:   -5.24 KCAL/MOL
REMARK 922        TOTAL FREE ENERGY PREDICTED BY IDOCK:   -9.92 KCAL/MOL
REMARK 923 INTER-LIGAND FREE ENERGY PREDICTED BY IDOCK:   -8.35 KCAL/MOL
REMARK 924 INTRA-LIGAND FREE ENERGY PREDICTED BY IDOCK:   -1.57 KCAL/MOL
REMARK 927      BINDING AFFINITY PREDICTED BY RF-SCORE:    0.00 PKD
ROOT
HETATM    1  O   UNL     1     -11.614   6.483  73.185  1.00  0.00    -0.464 OA 
HETATM    2  C   UNL     1     -10.903   7.329  72.288  1.00  0.00    -0.238 C  
HETATM    3  H   UNL     1     -11.083   6.236  73.933  1.00  0.00     0.000 HD 
HETATM    4  C   UNL     2     -13.022  15.659  72.715  1.00  0.00    -0.579 C  
HETATM    5  C   UNL     1     -11.773   7.733  71.063  1.00  0.00    -0.281 C  
HETATM    6  C   UNL     2     -13.822  14.631  71.929  1.00  0.00    -0.544 C  
HETATM    7  C   UNL     1     -13.082   8.401  71.569  1.00  0.00    -0.296 C  
HETATM    8  N   UNL     1     -10.968   8.730  70.289  1.00  0.00    -0.239 NA 
HETATM    9  C   UNL     1     -12.036   6.615  70.067  1.00  0.00    -0.123 C  
HETATM   10  H   UNL     1     -10.976   5.645  68.740  1.00  0.00     0.000 HD 
HETATM   11  H   UNL     1     -13.586   9.941  72.702  1.00  0.00     0.000 HD 
HETATM   12  H2  UNL     1     -10.040   8.392  70.033  1.00  0.00     0.000 HD 
HETATM   13  O   UNL     1     -12.787   9.533  72.394  1.00  0.00    -0.363 OA 
HETATM   14  O   UNL     1     -10.812   6.344  69.362  1.00  0.00    -0.252 OA 
HETATM   15  H1  UNL     1     -11.539   8.995  69.487  1.00  0.00     0.000 HD 
ENDROOT
BRANCH   6  16
HETATM   16  C   UNL     2     -12.957  13.687  71.091  1.00  0.00    -0.353 C  
BRANCH  16  17
HETATM   17  C   UNL     2     -11.994  14.379  70.122  1.00  0.00    -0.386 C  
BRANCH  17  18
HETATM   18  C   UNL     2     -12.529  14.539  68.680  1.00  0.00     0.137 C  
HETATM   19  C   UNL     2     -11.892  13.686  67.559  1.00  0.00    -0.381 C  
HETATM   20  C   UNL     2     -12.607  13.775  66.203  1.00  0.00    -0.423 C  
HETATM   21  O   UNL     2     -11.972  12.318  67.974  1.00  0.00    -0.425 OA 
HETATM   22  C   UNL     2     -10.443  14.048  67.391  1.00  0.00    -0.263 C  
HETATM   23  H   UNL     2     -11.580  11.793  67.286  1.00  0.00     0.000 HD 
HETATM   24  C   UNL     2      -9.937  15.162  66.835  1.00  0.00    -0.243 C  
BRANCH  24  25
HETATM   25  C   UNL     2      -8.466  15.491  66.719  1.00  0.00    -0.314 C  
HETATM   26  C   UNL     2      -8.119  16.978  66.477  1.00  0.00    -0.285 C  
HETATM   27  C   UNL     2      -6.627  16.998  66.706  1.00  0.00    -0.262 C  
HETATM   28  O   UNL     2      -8.664  17.890  67.426  1.00  0.00    -0.233 OA 
HETATM   29  H   UNL     2      -8.451  18.804  67.277  1.00  0.00     0.000 HD 
HETATM   30  C   UNL     2      -6.445  16.131  67.950  1.00  0.00    -0.142 C  
HETATM   31  C   UNL     2      -7.590  15.084  67.943  1.00  0.00    -0.150 C  
HETATM   32  O   UNL     2      -5.134  15.589  67.910  1.00  0.00    -0.116 OA 
HETATM   33  H   UNL     2      -5.021  15.050  68.684  1.00  0.00     0.000 HD 
BRANCH  31  34
HETATM   34  C   UNL     2      -7.134  13.608  67.902  1.00  0.00    -0.151 C  
BRANCH  34  35
HETATM   35  C   UNL     2      -6.717  13.056  69.246  1.00  0.00    -0.062 C  
HETATM   36  C   UNL     2      -6.636  11.775  69.637  1.00  0.00    -0.081 C  
BRANCH  36  37
HETATM   37  C   UNL     2      -6.940  10.547  68.827  1.00  0.00    -0.070 C  
BRANCH  37  38
HETATM   38  C   UNL     2      -8.407  10.118  68.904  1.00  0.00    -0.130 C  
BRANCH  38  39
HETATM   39  C   UNL     2      -9.165  10.210  67.588  1.00  0.00    -0.151 C  
HETATM   40  C   UNL     2      -8.976   9.086  66.568  1.00  0.00    -0.146 C  
HETATM   41  O   UNL     2      -9.191   9.426  65.371  1.00  0.00    -0.217 OA 
HETATM   42  O   UNL     2      -8.688   7.911  66.968  1.00  0.00    -0.124 OA 
ENDBRANCH  38  39
ENDBRANCH  37  38
ENDBRANCH  36  37
ENDBRANCH  34  35
ENDBRANCH  31  34
ENDBRANCH  24  25
ENDBRANCH  17  18
ENDBRANCH  16  17
ENDBRANCH   6  16
TORSDOF 9
ENDMDL
MODEL      162
REMARK 921   NORMALIZED FREE ENERGY PREDICTED BY IDOCK:   -5.23 KCAL/MOL
REMARK 922        TOTAL FREE ENERGY PREDICTED BY IDOCK:   -9.91 KCAL/MOL
REMARK 923 INTER-LIGAND FREE ENERGY PREDICTED BY IDOCK:   -7.58 KCAL/MOL
REMARK 924 INTRA-LIGAND FREE ENERGY PREDICTED BY IDOCK:   -2.33 KCAL/MOL
REMARK 927      BINDING AFFINITY PREDICTED BY RF-SCORE:    0.00 PKD
ROOT
HETATM    1  O   UNL     1     -13.312  10.995  72.145  1.00  0.00    -0.594 OA 
HETATM    2  C   UNL     1     -13.244  10.419  70.844  1.00  0.00    -0.244 C  
HETATM    3  H   UNL     1     -14.188  10.940  72.509  1.00  0.00     0.000 HD 
HETATM    4  C   UNL     2      -9.615   2.622  70.526  1.00  0.00    -0.149 C  
HETATM    5  C   UNL     1     -11.809  10.509  70.248  1.00  0.00    -0.331 C  
HETATM    6  C   UNL     2      -8.816   3.916  70.560  1.00  0.00    -0.136 C  
HETATM    7  C   UNL     1     -10.808   9.838  71.229  1.00  0.00    -0.206 C  
HETATM    8  N   UNL     1     -11.842   9.742  68.963  1.00  0.00    -0.222 NA 
HETATM    9  C   UNL     1     -11.373  11.906  69.835  1.00  0.00    -0.096 C  
HETATM   10  H   UNL     1     -11.833  13.148  68.396  1.00  0.00     0.000 HD 
HETATM   11  H   UNL     1     -10.570   8.070  72.082  1.00  0.00     0.000 HD 
HETATM   12  H2  UNL     1     -12.568  10.058  68.320  1.00  0.00     0.000 HD 
HETATM   13  O   UNL     1     -11.182   8.480  71.483  1.00  0.00    -0.248 OA 
HETATM   14  O   UNL     1     -12.105  12.275  68.654  1.00  0.00    -0.272 OA 
HETATM   15  H1  UNL     1     -10.901   9.801  68.572  1.00  0.00     0.000 HD 
ENDROOT
BRANCH   6  16
HETATM   16  C   UNL     2      -9.352   4.994  69.616  1.00  0.00    -0.184 C  
BRANCH  16  17
HETATM   17  C   UNL     2      -9.025   6.434  70.022  1.00  0.00    -0.146 C  
BRANCH  17  18
HETATM   18  C   UNL     2      -7.543   6.839  69.840  1.00  0.00    -0.100 C  
HETATM   19  C   UNL     2      -7.172   8.336  69.944  1.00  0.00    -0.059 C  
HETATM   20  C   UNL     2      -5.663   8.621  69.935  1.00  0.00    -0.028 C  
HETATM   21  O   UNL     2      -7.669   8.807  71.202  1.00  0.00    -0.101 OA 
HETATM   22  C   UNL     2      -7.840   9.114  68.846  1.00  0.00    -0.094 C  
HETATM   23  H   UNL     2      -7.441   9.727  71.266  1.00  0.00     0.000 HD 
HETATM   24  C   UNL     2      -7.524   9.124  67.540  1.00  0.00    -0.088 C  
BRANCH  24  25
HETATM   25  C   UNL     2      -8.252   9.905  66.470  1.00  0.00    -0.121 C  
HETATM   26  C   UNL     2      -9.314   9.124  65.662  1.00  0.00    -0.235 C  
HETATM   27  C   UNL     2     -10.028  10.229  64.923  1.00  0.00    -0.393 C  
HETATM   28  O   UNL     2     -10.315   8.477  66.443  1.00  0.00    -0.377 OA 
HETATM   29  H   UNL     2     -10.968   7.997  65.947  1.00  0.00     0.000 HD 
HETATM   30  C   UNL     2     -10.196  11.317  65.982  1.00  0.00    -0.247 C  
HETATM   31  C   UNL     2      -9.002  11.179  66.964  1.00  0.00    -0.156 C  
HETATM   32  O   UNL     2     -10.280  12.564  65.309  1.00  0.00    -0.279 OA 
HETATM   33  H   UNL     2     -10.384  13.241  65.968  1.00  0.00     0.000 HD 
BRANCH  31  34
HETATM   34  C   UNL     2      -8.089  12.421  67.071  1.00  0.00    -0.124 C  
BRANCH  34  35
HETATM   35  C   UNL     2      -8.277  13.214  68.344  1.00  0.00    -0.130 C  
HETATM   36  C   UNL     2      -8.872  14.406  68.509  1.00  0.00    -0.182 C  
BRANCH  36  37
HETATM   37  C   UNL     2      -9.513  15.264  67.456  1.00  0.00    -0.202 C  
BRANCH  37  38
HETATM   38  C   UNL     2     -10.778  15.975  67.941  1.00  0.00    -0.316 C  
BRANCH  38  39
HETATM   39  C   UNL     2     -10.524  17.203  68.802  1.00  0.00    -0.351 C  
HETATM   40  C   UNL     2     -10.210  18.524  68.099  1.00  0.00    -0.378 C  
HETATM   41  O   UNL     2      -9.541  19.340  68.794  1.00  0.00    -0.386 OA 
HETATM   42  O   UNL     2     -10.671  18.744  66.931  1.00  0.00    -0.407 OA 
ENDBRANCH  38  39
ENDBRANCH  37  38
ENDBRANCH  36  37
ENDBRANCH  34  35
ENDBRANCH  31  34
ENDBRANCH  24  25
ENDBRANCH  17  18
ENDBRANCH  16  17
ENDBRANCH   6  16
TORSDOF 9
ENDMDL
MODEL      163
REMARK 921   NORMALIZED FREE ENERGY PREDICTED BY IDOCK:   -5.23 KCAL/MOL
REMARK 922        TOTAL FREE ENERGY PREDICTED BY IDOCK:   -9.91 KCAL/MOL
REMARK 923 INTER-LIGAND FREE ENERGY PREDICTED BY IDOCK:   -7.46 KCAL/MOL
REMARK 924 INTRA-LIGAND FREE ENERGY PREDICTED BY IDOCK:   -2.45 KCAL/MOL
REMARK 927      BINDING AFFINITY PREDICTED BY RF-SCORE:    0.00 PKD
ROOT
HETATM    1  O   UNL     1      -9.050   6.515  71.600  1.00  0.00    -0.143 OA 
HETATM    2  C   UNL     1     -10.128   6.818  70.721  1.00  0.00    -0.191 C  
HETATM    3  H   UNL     1      -8.933   5.578  71.705  1.00  0.00     0.000 HD 
HETATM    4  C   UNL     2      -7.772   9.285  62.820  1.00  0.00    -0.118 C  
HETATM    5  C   UNL     1     -10.319   8.353  70.549  1.00  0.00    -0.199 C  
HETATM    6  C   UNL     2      -7.803  10.224  64.016  1.00  0.00    -0.114 C  
HETATM    7  C   UNL     1      -8.983   8.979  70.061  1.00  0.00    -0.175 C  
HETATM    8  N   UNL     1     -11.369   8.528  69.498  1.00  0.00    -0.416 NA 
HETATM    9  C   UNL     1     -10.888   9.068  71.765  1.00  0.00    -0.367 C  
HETATM   10  H   UNL     1     -12.630   9.152  72.651  1.00  0.00     0.000 HD 
HETATM   11  H   UNL     1      -7.739   8.751  68.541  1.00  0.00     0.000 HD 
HETATM   12  H2  UNL     1     -12.237   8.032  69.704  1.00  0.00     0.000 HD 
HETATM   13  O   UNL     1      -8.555   8.368  68.839  1.00  0.00    -0.132 OA 
HETATM   14  O   UNL     1     -12.274   8.706  71.891  1.00  0.00    -0.309 OA 
HETATM   15  H1  UNL     1     -11.494   9.534  69.385  1.00  0.00     0.000 HD 
ENDROOT
BRANCH   6  16
HETATM   16  C   UNL     2      -9.065  10.092  64.870  1.00  0.00    -0.265 C  
BRANCH  16  17
HETATM   17  C   UNL     2     -10.231  10.990  64.448  1.00  0.00    -0.409 C  
BRANCH  17  18
HETATM   18  C   UNL     2     -11.178  11.407  65.598  1.00  0.00    -0.144 C  
HETATM   19  C   UNL     2     -11.136  12.872  66.092  1.00  0.00    -0.286 C  
HETATM   20  C   UNL     2     -12.234  13.238  67.101  1.00  0.00    -0.281 C  
HETATM   21  O   UNL     2     -11.338  13.709  64.947  1.00  0.00    -0.322 OA 
HETATM   22  C   UNL     2      -9.787  13.183  66.677  1.00  0.00    -0.261 C  
HETATM   23  H   UNL     2     -11.311  14.608  65.250  1.00  0.00     0.000 HD 
HETATM   24  C   UNL     2      -9.291  12.768  67.855  1.00  0.00    -0.208 C  
BRANCH  24  25
HETATM   25  C   UNL     2      -7.911  13.088  68.383  1.00  0.00    -0.134 C  
HETATM   26  C   UNL     2      -6.750  12.244  67.807  1.00  0.00    -0.107 C  
HETATM   27  C   UNL     2      -5.536  12.994  68.298  1.00  0.00    -0.081 C  
HETATM   28  O   UNL     2      -6.650  12.243  66.386  1.00  0.00    -0.356 OA 
HETATM   29  H   UNL     2      -5.937  11.725  66.031  1.00  0.00     0.000 HD 
HETATM   30  C   UNL     2      -5.903  14.459  68.066  1.00  0.00    -0.143 C  
HETATM   31  C   UNL     2      -7.446  14.564  68.195  1.00  0.00    -0.126 C  
HETATM   32  O   UNL     2      -5.168  15.240  68.996  1.00  0.00    -0.097 OA 
HETATM   33  H   UNL     2      -5.397  16.151  68.852  1.00  0.00     0.000 HD 
BRANCH  31  34
HETATM   34  C   UNL     2      -7.953  15.509  69.308  1.00  0.00    -0.238 C  
BRANCH  34  35
HETATM   35  C   UNL     2      -9.201  15.021  70.007  1.00  0.00     0.350 C  
HETATM   36  C   UNL     2     -10.396  15.624  70.105  1.00  0.00    -0.268 C  
BRANCH  36  37
HETATM   37  C   UNL     2     -10.803  16.953  69.537  1.00  0.00    -0.144 C  
BRANCH  37  38
HETATM   38  C   UNL     2     -10.957  16.940  68.014  1.00  0.00    -0.271 C  
BRANCH  38  39
HETATM   39  C   UNL     2      -9.919  17.760  67.264  1.00  0.00    -0.324 C  
HETATM   40  C   UNL     2      -9.270  17.142  66.025  1.00  0.00    -0.112 C  
HETATM   41  O   UNL     2      -8.125  17.600  65.752  1.00  0.00    -0.550 OA 
HETATM   42  O   UNL     2      -9.915  16.288  65.334  1.00  0.00    -0.514 OA 
ENDBRANCH  38  39
ENDBRANCH  37  38
ENDBRANCH  36  37
ENDBRANCH  34  35
ENDBRANCH  31  34
ENDBRANCH  24  25
ENDBRANCH  17  18
ENDBRANCH  16  17
ENDBRANCH   6  16
TORSDOF 9
ENDMDL
MODEL      164
REMARK 921   NORMALIZED FREE ENERGY PREDICTED BY IDOCK:   -5.23 KCAL/MOL
REMARK 922        TOTAL FREE ENERGY PREDICTED BY IDOCK:   -9.90 KCAL/MOL
REMARK 923 INTER-LIGAND FREE ENERGY PREDICTED BY IDOCK:   -7.67 KCAL/MOL
REMARK 924 INTRA-LIGAND FREE ENERGY PREDICTED BY IDOCK:   -2.23 KCAL/MOL
REMARK 927      BINDING AFFINITY PREDICTED BY RF-SCORE:    0.00 PKD
ROOT
HETATM    1  O   UNL     1     -13.115  10.413  72.369  1.00  0.00    -0.523 OA 
HETATM    2  C   UNL     1     -13.284  10.429  70.955  1.00  0.00    -0.244 C  
HETATM    3  H   UNL     1     -13.904  10.126  72.815  1.00  0.00     0.000 HD 
HETATM    4  C   UNL     2      -9.615   3.851  66.793  1.00  0.00    -0.222 C  
HETATM    5  C   UNL     1     -11.993  10.899  70.225  1.00  0.00    -0.361 C  
HETATM    6  C   UNL     2      -8.853   5.091  67.236  1.00  0.00    -0.102 C  
HETATM    7  C   UNL     1     -10.808   9.989  70.653  1.00  0.00    -0.297 C  
HETATM    8  N   UNL     1     -12.254  10.726  68.761  1.00  0.00    -0.814 NA 
HETATM    9  C   UNL     1     -11.675  12.379  70.373  1.00  0.00    -0.025 C  
HETATM   10  H   UNL     1     -12.429  14.048  69.686  1.00  0.00     0.000 HD 
HETATM   11  H   UNL     1     -10.373   8.060  70.630  1.00  0.00     0.000 HD 
HETATM   12  H2  UNL     1     -13.097  11.203  68.440  1.00  0.00     0.000 HD 
HETATM   13  O   UNL     1     -11.097   8.616  70.369  1.00  0.00    -0.240 OA 
HETATM   14  O   UNL     1     -12.628  13.123  69.594  1.00  0.00    -0.022 OA 
HETATM   15  H1  UNL     1     -11.408  11.033  68.282  1.00  0.00     0.000 HD 
ENDROOT
BRANCH   6  16
HETATM   16  C   UNL     2      -9.583   6.402  66.935  1.00  0.00    -0.179 C  
BRANCH  16  17
HETATM   17  C   UNL     2      -9.156   7.594  67.796  1.00  0.00    -0.131 C  
BRANCH  17  18
HETATM   18  C   UNL     2      -7.627   7.779  67.937  1.00  0.00    -0.116 C  
HETATM   19  C   UNL     2      -7.084   8.478  69.205  1.00  0.00    -0.064 C  
HETATM   20  C   UNL     2      -5.555   8.450  69.344  1.00  0.00    -0.031 C  
HETATM   21  O   UNL     2      -7.609   7.771  70.334  1.00  0.00    -0.083 OA 
HETATM   22  C   UNL     2      -7.571   9.898  69.263  1.00  0.00    -0.101 C  
HETATM   23  H   UNL     2      -7.276   8.201  71.112  1.00  0.00     0.000 HD 
HETATM   24  C   UNL     2      -7.162  10.935  68.512  1.00  0.00    -0.090 C  
BRANCH  24  25
HETATM   25  C   UNL     2      -7.709  12.342  68.592  1.00  0.00    -0.067 C  
HETATM   26  C   UNL     2      -6.776  13.400  69.225  1.00  0.00    -0.072 C  
HETATM   27  C   UNL     2      -7.480  14.691  68.884  1.00  0.00    -0.134 C  
HETATM   28  O   UNL     2      -5.485  13.501  68.631  1.00  0.00    -0.076 OA 
HETATM   29  H   UNL     2      -4.911  14.151  69.019  1.00  0.00     0.000 HD 
HETATM   30  C   UNL     2      -7.908  14.492  67.431  1.00  0.00    -0.199 C  
HETATM   31  C   UNL     2      -8.141  12.971  67.232  1.00  0.00    -0.164 C  
HETATM   32  O   UNL     2      -9.044  15.310  67.200  1.00  0.00    -0.192 OA 
HETATM   33  H   UNL     2      -9.310  15.187  66.296  1.00  0.00     0.000 HD 
BRANCH  31  34
HETATM   34  C   UNL     2      -9.572  12.574  66.805  1.00  0.00    -0.231 C  
BRANCH  34  35
HETATM   35  C   UNL     2      -9.752  11.092  66.562  1.00  0.00    -0.228 C  
HETATM   36  C   UNL     2      -9.475  10.386  65.455  1.00  0.00    -0.267 C  
BRANCH  36  37
HETATM   37  C   UNL     2      -8.907  10.893  64.160  1.00  0.00    -0.055 C  
BRANCH  37  38
HETATM   38  C   UNL     2      -9.871  11.795  63.388  1.00  0.00    -0.407 C  
BRANCH  38  39
HETATM   39  C   UNL     2     -11.326  11.352  63.429  1.00  0.00    -0.190 C  
HETATM   40  C   UNL     2     -12.395  12.412  63.695  1.00  0.00    -0.548 C  
HETATM   41  O   UNL     2     -13.460  11.963  64.204  1.00  0.00    -0.591 OA 
HETATM   42  O   UNL     2     -12.188  13.620  63.346  1.00  0.00    -0.607 OA 
ENDBRANCH  38  39
ENDBRANCH  37  38
ENDBRANCH  36  37
ENDBRANCH  34  35
ENDBRANCH  31  34
ENDBRANCH  24  25
ENDBRANCH  17  18
ENDBRANCH  16  17
ENDBRANCH   6  16
TORSDOF 9
ENDMDL
MODEL      165
REMARK 921   NORMALIZED FREE ENERGY PREDICTED BY IDOCK:   -5.23 KCAL/MOL
REMARK 922        TOTAL FREE ENERGY PREDICTED BY IDOCK:   -9.90 KCAL/MOL
REMARK 923 INTER-LIGAND FREE ENERGY PREDICTED BY IDOCK:   -8.89 KCAL/MOL
REMARK 924 INTRA-LIGAND FREE ENERGY PREDICTED BY IDOCK:   -1.01 KCAL/MOL
REMARK 927      BINDING AFFINITY PREDICTED BY RF-SCORE:    0.00 PKD
ROOT
HETATM    1  O   UNL     1     -14.331   6.544  72.334  1.00  0.00    -0.701 OA 
HETATM    2  C   UNL     1     -13.580   7.058  71.240  1.00  0.00    -0.145 C  
HETATM    3  H   UNL     1     -15.017   5.954  72.045  1.00  0.00     0.000 HD 
HETATM    4  C   UNL     2      -5.842   3.453  70.148  1.00  0.00    -0.018 C  
HETATM    5  C   UNL     1     -12.456   8.025  71.714  1.00  0.00    -0.324 C  
HETATM    6  C   UNL     2      -6.115   4.562  71.153  1.00  0.00    -0.018 C  
HETATM    7  C   UNL     1     -11.550   7.286  72.738  1.00  0.00    -0.171 C  
HETATM    8  N   UNL     1     -11.658   8.368  70.495  1.00  0.00    -0.439 NA 
HETATM    9  C   UNL     1     -12.944   9.370  72.230  1.00  0.00    -0.400 C  
HETATM   10  H   UNL     1     -13.714  10.980  71.429  1.00  0.00     0.000 HD 
HETATM   11  H   UNL     1     -10.450   5.644  72.789  1.00  0.00     0.000 HD 
HETATM   12  H2  UNL     1     -12.222   8.745  69.734  1.00  0.00     0.000 HD 
HETATM   13  O   UNL     1     -11.004   6.095  72.164  1.00  0.00    -0.237 OA 
HETATM   14  O   UNL     1     -13.409  10.139  71.107  1.00  0.00    -0.376 OA 
HETATM   15  H1  UNL     1     -10.922   9.001  70.806  1.00  0.00     0.000 HD 
ENDROOT
BRANCH   6  16
HETATM   16  C   UNL     2      -6.959   5.708  70.591  1.00  0.00    -0.057 C  
BRANCH  16  17
HETATM   17  C   UNL     2      -7.383   5.544  69.128  1.00  0.00    -0.077 C  
BRANCH  17  18
HETATM   18  C   UNL     2      -8.863   5.886  68.839  1.00  0.00    -0.115 C  
HETATM   19  C   UNL     2      -9.199   6.675  67.553  1.00  0.00    -0.114 C  
HETATM   20  C   UNL     2     -10.700   6.806  67.256  1.00  0.00    -0.423 C  
HETATM   21  O   UNL     2      -8.627   5.954  66.455  1.00  0.00    -0.120 OA 
HETATM   22  C   UNL     2      -8.573   8.040  67.603  1.00  0.00    -0.130 C  
HETATM   23  H   UNL     2      -8.833   6.439  65.665  1.00  0.00     0.000 HD 
HETATM   24  C   UNL     2      -8.957   9.089  68.350  1.00  0.00    -0.133 C  
BRANCH  24  25
HETATM   25  C   UNL     2      -8.270  10.436  68.385  1.00  0.00    -0.114 C  
HETATM   26  C   UNL     2      -7.023  10.540  69.295  1.00  0.00    -0.086 C  
HETATM   27  C   UNL     2      -6.434  11.865  68.877  1.00  0.00    -0.082 C  
HETATM   28  O   UNL     2      -6.008   9.573  69.043  1.00  0.00    -0.041 OA 
HETATM   29  H   UNL     2      -5.242   9.637  69.602  1.00  0.00     0.000 HD 
HETATM   30  C   UNL     2      -6.546  11.842  67.353  1.00  0.00    -0.118 C  
HETATM   31  C   UNL     2      -7.787  10.978  67.005  1.00  0.00    -0.137 C  
HETATM   32  O   UNL     2      -6.605  13.187  66.905  1.00  0.00    -0.426 OA 
HETATM   33  H   UNL     2      -6.675  13.172  65.958  1.00  0.00     0.000 HD 
BRANCH  31  34
HETATM   34  C   UNL     2      -8.897  11.706  66.214  1.00  0.00    -0.164 C  
BRANCH  34  35
HETATM   35  C   UNL     2     -10.294  11.218  66.525  1.00  0.00    -0.284 C  
HETATM   36  C   UNL     2     -11.330  11.908  67.027  1.00  0.00    -0.392 C  
BRANCH  36  37
HETATM   37  C   UNL     2     -11.366  13.360  67.408  1.00  0.00    -0.338 C  
BRANCH  37  38
HETATM   38  C   UNL     2     -10.368  14.218  66.628  1.00  0.00    -0.279 C  
BRANCH  38  39
HETATM   39  C   UNL     2     -10.818  14.598  65.226  1.00  0.00    -0.387 C  
HETATM   40  C   UNL     2     -10.790  16.076  64.836  1.00  0.00    -0.372 C  
HETATM   41  O   UNL     2     -11.601  16.390  63.920  1.00  0.00    -1.100 OA 
HETATM   42  O   UNL     2      -9.948  16.859  65.385  1.00  0.00    -0.568 OA 
ENDBRANCH  38  39
ENDBRANCH  37  38
ENDBRANCH  36  37
ENDBRANCH  34  35
ENDBRANCH  31  34
ENDBRANCH  24  25
ENDBRANCH  17  18
ENDBRANCH  16  17
ENDBRANCH   6  16
TORSDOF 9
ENDMDL
MODEL      166
REMARK 921   NORMALIZED FREE ENERGY PREDICTED BY IDOCK:   -5.21 KCAL/MOL
REMARK 922        TOTAL FREE ENERGY PREDICTED BY IDOCK:   -9.88 KCAL/MOL
REMARK 923 INTER-LIGAND FREE ENERGY PREDICTED BY IDOCK:   -7.04 KCAL/MOL
REMARK 924 INTRA-LIGAND FREE ENERGY PREDICTED BY IDOCK:   -2.84 KCAL/MOL
REMARK 927      BINDING AFFINITY PREDICTED BY RF-SCORE:    0.00 PKD
ROOT
HETATM    1  O   UNL     1      -5.299  10.316  68.584  1.00  0.00    -0.039 OA 
HETATM    2  C   UNL     1      -6.391  10.763  67.787  1.00  0.00    -0.058 C  
HETATM    3  H   UNL     1      -4.597  10.955  68.609  1.00  0.00     0.000 HD 
HETATM    4  C   UNL     2     -13.196  13.598  72.225  1.00  0.00    -0.565 C  
HETATM    5  C   UNL     1      -7.543   9.716  67.746  1.00  0.00    -0.087 C  
HETATM    6  C   UNL     2     -12.929  12.126  71.954  1.00  0.00    -0.419 C  
HETATM    7  C   UNL     1      -7.986   9.393  69.200  1.00  0.00    -0.091 C  
HETATM    8  N   UNL     1      -8.672  10.367  67.011  1.00  0.00    -0.130 NA 
HETATM    9  C   UNL     1      -7.244   8.465  66.935  1.00  0.00    -0.079 C  
HETATM   10  H   UNL     1      -7.060   8.040  65.035  1.00  0.00     0.000 HD 
HETATM   11  H   UNL     1      -8.660  10.387  70.771  1.00  0.00     0.000 HD 
HETATM   12  H2  UNL     1      -8.409  10.716  66.089  1.00  0.00     0.000 HD 
HETATM   13  O   UNL     1      -8.389  10.584  69.883  1.00  0.00    -0.027 OA 
HETATM   14  O   UNL     1      -7.247   8.821  65.542  1.00  0.00    -0.082 OA 
HETATM   15  H1  UNL     1      -9.427   9.681  66.985  1.00  0.00     0.000 HD 
ENDROOT
BRANCH   6  16
HETATM   16  C   UNL     2     -12.516  11.831  70.511  1.00  0.00    -0.317 C  
BRANCH  16  17
HETATM   17  C   UNL     2     -11.745  10.524  70.311  1.00  0.00    -0.420 C  
BRANCH  17  18
HETATM   18  C   UNL     2     -12.054   9.421  71.350  1.00  0.00    -0.442 C  
HETATM   19  C   UNL     2     -10.929   8.431  71.730  1.00  0.00    -0.291 C  
HETATM   20  C   UNL     2     -11.271   7.494  72.898  1.00  0.00    -0.396 C  
HETATM   21  O   UNL     2      -9.804   9.212  72.149  1.00  0.00    -0.217 OA 
HETATM   22  C   UNL     2     -10.526   7.619  70.532  1.00  0.00    -0.221 C  
HETATM   23  H   UNL     2      -9.113   8.604  72.382  1.00  0.00     0.000 HD 
HETATM   24  C   UNL     2     -11.213   6.620  69.952  1.00  0.00    -0.421 C  
BRANCH  24  25
HETATM   25  C   UNL     2     -10.772   5.854  68.725  1.00  0.00    -0.354 C  
HETATM   26  C   UNL     2     -11.154   6.476  67.362  1.00  0.00    -0.327 C  
HETATM   27  C   UNL     2     -10.335   5.654  66.396  1.00  0.00    -0.241 C  
HETATM   28  O   UNL     2     -10.732   7.823  67.171  1.00  0.00    -0.408 OA 
HETATM   29  H   UNL     2     -10.967   8.205  66.334  1.00  0.00     0.000 HD 
HETATM   30  C   UNL     2      -8.976   5.542  67.085  1.00  0.00    -0.112 C  
HETATM   31  C   UNL     2      -9.239   5.591  68.614  1.00  0.00    -0.140 C  
HETATM   32  O   UNL     2      -8.353   4.355  66.620  1.00  0.00    -0.105 OA 
HETATM   33  H   UNL     2      -7.508   4.286  67.048  1.00  0.00     0.000 HD 
BRANCH  31  34
HETATM   34  C   UNL     2      -8.776   4.345  69.403  1.00  0.00    -0.121 C  
BRANCH  34  35
HETATM   35  C   UNL     2      -9.732   3.919  70.493  1.00  0.00    -0.247 C  
HETATM   36  C   UNL     2      -9.460   3.282  71.643  1.00  0.00    -0.220 C  
BRANCH  36  37
HETATM   37  C   UNL     2      -8.120   2.827  72.146  1.00  0.00    -0.055 C  
BRANCH  37  38
HETATM   38  C   UNL     2      -7.156   3.981  72.428  1.00  0.00    -0.056 C  
BRANCH  38  39
HETATM   39  C   UNL     2      -7.795   5.197  73.081  1.00  0.00    -0.101 C  
HETATM   40  C   UNL     2      -7.477   6.576  72.503  1.00  0.00    -0.090 C  
HETATM   41  O   UNL     2      -7.596   7.527  73.325  1.00  0.00    -0.088 OA 
HETATM   42  O   UNL     2      -7.186   6.692  71.268  1.00  0.00    -0.075 OA 
ENDBRANCH  38  39
ENDBRANCH  37  38
ENDBRANCH  36  37
ENDBRANCH  34  35
ENDBRANCH  31  34
ENDBRANCH  24  25
ENDBRANCH  17  18
ENDBRANCH  16  17
ENDBRANCH   6  16
TORSDOF 9
ENDMDL
MODEL      167
REMARK 921   NORMALIZED FREE ENERGY PREDICTED BY IDOCK:   -5.21 KCAL/MOL
REMARK 922        TOTAL FREE ENERGY PREDICTED BY IDOCK:   -9.88 KCAL/MOL
REMARK 923 INTER-LIGAND FREE ENERGY PREDICTED BY IDOCK:   -8.30 KCAL/MOL
REMARK 924 INTRA-LIGAND FREE ENERGY PREDICTED BY IDOCK:   -1.58 KCAL/MOL
REMARK 927      BINDING AFFINITY PREDICTED BY RF-SCORE:    0.00 PKD
ROOT
HETATM    1  O   UNL     1     -10.257   5.857  72.469  1.00  0.00    -0.181 OA 
HETATM    2  C   UNL     1     -10.619   6.415  71.210  1.00  0.00    -0.230 C  
HETATM    3  H   UNL     1      -9.841   5.009  72.372  1.00  0.00     0.000 HD 
HETATM    4  C   UNL     2      -5.421  12.667  68.391  1.00  0.00    -0.058 C  
HETATM    5  C   UNL     1     -11.302   7.805  71.370  1.00  0.00    -0.251 C  
HETATM    6  C   UNL     2      -6.538  12.898  69.398  1.00  0.00    -0.062 C  
HETATM    7  C   UNL     1     -10.356   8.746  72.167  1.00  0.00    -0.308 C  
HETATM    8  N   UNL     1     -11.490   8.340  69.985  1.00  0.00    -0.457 NA 
HETATM    9  C   UNL     1     -12.708   7.766  71.947  1.00  0.00    -0.302 C  
HETATM   10  H   UNL     1     -14.468   7.199  71.309  1.00  0.00     0.000 HD 
HETATM   11  H   UNL     1      -8.511   9.436  72.000  1.00  0.00     0.000 HD 
HETATM   12  H2  UNL     1     -12.001   7.705  69.371  1.00  0.00     0.000 HD 
HETATM   13  O   UNL     1      -9.088   8.861  71.514  1.00  0.00    -0.233 OA 
HETATM   14  O   UNL     1     -13.589   7.224  70.948  1.00  0.00    -0.155 OA 
HETATM   15  H1  UNL     1     -11.937   9.251  70.090  1.00  0.00     0.000 HD 
ENDROOT
BRANCH   6  16
HETATM   16  C   UNL     2      -7.855  12.216  69.022  1.00  0.00     0.167 C  
BRANCH  16  17
HETATM   17  C   UNL     2      -7.712  10.958  68.161  1.00  0.00    -0.103 C  
BRANCH  17  18
HETATM   18  C   UNL     2      -9.004  10.122  68.013  1.00  0.00    -0.125 C  
HETATM   19  C   UNL     2      -9.381   9.591  66.610  1.00  0.00    -0.161 C  
HETATM   20  C   UNL     2     -10.572   8.623  66.592  1.00  0.00    -0.131 C  
HETATM   21  O   UNL     2      -8.252   8.860  66.119  1.00  0.00    -0.110 OA 
HETATM   22  C   UNL     2      -9.648  10.738  65.676  1.00  0.00    -0.263 C  
HETATM   23  H   UNL     2      -8.483   8.534  65.258  1.00  0.00     0.000 HD 
HETATM   24  C   UNL     2     -10.720  11.548  65.661  1.00  0.00    -0.323 C  
BRANCH  24  25
HETATM   25  C   UNL     2     -10.924  12.710  64.714  1.00  0.00    -0.334 C  
HETATM   26  C   UNL     2     -11.851  12.447  63.505  1.00  0.00    -0.521 C  
HETATM   27  C   UNL     2     -12.067  13.838  62.961  1.00  0.00     0.547 C  
HETATM   28  O   UNL     2     -13.148  11.957  63.831  1.00  0.00    -0.628 OA 
HETATM   29  H   UNL     2     -13.718  11.795  63.088  1.00  0.00     0.000 HD 
HETATM   30  C   UNL     2     -12.295  14.681  64.215  1.00  0.00    -0.349 C  
HETATM   31  C   UNL     2     -11.493  14.009  65.362  1.00  0.00    -0.315 C  
HETATM   32  O   UNL     2     -11.912  16.013  63.914  1.00  0.00    -1.267 OA 
HETATM   33  H   UNL     2     -12.053  16.537  64.694  1.00  0.00     0.000 HD 
BRANCH  31  34
HETATM   34  C   UNL     2     -10.404  14.893  66.011  1.00  0.00    -0.313 C  
BRANCH  34  35
HETATM   35  C   UNL     2     -10.831  15.539  67.310  1.00  0.00    -0.313 C  
HETATM   36  C   UNL     2     -10.403  16.688  67.854  1.00  0.00    -0.310 C  
BRANCH  36  37
HETATM   37  C   UNL     2      -9.379  17.638  67.304  1.00  0.00    -0.249 C  
BRANCH  37  38
HETATM   38  C   UNL     2      -8.195  17.867  68.246  1.00  0.00    -0.292 C  
BRANCH  38  39
HETATM   39  C   UNL     2      -6.867  17.324  67.740  1.00  0.00    -0.172 C  
HETATM   40  C   UNL     2      -5.975  18.256  66.919  1.00  0.00    -0.149 C  
HETATM   41  O   UNL     2      -5.184  17.661  66.133  1.00  0.00    -0.167 OA 
HETATM   42  O   UNL     2      -6.029  19.514  67.110  1.00  0.00    -0.178 OA 
ENDBRANCH  38  39
ENDBRANCH  37  38
ENDBRANCH  36  37
ENDBRANCH  34  35
ENDBRANCH  31  34
ENDBRANCH  24  25
ENDBRANCH  17  18
ENDBRANCH  16  17
ENDBRANCH   6  16
TORSDOF 9
ENDMDL
MODEL      168
REMARK 921   NORMALIZED FREE ENERGY PREDICTED BY IDOCK:   -5.20 KCAL/MOL
REMARK 922        TOTAL FREE ENERGY PREDICTED BY IDOCK:   -9.86 KCAL/MOL
REMARK 923 INTER-LIGAND FREE ENERGY PREDICTED BY IDOCK:   -8.20 KCAL/MOL
REMARK 924 INTRA-LIGAND FREE ENERGY PREDICTED BY IDOCK:   -1.66 KCAL/MOL
REMARK 927      BINDING AFFINITY PREDICTED BY RF-SCORE:    0.00 PKD
ROOT
HETATM    1  O   UNL     1      -6.732  19.856  68.839  1.00  0.00    -0.306 OA 
HETATM    2  C   UNL     1      -7.537  19.142  67.906  1.00  0.00    -0.269 C  
HETATM    3  H   UNL     1      -7.261  20.334  69.467  1.00  0.00     0.000 HD 
HETATM    4  C   UNL     2      -8.092  10.674  69.335  1.00  0.00    -0.102 C  
HETATM    5  C   UNL     1      -6.670  18.358  66.878  1.00  0.00    -0.187 C  
HETATM    6  C   UNL     2      -6.922  11.326  68.614  1.00  0.00    -0.084 C  
HETATM    7  C   UNL     1      -5.703  17.414  67.645  1.00  0.00    -0.132 C  
HETATM    8  N   UNL     1      -7.624  17.543  66.063  1.00  0.00    -0.482 NA 
HETATM    9  C   UNL     1      -5.951  19.222  65.854  1.00  0.00    -0.179 C  
HETATM   10  H   UNL     1      -6.482  20.281  64.297  1.00  0.00     0.000 HD 
HETATM   11  H   UNL     1      -5.842  15.948  68.965  1.00  0.00     0.000 HD 
HETATM   12  H2  UNL     1      -8.364  18.096  65.630  1.00  0.00     0.000 HD 
HETATM   13  O   UNL     1      -6.433  16.525  68.497  1.00  0.00    -0.130 OA 
HETATM   14  O   UNL     1      -6.931  19.740  64.937  1.00  0.00    -0.358 OA 
HETATM   15  H1  UNL     1      -7.056  17.028  65.390  1.00  0.00     0.000 HD 
ENDROOT
BRANCH   6  16
HETATM   16  C   UNL     2      -7.342  12.365  67.573  1.00  0.00    -0.146 C  
BRANCH  16  17
HETATM   17  C   UNL     2      -8.485  13.289  68.003  1.00  0.00    -0.170 C  
BRANCH  17  18
HETATM   18  C   UNL     2      -9.631  13.426  66.973  1.00  0.00    -0.244 C  
HETATM   19  C   UNL     2     -10.825  12.448  67.065  1.00  0.00    -0.246 C  
HETATM   20  C   UNL     2     -11.994  12.776  66.125  1.00  0.00    -0.476 C  
HETATM   21  O   UNL     2     -11.337  12.532  68.400  1.00  0.00    -0.247 OA 
HETATM   22  C   UNL     2     -10.361  11.039  66.822  1.00  0.00    -0.284 C  
HETATM   23  H   UNL     2     -12.070  11.931  68.456  1.00  0.00     0.000 HD 
HETATM   24  C   UNL     2      -9.996  10.489  65.652  1.00  0.00    -0.332 C  
BRANCH  24  25
HETATM   25  C   UNL     2      -9.506   9.070  65.468  1.00  0.00    -0.220 C  
HETATM   26  C   UNL     2      -8.376   8.870  64.432  1.00  0.00    -0.168 C  
HETATM   27  C   UNL     2      -7.938   7.452  64.709  1.00  0.00    -0.127 C  
HETATM   28  O   UNL     2      -7.218   9.674  64.635  1.00  0.00    -0.111 OA 
HETATM   29  H   UNL     2      -6.524   9.552  63.999  1.00  0.00     0.000 HD 
HETATM   30  C   UNL     2      -7.904   7.380  66.235  1.00  0.00    -0.106 C  
HETATM   31  C   UNL     2      -8.977   8.372  66.758  1.00  0.00    -0.172 C  
HETATM   32  O   UNL     2      -8.105   6.025  66.606  1.00  0.00    -0.104 OA 
HETATM   33  H   UNL     2      -8.085   5.980  67.555  1.00  0.00     0.000 HD 
BRANCH  31  34
HETATM   34  C   UNL     2     -10.099   7.740  67.612  1.00  0.00    -0.254 C  
BRANCH  34  35
HETATM   35  C   UNL     2      -9.634   7.234  68.959  1.00  0.00    -0.147 C  
HETATM   36  C   UNL     2     -10.374   6.815  69.997  1.00  0.00    -0.225 C  
BRANCH  36  37
HETATM   37  C   UNL     2     -11.871   6.739  70.086  1.00  0.00    -0.321 C  
BRANCH  37  38
HETATM   38  C   UNL     2     -12.423   7.203  71.435  1.00  0.00    -0.427 C  
BRANCH  38  39
HETATM   39  C   UNL     2     -13.239   8.485  71.379  1.00  0.00    -0.246 C  
HETATM   40  C   UNL     2     -12.546   9.798  71.746  1.00  0.00    -0.416 C  
HETATM   41  O   UNL     2     -13.324  10.701  72.163  1.00  0.00    -0.444 OA 
HETATM   42  O   UNL     2     -11.292   9.924  71.558  1.00  0.00    -0.343 OA 
ENDBRANCH  38  39
ENDBRANCH  37  38
ENDBRANCH  36  37
ENDBRANCH  34  35
ENDBRANCH  31  34
ENDBRANCH  24  25
ENDBRANCH  17  18
ENDBRANCH  16  17
ENDBRANCH   6  16
TORSDOF 9
ENDMDL
MODEL      169
REMARK 921   NORMALIZED FREE ENERGY PREDICTED BY IDOCK:   -5.16 KCAL/MOL
REMARK 922        TOTAL FREE ENERGY PREDICTED BY IDOCK:   -9.81 KCAL/MOL
REMARK 923 INTER-LIGAND FREE ENERGY PREDICTED BY IDOCK:   -6.79 KCAL/MOL
REMARK 924 INTRA-LIGAND FREE ENERGY PREDICTED BY IDOCK:   -3.02 KCAL/MOL
REMARK 927      BINDING AFFINITY PREDICTED BY RF-SCORE:    0.00 PKD
ROOT
HETATM    1  O   UNL     1      -8.781   7.272  64.597  1.00  0.00    -0.347 OA 
HETATM    2  C   UNL     1      -7.908   8.339  64.954  1.00  0.00    -0.126 C  
HETATM    3  H   UNL     1      -8.721   6.548  65.210  1.00  0.00     0.000 HD 
HETATM    4  C   UNL     2     -11.761  15.093  68.641  1.00  0.00    -0.364 C  
HETATM    5  C   UNL     1      -8.007   9.525  63.951  1.00  0.00    -0.141 C  
HETATM    6  C   UNL     2     -11.718  14.872  67.137  1.00  0.00    -0.292 C  
HETATM    7  C   UNL     1      -9.485   9.995  63.864  1.00  0.00    -0.220 C  
HETATM    8  N   UNL     1      -7.164  10.624  64.519  1.00  0.00    -0.354 NA 
HETATM    9  C   UNL     1      -7.397   9.260  62.583  1.00  0.00    -0.099 C  
HETATM   10  H   UNL     1      -5.585   9.069  61.871  1.00  0.00     0.000 HD 
HETATM   11  H   UNL     1     -10.878  10.652  65.104  1.00  0.00     0.000 HD 
HETATM   12  H2  UNL     1      -6.204  10.339  64.717  1.00  0.00     0.000 HD 
HETATM   13  O   UNL     1      -9.975  10.365  65.157  1.00  0.00    -0.285 OA 
HETATM   14  O   UNL     1      -5.967   9.235  62.725  1.00  0.00    -0.092 OA 
HETATM   15  H1  UNL     1      -7.228  11.401  63.862  1.00  0.00     0.000 HD 
ENDROOT
BRANCH   6  16
HETATM   16  C   UNL     2     -10.342  14.454  66.615  1.00  0.00    -0.275 C  
BRANCH  16  17
HETATM   17  C   UNL     2      -9.841  13.099  67.122  1.00  0.00    -0.235 C  
BRANCH  17  18
HETATM   18  C   UNL     2      -8.761  13.177  68.227  1.00  0.00    -0.165 C  
HETATM   19  C   UNL     2      -7.545  12.227  68.137  1.00  0.00    -0.127 C  
HETATM   20  C   UNL     2      -6.441  12.503  69.167  1.00  0.00    -0.099 C  
HETATM   21  O   UNL     2      -6.956  12.418  66.846  1.00  0.00    -0.363 OA 
HETATM   22  C   UNL     2      -7.995  10.797  68.248  1.00  0.00    -0.118 C  
HETATM   23  H   UNL     2      -6.209  11.834  66.790  1.00  0.00     0.000 HD 
HETATM   24  C   UNL     2      -8.417  10.157  69.351  1.00  0.00    -0.179 C  
BRANCH  24  25
HETATM   25  C   UNL     2      -8.889   8.720  69.401  1.00  0.00    -0.143 C  
HETATM   26  C   UNL     2     -10.377   8.481  69.056  1.00  0.00    -0.216 C  
HETATM   27  C   UNL     2     -10.433   6.980  68.912  1.00  0.00    -0.217 C  
HETATM   28  O   UNL     2     -10.799   9.003  67.800  1.00  0.00    -0.451 OA 
HETATM   29  H   UNL     2     -11.714   8.856  67.588  1.00  0.00     0.000 HD 
HETATM   30  C   UNL     2      -9.169   6.650  68.118  1.00  0.00    -0.117 C  
HETATM   31  C   UNL     2      -8.114   7.729  68.480  1.00  0.00    -0.123 C  
HETATM   32  O   UNL     2      -8.799   5.317  68.433  1.00  0.00    -0.101 OA 
HETATM   33  H   UNL     2      -8.013   5.112  67.940  1.00  0.00     0.000 HD 
BRANCH  31  34
HETATM   34  C   UNL     2      -6.814   7.192  69.119  1.00  0.00    -0.061 C  
BRANCH  34  35
HETATM   35  C   UNL     2      -6.650   7.558  70.577  1.00  0.00    -0.042 C  
HETATM   36  C   UNL     2      -6.958   6.832  71.663  1.00  0.00    -0.070 C  
BRANCH  36  37
HETATM   37  C   UNL     2      -7.550   5.453  71.707  1.00  0.00    -0.098 C  
BRANCH  37  38
HETATM   38  C   UNL     2      -9.066   5.450  71.915  1.00  0.00    -0.151 C  
BRANCH  38  39
HETATM   39  C   UNL     2      -9.616   6.698  72.589  1.00  0.00    -0.156 C  
HETATM   40  C   UNL     2     -11.130   6.911  72.586  1.00  0.00    -0.270 C  
HETATM   41  O   UNL     2     -11.488   8.118  72.684  1.00  0.00    -0.392 OA 
HETATM   42  O   UNL     2     -11.910   5.903  72.551  1.00  0.00    -0.295 OA 
ENDBRANCH  38  39
ENDBRANCH  37  38
ENDBRANCH  36  37
ENDBRANCH  34  35
ENDBRANCH  31  34
ENDBRANCH  24  25
ENDBRANCH  17  18
ENDBRANCH  16  17
ENDBRANCH   6  16
TORSDOF 9
ENDMDL
MODEL      170
REMARK 921   NORMALIZED FREE ENERGY PREDICTED BY IDOCK:   -5.15 KCAL/MOL
REMARK 922        TOTAL FREE ENERGY PREDICTED BY IDOCK:   -9.79 KCAL/MOL
REMARK 923 INTER-LIGAND FREE ENERGY PREDICTED BY IDOCK:   -6.61 KCAL/MOL
REMARK 924 INTRA-LIGAND FREE ENERGY PREDICTED BY IDOCK:   -3.18 KCAL/MOL
REMARK 927      BINDING AFFINITY PREDICTED BY RF-SCORE:    0.00 PKD
ROOT
HETATM    1  O   UNL     1     -14.193   8.857  73.279  1.00  0.00    -1.197 OA 
HETATM    2  C   UNL     1     -12.825   9.020  72.918  1.00  0.00     0.170 C  
HETATM    3  H   UNL     1     -14.364   9.169  74.160  1.00  0.00     0.000 HD 
HETATM    4  C   UNL     2     -11.235  15.625  67.637  1.00  0.00    -0.274 C  
HETATM    5  C   UNL     1     -12.545   8.509  71.475  1.00  0.00    -0.316 C  
HETATM    6  C   UNL     2     -11.738  14.272  67.157  1.00  0.00    -0.430 C  
HETATM    7  C   UNL     1     -13.493   9.239  70.484  1.00  0.00     0.566 C  
HETATM    8  N   UNL     1     -11.125   8.873  71.172  1.00  0.00    -0.263 NA 
HETATM    9  C   UNL     1     -12.582   6.997  71.312  1.00  0.00    -0.373 C  
HETATM   10  H   UNL     1     -11.440   5.502  71.849  1.00  0.00     0.000 HD 
HETATM   11  H   UNL     1     -13.904  11.104  69.971  1.00  0.00     0.000 HD 
HETATM   12  H2  UNL     1     -10.459   8.524  71.862  1.00  0.00     0.000 HD 
HETATM   13  O   UNL     1     -13.325  10.657  70.576  1.00  0.00    -0.152 OA 
HETATM   14  O   UNL     1     -11.417   6.447  71.951  1.00  0.00    -0.275 OA 
HETATM   15  H1  UNL     1     -10.941   8.538  70.226  1.00  0.00     0.000 HD 
ENDROOT
BRANCH   6  16
HETATM   16  C   UNL     2     -11.012  13.085  67.794  1.00  0.00    -0.273 C  
BRANCH  16  17
HETATM   17  C   UNL     2     -10.890  11.846  66.903  1.00  0.00    -0.305 C  
BRANCH  17  18
HETATM   18  C   UNL     2      -9.661  11.839  65.964  1.00  0.00    -0.248 C  
HETATM   19  C   UNL     2      -9.064  10.477  65.543  1.00  0.00    -0.186 C  
HETATM   20  C   UNL     2      -7.969  10.564  64.470  1.00  0.00    -0.023 C  
HETATM   21  O   UNL     2     -10.130   9.705  64.978  1.00  0.00    -0.379 OA 
HETATM   22  C   UNL     2      -8.535   9.748  66.747  1.00  0.00    -0.125 C  
HETATM   23  H   UNL     2      -9.763   8.868  64.720  1.00  0.00     0.000 HD 
HETATM   24  C   UNL     2      -7.421  10.023  67.446  1.00  0.00    -0.091 C  
BRANCH  24  25
HETATM   25  C   UNL     2      -6.950   9.273  68.671  1.00  0.00    -0.062 C  
HETATM   26  C   UNL     2      -7.417   9.836  70.034  1.00  0.00    -0.154 C  
HETATM   27  C   UNL     2      -7.039   8.726  70.984  1.00  0.00    -0.084 C  
HETATM   28  O   UNL     2      -8.825   9.997  70.173  1.00  0.00    -0.342 OA 
HETATM   29  H   UNL     2      -9.112  10.343  71.010  1.00  0.00     0.000 HD 
HETATM   30  C   UNL     2      -7.464   7.460  70.240  1.00  0.00    -0.083 C  
HETATM   31  C   UNL     2      -7.339   7.764  68.724  1.00  0.00    -0.087 C  
HETATM   32  O   UNL     2      -6.653   6.393  70.708  1.00  0.00    -0.049 OA 
HETATM   33  H   UNL     2      -6.917   5.606  70.246  1.00  0.00     0.000 HD 
BRANCH  31  34
HETATM   34  C   UNL     2      -6.360   6.855  67.947  1.00  0.00    -0.042 C  
BRANCH  34  35
HETATM   35  C   UNL     2      -6.981   6.159  66.757  1.00  0.00    -0.071 C  
HETATM   36  C   UNL     2      -7.778   5.080  66.740  1.00  0.00    -0.092 C  
BRANCH  36  37
HETATM   37  C   UNL     2      -8.264   4.279  67.914  1.00  0.00    -0.094 C  
BRANCH  37  38
HETATM   38  C   UNL     2      -9.776   4.373  68.127  1.00  0.00    -0.181 C  
BRANCH  38  39
HETATM   39  C   UNL     2     -10.239   5.629  68.849  1.00  0.00    -0.279 C  
HETATM   40  C   UNL     2     -10.706   6.815  68.005  1.00  0.00    -0.241 C  
HETATM   41  O   UNL     2     -10.596   7.937  68.574  1.00  0.00    -0.187 OA 
HETATM   42  O   UNL     2     -11.216   6.610  66.855  1.00  0.00    -0.391 OA 
ENDBRANCH  38  39
ENDBRANCH  37  38
ENDBRANCH  36  37
ENDBRANCH  34  35
ENDBRANCH  31  34
ENDBRANCH  24  25
ENDBRANCH  17  18
ENDBRANCH  16  17
ENDBRANCH   6  16
TORSDOF 9
ENDMDL
MODEL      171
REMARK 921   NORMALIZED FREE ENERGY PREDICTED BY IDOCK:   -5.15 KCAL/MOL
REMARK 922        TOTAL FREE ENERGY PREDICTED BY IDOCK:   -9.78 KCAL/MOL
REMARK 923 INTER-LIGAND FREE ENERGY PREDICTED BY IDOCK:   -7.34 KCAL/MOL
REMARK 924 INTRA-LIGAND FREE ENERGY PREDICTED BY IDOCK:   -2.44 KCAL/MOL
REMARK 927      BINDING AFFINITY PREDICTED BY RF-SCORE:    0.00 PKD
ROOT
HETATM    1  O   UNL     1      -9.677  17.731  67.971  1.00  0.00    -0.282 OA 
HETATM    2  C   UNL     1      -9.377  16.555  68.716  1.00  0.00    -0.247 C  
HETATM    3  H   UNL     1      -8.928  18.313  67.915  1.00  0.00     0.000 HD 
HETATM    4  C   UNL     2      -8.066   9.496  63.973  1.00  0.00    -0.152 C  
HETATM    5  C   UNL     1     -10.604  15.602  68.807  1.00  0.00    -0.238 C  
HETATM    6  C   UNL     2      -9.448  10.007  64.349  1.00  0.00    -0.349 C  
HETATM    7  C   UNL     1     -11.092  15.264  67.372  1.00  0.00    -0.326 C  
HETATM    8  N   UNL     1     -10.114  14.355  69.476  1.00  0.00    -0.421 NA 
HETATM    9  C   UNL     1     -11.728  16.089  69.708  1.00  0.00    -0.265 C  
HETATM   10  H   UNL     1     -11.992  16.287  71.636  1.00  0.00     0.000 HD 
HETATM   11  H   UNL     1     -10.335  14.475  65.724  1.00  0.00     0.000 HD 
HETATM   12  H2  UNL     1      -9.666  14.526  70.377  1.00  0.00     0.000 HD 
HETATM   13  O   UNL     1     -10.036  14.682  66.602  1.00  0.00    -0.261 OA 
HETATM   14  O   UNL     1     -11.289  15.983  71.073  1.00  0.00    -0.382 OA 
HETATM   15  H1  UNL     1     -10.918  13.730  69.536  1.00  0.00     0.000 HD 
ENDROOT
BRANCH   6  16
HETATM   16  C   UNL     2      -9.573  10.421  65.816  1.00  0.00    -0.269 C  
BRANCH  16  17
HETATM   17  C   UNL     2     -10.756  11.340  66.133  1.00  0.00    -0.307 C  
BRANCH  17  18
HETATM   18  C   UNL     2     -11.467  11.046  67.474  1.00  0.00    -0.266 C  
HETATM   19  C   UNL     2     -10.605  10.628  68.687  1.00  0.00    -0.203 C  
HETATM   20  C   UNL     2     -11.371  10.537  70.015  1.00  0.00    -0.392 C  
HETATM   21  O   UNL     2      -9.604  11.637  68.862  1.00  0.00    -0.378 OA 
HETATM   22  C   UNL     2      -9.918   9.320  68.410  1.00  0.00    -0.196 C  
HETATM   23  H   UNL     2      -9.074  11.380  69.606  1.00  0.00     0.000 HD 
HETATM   24  C   UNL     2     -10.471   8.096  68.378  1.00  0.00    -0.205 C  
BRANCH  24  25
HETATM   25  C   UNL     2      -9.737   6.812  68.063  1.00  0.00    -0.130 C  
HETATM   26  C   UNL     2     -10.604   5.645  67.537  1.00  0.00    -0.221 C  
HETATM   27  C   UNL     2      -9.561   4.665  67.057  1.00  0.00    -0.198 C  
HETATM   28  O   UNL     2     -11.399   5.947  66.395  1.00  0.00    -0.730 OA 
HETATM   29  H   UNL     2     -11.932   5.230  66.071  1.00  0.00     0.000 HD 
HETATM   30  C   UNL     2      -8.548   5.549  66.330  1.00  0.00    -0.121 C  
HETATM   31  C   UNL     2      -8.585   6.939  67.020  1.00  0.00    -0.121 C  
HETATM   32  O   UNL     2      -7.292   4.889  66.373  1.00  0.00    -0.079 OA 
HETATM   33  H   UNL     2      -6.662   5.439  65.922  1.00  0.00     0.000 HD 
BRANCH  31  34
HETATM   34  C   UNL     2      -7.248   7.402  67.641  1.00  0.00    -0.094 C  
BRANCH  34  35
HETATM   35  C   UNL     2      -7.045   6.948  69.069  1.00  0.00    -0.088 C  
HETATM   36  C   UNL     2      -6.921   7.697  70.176  1.00  0.00    -0.051 C  
BRANCH  36  37
HETATM   37  C   UNL     2      -6.955   9.195  70.280  1.00  0.00    -0.059 C  
BRANCH  37  38
HETATM   38  C   UNL     2      -5.587   9.848  70.070  1.00  0.00    -0.042 C  
BRANCH  38  39
HETATM   39  C   UNL     2      -5.279  10.225  68.629  1.00  0.00    -0.038 C  
HETATM   40  C   UNL     2      -6.170  11.265  67.950  1.00  0.00    -0.050 C  
HETATM   41  O   UNL     2      -6.209  11.177  66.691  1.00  0.00    -0.108 OA 
HETATM   42  O   UNL     2      -6.746  12.160  68.652  1.00  0.00    -0.069 OA 
ENDBRANCH  38  39
ENDBRANCH  37  38
ENDBRANCH  36  37
ENDBRANCH  34  35
ENDBRANCH  31  34
ENDBRANCH  24  25
ENDBRANCH  17  18
ENDBRANCH  16  17
ENDBRANCH   6  16
TORSDOF 9
ENDMDL
MODEL      172
REMARK 921   NORMALIZED FREE ENERGY PREDICTED BY IDOCK:   -5.12 KCAL/MOL
REMARK 922        TOTAL FREE ENERGY PREDICTED BY IDOCK:   -9.74 KCAL/MOL
REMARK 923 INTER-LIGAND FREE ENERGY PREDICTED BY IDOCK:   -8.51 KCAL/MOL
REMARK 924 INTRA-LIGAND FREE ENERGY PREDICTED BY IDOCK:   -1.23 KCAL/MOL
REMARK 927      BINDING AFFINITY PREDICTED BY RF-SCORE:    0.00 PKD
ROOT
HETATM    1  O   UNL     1      -5.940  11.825  71.204  1.00  0.00    -0.465 OA 
HETATM    2  C   UNL     1      -5.514  10.511  70.855  1.00  0.00    -0.093 C  
HETATM    3  H   UNL     1      -5.207  12.425  71.274  1.00  0.00     0.000 HD 
HETATM    4  C   UNL     2      -6.852   8.333  62.639  1.00  0.00    -0.090 C  
HETATM    5  C   UNL     1      -6.715   9.528  70.741  1.00  0.00    -0.105 C  
HETATM    6  C   UNL     2      -7.930   8.259  63.710  1.00  0.00    -0.149 C  
HETATM    7  C   UNL     1      -7.738  10.092  69.717  1.00  0.00    -0.168 C  
HETATM    8  N   UNL     1      -6.152   8.239  70.228  1.00  0.00    -0.031 NA 
HETATM    9  C   UNL     1      -7.362   9.149  72.064  1.00  0.00     0.353 C  
HETATM   10  H   UNL     1      -6.863   8.046  73.601  1.00  0.00     0.000 HD 
HETATM   11  H   UNL     1      -7.742  10.651  67.820  1.00  0.00     0.000 HD 
HETATM   12  H2  UNL     1      -5.384   7.878  70.794  1.00  0.00     0.000 HD 
HETATM   13  O   UNL     1      -7.117  10.306  68.446  1.00  0.00    -0.075 OA 
HETATM   14  O   UNL     1      -6.459   8.283  72.774  1.00  0.00    -0.077 OA 
HETATM   15  H1  UNL     1      -6.938   7.594  70.153  1.00  0.00     0.000 HD 
ENDROOT
BRANCH   6  16
HETATM   16  C   UNL     2      -7.451   7.633  65.021  1.00  0.00    -0.090 C  
BRANCH  16  17
HETATM   17  C   UNL     2      -8.524   6.875  65.808  1.00  0.00    -0.150 C  
BRANCH  17  18
HETATM   18  C   UNL     2      -8.817   7.441  67.217  1.00  0.00    -0.124 C  
HETATM   19  C   UNL     2     -10.227   8.007  67.506  1.00  0.00    -0.245 C  
HETATM   20  C   UNL     2     -10.480   8.373  68.975  1.00  0.00    -0.216 C  
HETATM   21  O   UNL     2     -11.169   6.981  67.172  1.00  0.00    -0.590 OA 
HETATM   22  C   UNL     2     -10.495   9.201  66.633  1.00  0.00    -0.237 C  
HETATM   23  H   UNL     2     -12.035   7.328  67.348  1.00  0.00     0.000 HD 
HETATM   24  C   UNL     2      -9.974  10.433  66.751  1.00  0.00    -0.256 C  
BRANCH  24  25
HETATM   25  C   UNL     2     -10.256  11.594  65.824  1.00  0.00    -0.281 C  
HETATM   26  C   UNL     2      -9.893  11.380  64.337  1.00  0.00    -0.261 C  
HETATM   27  C   UNL     2     -10.555  12.563  63.674  1.00  0.00    -0.446 C  
HETATM   28  O   UNL     2     -10.473  10.228  63.731  1.00  0.00    -0.411 OA 
HETATM   29  H   UNL     2     -10.250  10.096  62.817  1.00  0.00     0.000 HD 
HETATM   30  C   UNL     2     -11.920  12.638  64.357  1.00  0.00    -0.400 C  
HETATM   31  C   UNL     2     -11.736  12.083  65.795  1.00  0.00    -0.313 C  
HETATM   32  O   UNL     2     -12.365  13.984  64.284  1.00  0.00    -0.593 OA 
HETATM   33  H   UNL     2     -13.214  14.030  64.709  1.00  0.00     0.000 HD 
BRANCH  31  34
HETATM   34  C   UNL     2     -12.074  13.073  66.932  1.00  0.00    -0.349 C  
BRANCH  34  35
HETATM   35  C   UNL     2     -11.045  13.111  68.039  1.00  0.00    -0.290 C  
HETATM   36  C   UNL     2     -10.664  14.154  68.793  1.00  0.00    -0.265 C  
BRANCH  36  37
HETATM   37  C   UNL     2     -11.172  15.566  68.730  1.00  0.00    -0.316 C  
BRANCH  37  38
HETATM   38  C   UNL     2     -10.079  16.590  68.420  1.00  0.00    -0.255 C  
BRANCH  38  39
HETATM   39  C   UNL     2     -10.530  18.041  68.491  1.00  0.00    -0.291 C  
HETATM   40  C   UNL     2     -10.369  18.909  67.242  1.00  0.00    -0.418 C  
HETATM   41  O   UNL     2     -10.273  20.146  67.475  1.00  0.00    -0.402 OA 
HETATM   42  O   UNL     2     -10.402  18.368  66.089  1.00  0.00    -0.406 OA 
ENDBRANCH  38  39
ENDBRANCH  37  38
ENDBRANCH  36  37
ENDBRANCH  34  35
ENDBRANCH  31  34
ENDBRANCH  24  25
ENDBRANCH  17  18
ENDBRANCH  16  17
ENDBRANCH   6  16
TORSDOF 9
ENDMDL
MODEL      173
REMARK 921   NORMALIZED FREE ENERGY PREDICTED BY IDOCK:   -5.09 KCAL/MOL
REMARK 922        TOTAL FREE ENERGY PREDICTED BY IDOCK:   -9.70 KCAL/MOL
REMARK 923 INTER-LIGAND FREE ENERGY PREDICTED BY IDOCK:   -8.27 KCAL/MOL
REMARK 924 INTRA-LIGAND FREE ENERGY PREDICTED BY IDOCK:   -1.43 KCAL/MOL
REMARK 927      BINDING AFFINITY PREDICTED BY RF-SCORE:    0.00 PKD
ROOT
HETATM    1  O   UNL     1      -7.255   4.511  65.192  1.00  0.00    -0.065 OA 
HETATM    2  C   UNL     1      -8.464   5.258  65.286  1.00  0.00    -0.147 C  
HETATM    3  H   UNL     1      -6.531   5.050  64.894  1.00  0.00     0.000 HD 
HETATM    4  C   UNL     2     -10.757   7.444  73.287  1.00  0.00    -0.441 C  
HETATM    5  C   UNL     1      -9.650   4.376  65.773  1.00  0.00    -0.188 C  
HETATM    6  C   UNL     2     -11.040   6.079  72.679  1.00  0.00    -0.314 C  
HETATM    7  C   UNL     1      -9.271   3.720  67.130  1.00  0.00    -0.182 C  
HETATM    8  N   UNL     1     -10.807   5.305  65.971  1.00  0.00    -0.723 NA 
HETATM    9  C   UNL     1     -10.156   3.364  64.757  1.00  0.00    -0.037 C  
HETATM   10  H   UNL     1     -11.166   3.446  63.084  1.00  0.00     0.000 HD 
HETATM   11  H   UNL     1      -8.702   4.318  68.927  1.00  0.00     0.000 HD 
HETATM   12  H2  UNL     1     -11.028   5.860  65.145  1.00  0.00     0.000 HD 
HETATM   13  O   UNL     1      -8.933   4.718  68.098  1.00  0.00    -0.106 OA 
HETATM   14  O   UNL     1     -10.850   4.078  63.719  1.00  0.00    -0.209 OA 
HETATM   15  H1  UNL     1     -11.585   4.727  66.291  1.00  0.00     0.000 HD 
ENDROOT
BRANCH   6  16
HETATM   16  C   UNL     2     -11.582   6.143  71.250  1.00  0.00    -0.271 C  
BRANCH  16  17
HETATM   17  C   UNL     2     -10.900   7.170  70.342  1.00  0.00    -0.269 C  
BRANCH  17  18
HETATM   18  C   UNL     2      -9.393   7.380  70.617  1.00  0.00    -0.160 C  
HETATM   19  C   UNL     2      -8.833   8.821  70.588  1.00  0.00    -0.182 C  
HETATM   20  C   UNL     2      -7.376   8.950  71.053  1.00  0.00    -0.114 C  
HETATM   21  O   UNL     2      -9.622   9.598  71.497  1.00  0.00    -0.239 OA 
HETATM   22  C   UNL     2      -8.979   9.406  69.212  1.00  0.00    -0.154 C  
HETATM   23  H   UNL     2      -9.279  10.483  71.478  1.00  0.00     0.000 HD 
HETATM   24  C   UNL     2      -8.264   9.104  68.114  1.00  0.00    -0.116 C  
BRANCH  24  25
HETATM   25  C   UNL     2      -8.474   9.703  66.742  1.00  0.00    -0.129 C  
HETATM   26  C   UNL     2      -9.238   8.824  65.725  1.00  0.00    -0.206 C  
HETATM   27  C   UNL     2      -9.524   9.801  64.611  1.00  0.00    -0.295 C  
HETATM   28  O   UNL     2     -10.511   8.360  66.163  1.00  0.00    -0.274 OA 
HETATM   29  H   UNL     2     -10.981   7.819  65.538  1.00  0.00     0.000 HD 
HETATM   30  C   UNL     2      -9.961  11.066  65.348  1.00  0.00    -0.260 C  
HETATM   31  C   UNL     2      -9.227  11.069  66.715  1.00  0.00    -0.174 C  
HETATM   32  O   UNL     2      -9.673  12.174  64.509  1.00  0.00    -0.445 OA 
HETATM   33  H   UNL     2      -9.945  12.961  64.968  1.00  0.00     0.000 HD 
BRANCH  31  34
HETATM   34  C   UNL     2      -8.301  12.280  66.965  1.00  0.00    -0.168 C  
BRANCH  34  35
HETATM   35  C   UNL     2      -8.619  13.046  68.229  1.00  0.00    -0.167 C  
HETATM   36  C   UNL     2      -9.499  14.043  68.404  1.00  0.00    -0.213 C  
BRANCH  36  37
HETATM   37  C   UNL     2     -10.406  14.658  67.377  1.00  0.00    -0.241 C  
BRANCH  37  38
HETATM   38  C   UNL     2     -11.401  15.659  67.969  1.00  0.00    -0.324 C  
BRANCH  38  39
HETATM   39  C   UNL     2     -11.213  15.939  69.452  1.00  0.00    -0.336 C  
HETATM   40  C   UNL     2     -12.240  15.367  70.429  1.00  0.00    -0.391 C  
HETATM   41  O   UNL     2     -12.340  16.006  71.514  1.00  0.00    -0.442 OA 
HETATM   42  O   UNL     2     -12.862  14.294  70.137  1.00  0.00    -0.281 OA 
ENDBRANCH  38  39
ENDBRANCH  37  38
ENDBRANCH  36  37
ENDBRANCH  34  35
ENDBRANCH  31  34
ENDBRANCH  24  25
ENDBRANCH  17  18
ENDBRANCH  16  17
ENDBRANCH   6  16
TORSDOF 9
ENDMDL
MODEL      174
REMARK 921   NORMALIZED FREE ENERGY PREDICTED BY IDOCK:   -5.09 KCAL/MOL
REMARK 922        TOTAL FREE ENERGY PREDICTED BY IDOCK:   -9.69 KCAL/MOL
REMARK 923 INTER-LIGAND FREE ENERGY PREDICTED BY IDOCK:   -7.68 KCAL/MOL
REMARK 924 INTRA-LIGAND FREE ENERGY PREDICTED BY IDOCK:   -2.01 KCAL/MOL
REMARK 927      BINDING AFFINITY PREDICTED BY RF-SCORE:    0.00 PKD
ROOT
HETATM    1  O   UNL     1      -8.814   5.581  63.612  1.00  0.00    -0.345 OA 
HETATM    2  C   UNL     1      -7.854   5.632  64.662  1.00  0.00    -0.113 C  
HETATM    3  H   UNL     1      -8.838   4.727  63.197  1.00  0.00     0.000 HD 
HETATM    4  C   UNL     2     -11.143   5.221  72.603  1.00  0.00    -0.319 C  
HETATM    5  C   UNL     1      -7.815   7.032  65.341  1.00  0.00    -0.119 C  
HETATM    6  C   UNL     2     -11.083   6.503  71.787  1.00  0.00    -0.299 C  
HETATM    7  C   UNL     1      -9.240   7.391  65.846  1.00  0.00     0.031 C  
HETATM    8  N   UNL     1      -6.887   6.904  66.508  1.00  0.00    -0.066 NA 
HETATM    9  C   UNL     1      -7.199   8.137  64.497  1.00  0.00    -0.084 C  
HETATM   10  H   UNL     1      -5.397   8.600  63.896  1.00  0.00     0.000 HD 
HETATM   11  H   UNL     1     -10.595   6.608  67.055  1.00  0.00     0.000 HD 
HETATM   12  H2  UNL     1      -5.963   6.550  66.256  1.00  0.00     0.000 HD 
HETATM   13  O   UNL     1      -9.725   6.389  66.746  1.00  0.00    -0.149 OA 
HETATM   14  O   UNL     1      -5.782   7.910  64.423  1.00  0.00    -0.043 OA 
HETATM   15  H1  UNL     1      -6.861   7.821  66.953  1.00  0.00     0.000 HD 
ENDROOT
BRANCH   6  16
HETATM   16  C   UNL     2      -9.740   6.727  71.090  1.00  0.00    -0.181 C  
BRANCH  16  17
HETATM   17  C   UNL     2      -9.683   7.949  70.169  1.00  0.00    -0.179 C  
BRANCH  17  18
HETATM   18  C   UNL     2      -8.280   8.274  69.606  1.00  0.00    -0.118 C  
HETATM   19  C   UNL     2      -7.768   9.730  69.700  1.00  0.00    -0.136 C  
HETATM   20  C   UNL     2      -6.301   9.918  69.289  1.00  0.00    -0.044 C  
HETATM   21  O   UNL     2      -7.860  10.121  71.075  1.00  0.00    -0.215 OA 
HETATM   22  C   UNL     2      -8.643  10.641  68.887  1.00  0.00    -0.158 C  
HETATM   23  H   UNL     2      -7.546  11.015  71.133  1.00  0.00     0.000 HD 
HETATM   24  C   UNL     2      -8.696  10.743  67.548  1.00  0.00    -0.125 C  
BRANCH  24  25
HETATM   25  C   UNL     2      -9.620  11.658  66.777  1.00  0.00    -0.207 C  
HETATM   26  C   UNL     2     -11.027  11.098  66.466  1.00  0.00    -0.209 C  
HETATM   27  C   UNL     2     -11.757  12.326  65.977  1.00  0.00    -0.451 C  
HETATM   28  O   UNL     2     -11.762  10.642  67.598  1.00  0.00    -0.636 OA 
HETATM   29  H   UNL     2     -12.626  10.298  67.407  1.00  0.00     0.000 HD 
HETATM   30  C   UNL     2     -11.322  13.415  66.957  1.00  0.00    -0.317 C  
HETATM   31  C   UNL     2      -9.893  13.045  67.436  1.00  0.00    -0.215 C  
HETATM   32  O   UNL     2     -11.428  14.662  66.289  1.00  0.00    -0.355 OA 
HETATM   33  H   UNL     2     -11.157  15.339  66.898  1.00  0.00     0.000 HD 
BRANCH  31  34
HETATM   34  C   UNL     2      -8.801  14.093  67.125  1.00  0.00    -0.241 C  
BRANCH  34  35
HETATM   35  C   UNL     2      -8.113  14.646  68.352  1.00  0.00    -0.147 C  
HETATM   36  C   UNL     2      -8.379  15.778  69.022  1.00  0.00    -0.236 C  
BRANCH  36  37
HETATM   37  C   UNL     2      -9.443  16.795  68.720  1.00  0.00    -0.259 C  
BRANCH  37  38
HETATM   38  C   UNL     2     -10.849  16.335  69.111  1.00  0.00    -0.314 C  
BRANCH  38  39
HETATM   39  C   UNL     2     -10.888  15.268  70.195  1.00  0.00    -0.302 C  
HETATM   40  C   UNL     2     -12.010  15.337  71.232  1.00  0.00    -0.353 C  
HETATM   41  O   UNL     2     -11.734  14.790  72.337  1.00  0.00    -0.266 OA 
HETATM   42  O   UNL     2     -13.129  15.859  70.919  1.00  0.00    -0.505 OA 
ENDBRANCH  38  39
ENDBRANCH  37  38
ENDBRANCH  36  37
ENDBRANCH  34  35
ENDBRANCH  31  34
ENDBRANCH  24  25
ENDBRANCH  17  18
ENDBRANCH  16  17
ENDBRANCH   6  16
TORSDOF 9
ENDMDL
MODEL      175
REMARK 921   NORMALIZED FREE ENERGY PREDICTED BY IDOCK:   -5.07 KCAL/MOL
REMARK 922        TOTAL FREE ENERGY PREDICTED BY IDOCK:   -9.66 KCAL/MOL
REMARK 923 INTER-LIGAND FREE ENERGY PREDICTED BY IDOCK:   -7.50 KCAL/MOL
REMARK 924 INTRA-LIGAND FREE ENERGY PREDICTED BY IDOCK:   -2.15 KCAL/MOL
REMARK 927      BINDING AFFINITY PREDICTED BY RF-SCORE:    0.00 PKD
ROOT
HETATM    1  O   UNL     1      -8.558   7.417  63.638  1.00  0.00    -0.343 OA 
HETATM    2  C   UNL     1      -7.746   8.338  64.359  1.00  0.00    -0.125 C  
HETATM    3  H   UNL     1      -8.533   6.549  64.023  1.00  0.00     0.000 HD 
HETATM    4  C   UNL     2     -12.068  13.768  69.446  1.00  0.00    -0.377 C  
HETATM    5  C   UNL     1      -7.787   9.760  63.728  1.00  0.00    -0.143 C  
HETATM    6  C   UNL     2     -11.890  13.984  67.951  1.00  0.00    -0.411 C  
HETATM    7  C   UNL     1      -9.264  10.237  63.646  1.00  0.00    -0.280 C  
HETATM    8  N   UNL     1      -7.024  10.652  64.657  1.00  0.00    -0.358 NA 
HETATM    9  C   UNL     1      -7.056   9.894  62.401  1.00  0.00    -0.115 C  
HETATM   10  H   UNL     1      -5.185   9.913  61.829  1.00  0.00     0.000 HD 
HETATM   11  H   UNL     1     -10.774  10.515  64.891  1.00  0.00     0.000 HD 
HETATM   12  H2  UNL     1      -6.078  10.321  64.851  1.00  0.00     0.000 HD 
HETATM   13  O   UNL     1      -9.872  10.224  64.941  1.00  0.00    -0.299 OA 
HETATM   14  O   UNL     1      -5.643   9.829  62.658  1.00  0.00    -0.087 OA 
HETATM   15  H1  UNL     1      -7.051  11.584  64.244  1.00  0.00     0.000 HD 
ENDROOT
BRANCH   6  16
HETATM   16  C   UNL     2     -10.465  13.730  67.458  1.00  0.00    -0.245 C  
BRANCH  16  17
HETATM   17  C   UNL     2      -9.495  14.900  67.648  1.00  0.00    -0.199 C  
BRANCH  17  18
HETATM   18  C   UNL     2      -8.382  14.657  68.695  1.00  0.00    -0.165 C  
HETATM   19  C   UNL     2      -7.177  13.775  68.296  1.00  0.00    -0.114 C  
HETATM   20  C   UNL     2      -6.040  13.742  69.328  1.00  0.00    -0.100 C  
HETATM   21  O   UNL     2      -6.625  14.331  67.098  1.00  0.00    -0.385 OA 
HETATM   22  C   UNL     2      -7.634  12.374  68.003  1.00  0.00    -0.128 C  
HETATM   23  H   UNL     2      -5.885  13.789  66.853  1.00  0.00     0.000 HD 
HETATM   24  C   UNL     2      -8.029  11.441  68.886  1.00  0.00    -0.085 C  
BRANCH  24  25
HETATM   25  C   UNL     2      -8.509  10.051  68.533  1.00  0.00    -0.115 C  
HETATM   26  C   UNL     2      -7.415   8.968  68.393  1.00  0.00    -0.082 C  
HETATM   27  C   UNL     2      -8.228   7.698  68.340  1.00  0.00    -0.125 C  
HETATM   28  O   UNL     2      -6.555   8.825  69.520  1.00  0.00    -0.043 OA 
HETATM   29  H   UNL     2      -5.883   8.160  69.434  1.00  0.00     0.000 HD 
HETATM   30  C   UNL     2      -9.282   7.902  69.427  1.00  0.00    -0.145 C  
HETATM   31  C   UNL     2      -9.544   9.429  69.521  1.00  0.00    -0.188 C  
HETATM   32  O   UNL     2     -10.413   7.118  69.084  1.00  0.00    -0.201 OA 
HETATM   33  H   UNL     2     -11.068   7.245  69.760  1.00  0.00     0.000 HD 
BRANCH  31  34
HETATM   34  C   UNL     2     -10.998   9.868  69.236  1.00  0.00    -0.244 C  
BRANCH  34  35
HETATM   35  C   UNL     2     -11.726  10.404  70.447  1.00  0.00    -0.419 C  
HETATM   36  C   UNL     2     -12.160   9.735  71.527  1.00  0.00    -0.493 C  
BRANCH  36  37
HETATM   37  C   UNL     2     -12.028   8.267  71.812  1.00  0.00    -0.364 C  
BRANCH  37  38
HETATM   38  C   UNL     2     -11.107   7.959  72.994  1.00  0.00    -0.379 C  
BRANCH  38  39
HETATM   39  C   UNL     2     -10.214   6.742  72.803  1.00  0.00    -0.210 C  
HETATM   40  C   UNL     2     -10.727   5.387  73.291  1.00  0.00    -0.276 C  
HETATM   41  O   UNL     2      -9.819   4.555  73.571  1.00  0.00    -0.132 OA 
HETATM   42  O   UNL     2     -11.981   5.161  73.326  1.00  0.00    -0.128 OA 
ENDBRANCH  38  39
ENDBRANCH  37  38
ENDBRANCH  36  37
ENDBRANCH  34  35
ENDBRANCH  31  34
ENDBRANCH  24  25
ENDBRANCH  17  18
ENDBRANCH  16  17
ENDBRANCH   6  16
TORSDOF 9
ENDMDL
MODEL      176
REMARK 921   NORMALIZED FREE ENERGY PREDICTED BY IDOCK:   -5.07 KCAL/MOL
REMARK 922        TOTAL FREE ENERGY PREDICTED BY IDOCK:   -9.66 KCAL/MOL
REMARK 923 INTER-LIGAND FREE ENERGY PREDICTED BY IDOCK:   -8.21 KCAL/MOL
REMARK 924 INTRA-LIGAND FREE ENERGY PREDICTED BY IDOCK:   -1.45 KCAL/MOL
REMARK 927      BINDING AFFINITY PREDICTED BY RF-SCORE:    0.00 PKD
ROOT
HETATM    1  O   UNL     1     -11.560   7.603  73.417  1.00  0.00    -0.641 OA 
HETATM    2  C   UNL     1     -11.859   7.518  72.027  1.00  0.00    -0.294 C  
HETATM    3  H   UNL     1     -11.882   6.846  73.893  1.00  0.00     0.000 HD 
HETATM    4  C   UNL     2      -5.213   5.326  67.020  1.00  0.00    -0.008 C  
HETATM    5  C   UNL     1     -11.332   8.758  71.247  1.00  0.00    -0.291 C  
HETATM    6  C   UNL     2      -5.456   6.744  67.514  1.00  0.00    -0.009 C  
HETATM    7  C   UNL     1      -9.806   8.906  71.500  1.00  0.00    -0.314 C  
HETATM    8  N   UNL     1     -11.575   8.473  69.798  1.00  0.00    -0.333 NA 
HETATM    9  C   UNL     1     -12.095  10.048  71.504  1.00  0.00    -0.387 C  
HETATM   10  H   UNL     1     -13.858  10.750  71.031  1.00  0.00     0.000 HD 
HETATM   11  H   UNL     1      -8.180   7.805  71.270  1.00  0.00     0.000 HD 
HETATM   12  H2  UNL     1     -12.546   8.243  69.586  1.00  0.00     0.000 HD 
HETATM   13  O   UNL     1      -9.112   7.715  71.115  1.00  0.00    -0.144 OA 
HETATM   14  O   UNL     1     -13.381   9.944  70.871  1.00  0.00    -0.349 OA 
HETATM   15  H1  UNL     1     -11.230   9.285  69.286  1.00  0.00     0.000 HD 
ENDROOT
BRANCH   6  16
HETATM   16  C   UNL     2      -6.912   7.197  67.390  1.00  0.00    -0.079 C  
BRANCH  16  17
HETATM   17  C   UNL     2      -7.268   8.460  68.180  1.00  0.00    -0.091 C  
BRANCH  17  18
HETATM   18  C   UNL     2      -6.344   9.672  67.919  1.00  0.00    -0.057 C  
HETATM   19  C   UNL     2      -6.875  11.086  68.246  1.00  0.00    -0.067 C  
HETATM   20  C   UNL     2      -5.828  12.204  68.130  1.00  0.00    -0.056 C  
HETATM   21  O   UNL     2      -7.304  11.069  69.613  1.00  0.00    -0.292 OA 
HETATM   22  C   UNL     2      -8.059  11.410  67.380  1.00  0.00    -0.142 C  
HETATM   23  H   UNL     2      -7.630  11.938  69.814  1.00  0.00     0.000 HD 
HETATM   24  C   UNL     2      -8.056  11.712  66.070  1.00  0.00     0.216 C  
BRANCH  24  25
HETATM   25  C   UNL     2      -9.284  12.000  65.237  1.00  0.00     0.150 C  
HETATM   26  C   UNL     2      -9.895  10.795  64.486  1.00  0.00    -0.310 C  
HETATM   27  C   UNL     2     -11.220  11.347  64.021  1.00  0.00    -0.350 C  
HETATM   28  O   UNL     2     -10.214   9.671  65.301  1.00  0.00    -0.315 OA 
HETATM   29  H   UNL     2     -10.589   8.930  64.840  1.00  0.00     0.000 HD 
HETATM   30  C   UNL     2     -11.734  12.116  65.238  1.00  0.00    -0.308 C  
HETATM   31  C   UNL     2     -10.487  12.624  66.010  1.00  0.00    -0.288 C  
HETATM   32  O   UNL     2     -12.605  13.133  64.768  1.00  0.00    -0.575 OA 
HETATM   33  H   UNL     2     -12.924  13.611  65.525  1.00  0.00     0.000 HD 
BRANCH  31  34
HETATM   34  C   UNL     2     -10.384  14.158  66.162  1.00  0.00    -0.304 C  
BRANCH  34  35
HETATM   35  C   UNL     2     -11.108  14.705  67.371  1.00  0.00    -0.331 C  
HETATM   36  C   UNL     2     -11.109  15.959  67.849  1.00  0.00    -0.317 C  
BRANCH  36  37
HETATM   37  C   UNL     2     -10.384  17.153  67.297  1.00  0.00    -0.320 C  
BRANCH  37  38
HETATM   38  C   UNL     2     -10.538  18.407  68.159  1.00  0.00    -0.298 C  
BRANCH  38  39
HETATM   39  C   UNL     2      -9.270  19.235  68.306  1.00  0.00    -0.394 C  
HETATM   40  C   UNL     2      -8.742  19.969  67.073  1.00  0.00    -0.336 C  
HETATM   41  O   UNL     2      -7.501  20.202  67.097  1.00  0.00    -0.262 OA 
HETATM   42  O   UNL     2      -9.553  20.345  66.165  1.00  0.00    -0.313 OA 
ENDBRANCH  38  39
ENDBRANCH  37  38
ENDBRANCH  36  37
ENDBRANCH  34  35
ENDBRANCH  31  34
ENDBRANCH  24  25
ENDBRANCH  17  18
ENDBRANCH  16  17
ENDBRANCH   6  16
TORSDOF 9
ENDMDL
MODEL      177
REMARK 921   NORMALIZED FREE ENERGY PREDICTED BY IDOCK:   -5.06 KCAL/MOL
REMARK 922        TOTAL FREE ENERGY PREDICTED BY IDOCK:   -9.65 KCAL/MOL
REMARK 923 INTER-LIGAND FREE ENERGY PREDICTED BY IDOCK:   -8.38 KCAL/MOL
REMARK 924 INTRA-LIGAND FREE ENERGY PREDICTED BY IDOCK:   -1.27 KCAL/MOL
REMARK 927      BINDING AFFINITY PREDICTED BY RF-SCORE:    0.00 PKD
ROOT
HETATM    1  O   UNL     1     -12.323   9.238  70.488  1.00  0.00    -0.482 OA 
HETATM    2  C   UNL     1     -10.970   9.583  70.211  1.00  0.00    -0.269 C  
HETATM    3  H   UNL     1     -12.902   9.986  70.400  1.00  0.00     0.000 HD 
HETATM    4  C   UNL     2      -8.096   7.070  62.499  1.00  0.00    -0.092 C  
HETATM    5  C   UNL     1     -10.021   8.357  70.356  1.00  0.00    -0.185 C  
HETATM    6  C   UNL     2      -8.157   6.151  63.710  1.00  0.00    -0.067 C  
HETATM    7  C   UNL     1     -10.525   7.214  69.432  1.00  0.00    -0.222 C  
HETATM    8  N   UNL     1      -8.673   8.816  69.896  1.00  0.00    -0.130 NA 
HETATM    9  C   UNL     1      -9.788   7.893  71.785  1.00  0.00    -0.173 C  
HETATM   10  H   UNL     1      -8.814   8.576  73.338  1.00  0.00     0.000 HD 
HETATM   11  H   UNL     1     -10.907   6.959  67.509  1.00  0.00     0.000 HD 
HETATM   12  H2  UNL     1      -8.338   9.647  70.385  1.00  0.00     0.000 HD 
HETATM   13  O   UNL     1     -10.599   7.657  68.073  1.00  0.00    -0.205 OA 
HETATM   14  O   UNL     1      -8.960   8.866  72.444  1.00  0.00    -0.383 OA 
HETATM   15  H1  UNL     1      -8.051   8.013  69.991  1.00  0.00     0.000 HD 
ENDROOT
BRANCH   6  16
HETATM   16  C   UNL     2      -7.637   6.794  64.997  1.00  0.00    -0.100 C  
BRANCH  16  17
HETATM   17  C   UNL     2      -7.640   8.325  65.004  1.00  0.00    -0.095 C  
BRANCH  17  18
HETATM   18  C   UNL     2      -9.035   8.971  65.165  1.00  0.00    -0.216 C  
HETATM   19  C   UNL     2      -9.202  10.464  64.799  1.00  0.00    -0.230 C  
HETATM   20  C   UNL     2     -10.653  10.967  64.813  1.00  0.00    -0.350 C  
HETATM   21  O   UNL     2      -8.728  10.624  63.457  1.00  0.00    -0.176 OA 
HETATM   22  C   UNL     2      -8.362  11.318  65.706  1.00  0.00     0.023 C  
HETATM   23  H   UNL     2      -8.830  11.541  63.232  1.00  0.00     0.000 HD 
HETATM   24  C   UNL     2      -8.588  11.607  66.998  1.00  0.00    -0.169 C  
BRANCH  24  25
HETATM   25  C   UNL     2      -7.690  12.451  67.876  1.00  0.00    -0.135 C  
HETATM   26  C   UNL     2      -6.169  12.248  67.686  1.00  0.00    -0.120 C  
HETATM   27  C   UNL     2      -5.594  13.408  68.461  1.00  0.00    -0.086 C  
HETATM   28  O   UNL     2      -5.698  12.409  66.351  1.00  0.00    -0.374 OA 
HETATM   29  H   UNL     2      -4.764  12.284  66.234  1.00  0.00     0.000 HD 
HETATM   30  C   UNL     2      -6.491  14.581  68.068  1.00  0.00    -0.150 C  
HETATM   31  C   UNL     2      -7.893  13.992  67.756  1.00  0.00    -0.176 C  
HETATM   32  O   UNL     2      -6.457  15.523  69.128  1.00  0.00    -0.115 OA 
HETATM   33  H   UNL     2      -7.015  16.252  68.884  1.00  0.00     0.000 HD 
BRANCH  31  34
HETATM   34  C   UNL     2      -9.044  14.526  68.638  1.00  0.00    -0.187 C  
BRANCH  34  35
HETATM   35  C   UNL     2     -10.381  14.580  67.936  1.00  0.00    -0.231 C  
HETATM   36  C   UNL     2     -11.501  15.216  68.314  1.00  0.00    -0.350 C  
BRANCH  36  37
HETATM   37  C   UNL     2     -11.711  16.049  69.546  1.00  0.00    -0.275 C  
BRANCH  37  38
HETATM   38  C   UNL     2     -12.587  15.366  70.597  1.00  0.00    -0.491 C  
BRANCH  38  39
HETATM   39  C   UNL     2     -11.909  15.145  71.941  1.00  0.00    -0.477 C  
HETATM   40  C   UNL     2     -12.772  14.682  73.116  1.00  0.00    -0.444 C  
HETATM   41  O   UNL     2     -12.314  14.990  74.252  1.00  0.00    -0.587 OA 
HETATM   42  O   UNL     2     -13.819  13.990  72.897  1.00  0.00    -0.657 OA 
ENDBRANCH  38  39
ENDBRANCH  37  38
ENDBRANCH  36  37
ENDBRANCH  34  35
ENDBRANCH  31  34
ENDBRANCH  24  25
ENDBRANCH  17  18
ENDBRANCH  16  17
ENDBRANCH   6  16
TORSDOF 9
ENDMDL
MODEL      178
REMARK 921   NORMALIZED FREE ENERGY PREDICTED BY IDOCK:   -5.05 KCAL/MOL
REMARK 922        TOTAL FREE ENERGY PREDICTED BY IDOCK:   -9.63 KCAL/MOL
REMARK 923 INTER-LIGAND FREE ENERGY PREDICTED BY IDOCK:   -8.10 KCAL/MOL
REMARK 924 INTRA-LIGAND FREE ENERGY PREDICTED BY IDOCK:   -1.52 KCAL/MOL
REMARK 927      BINDING AFFINITY PREDICTED BY RF-SCORE:    0.00 PKD
ROOT
HETATM    1  O   UNL     1      -5.268   8.749  64.138  1.00  0.00    -0.053 OA 
HETATM    2  C   UNL     1      -6.370   8.744  63.237  1.00  0.00    -0.089 C  
HETATM    3  H   UNL     1      -4.467   9.036  63.714  1.00  0.00     0.000 HD 
HETATM    4  C   UNL     2     -11.826  15.336  64.147  1.00  0.00    -0.138 C  
HETATM    5  C   UNL     1      -7.681   8.274  63.932  1.00  0.00    -0.141 C  
HETATM    6  C   UNL     2     -11.867  14.089  65.018  1.00  0.00    -0.383 C  
HETATM    7  C   UNL     1      -7.953   9.176  65.167  1.00  0.00    -0.117 C  
HETATM    8  N   UNL     1      -8.775   8.458  62.927  1.00  0.00    -0.424 NA 
HETATM    9  C   UNL     1      -7.732   6.792  64.269  1.00  0.00    -0.109 C  
HETATM   10  H   UNL     1      -7.913   5.131  63.252  1.00  0.00     0.000 HD 
HETATM   11  H   UNL     1      -8.198  11.103  65.536  1.00  0.00     0.000 HD 
HETATM   12  H2  UNL     1      -8.595   7.987  62.040  1.00  0.00     0.000 HD 
HETATM   13  O   UNL     1      -8.032  10.552  64.781  1.00  0.00    -0.135 OA 
HETATM   14  O   UNL     1      -7.881   6.057  63.042  1.00  0.00    -0.088 OA 
HETATM   15  H1  UNL     1      -9.635   8.151  63.382  1.00  0.00     0.000 HD 
ENDROOT
BRANCH   6  16
HETATM   16  C   UNL     2     -11.733  12.784  64.232  1.00  0.00    -0.443 C  
BRANCH  16  17
HETATM   17  C   UNL     2     -11.850  11.507  65.069  1.00  0.00     0.161 C  
BRANCH  17  18
HETATM   18  C   UNL     2     -10.643  11.224  65.993  1.00  0.00    -0.314 C  
HETATM   19  C   UNL     2     -10.857  11.282  67.523  1.00  0.00    -0.245 C  
HETATM   20  C   UNL     2      -9.657  10.808  68.355  1.00  0.00    -0.177 C  
HETATM   21  O   UNL     2     -11.942  10.400  67.831  1.00  0.00    -0.627 OA 
HETATM   22  C   UNL     2     -11.242  12.674  67.940  1.00  0.00    -0.310 C  
HETATM   23  H   UNL     2     -12.074  10.436  68.771  1.00  0.00     0.000 HD 
HETATM   24  C   UNL     2     -10.450  13.757  68.007  1.00  0.00    -0.245 C  
BRANCH  24  25
HETATM   25  C   UNL     2     -10.898  15.145  68.405  1.00  0.00    -0.255 C  
HETATM   26  C   UNL     2     -11.435  15.298  69.847  1.00  0.00    -0.304 C  
HETATM   27  C   UNL     2     -11.504  16.797  70.004  1.00  0.00     0.442 C  
HETATM   28  O   UNL     2     -10.555  14.847  70.872  1.00  0.00    -0.521 OA 
HETATM   29  H   UNL     2     -10.885  14.940  71.758  1.00  0.00     0.000 HD 
HETATM   30  C   UNL     2     -10.197  17.283  69.379  1.00  0.00    -0.139 C  
HETATM   31  C   UNL     2      -9.818  16.261  68.274  1.00  0.00    -0.227 C  
HETATM   32  O   UNL     2     -10.404  18.611  68.925  1.00  0.00    -0.463 OA 
HETATM   33  H   UNL     2      -9.591  18.913  68.536  1.00  0.00     0.000 HD 
BRANCH  31  34
HETATM   34  C   UNL     2      -9.712  16.843  66.847  1.00  0.00    -0.264 C  
BRANCH  34  35
HETATM   35  C   UNL     2      -8.306  16.855  66.291  1.00  0.00    -0.331 C  
HETATM   36  C   UNL     2      -7.470  17.895  66.152  1.00  0.00    -0.315 C  
BRANCH  36  37
HETATM   37  C   UNL     2      -7.720  19.330  66.519  1.00  0.00    -0.284 C  
BRANCH  37  38
HETATM   38  C   UNL     2      -6.730  19.872  67.551  1.00  0.00    -0.254 C  
BRANCH  38  39
HETATM   39  C   UNL     2      -6.924  19.333  68.961  1.00  0.00    -0.381 C  
HETATM   40  C   UNL     2      -5.987  19.836  70.060  1.00  0.00    -0.302 C  
HETATM   41  O   UNL     2      -5.846  19.040  71.030  1.00  0.00    -0.124 OA 
HETATM   42  O   UNL     2      -5.476  21.000  69.971  1.00  0.00    -0.506 OA 
ENDBRANCH  38  39
ENDBRANCH  37  38
ENDBRANCH  36  37
ENDBRANCH  34  35
ENDBRANCH  31  34
ENDBRANCH  24  25
ENDBRANCH  17  18
ENDBRANCH  16  17
ENDBRANCH   6  16
TORSDOF 9
ENDMDL
MODEL      179
REMARK 921   NORMALIZED FREE ENERGY PREDICTED BY IDOCK:   -4.99 KCAL/MOL
REMARK 922        TOTAL FREE ENERGY PREDICTED BY IDOCK:   -9.54 KCAL/MOL
REMARK 923 INTER-LIGAND FREE ENERGY PREDICTED BY IDOCK:   -7.21 KCAL/MOL
REMARK 924 INTRA-LIGAND FREE ENERGY PREDICTED BY IDOCK:   -2.33 KCAL/MOL
REMARK 927      BINDING AFFINITY PREDICTED BY RF-SCORE:    0.00 PKD
ROOT
HETATM    1  O   UNL     1      -6.201   2.224  71.626  1.00  0.00    -0.014 OA 
HETATM    2  C   UNL     1      -7.303   1.550  71.026  1.00  0.00    -0.033 C  
HETATM    3  H   UNL     1      -5.440   1.661  71.697  1.00  0.00     0.000 HD 
HETATM    4  C   UNL     2      -8.766   3.607  62.799  1.00  0.00    -0.090 C  
HETATM    5  C   UNL     1      -8.550   2.473  70.908  1.00  0.00    -0.059 C  
HETATM    6  C   UNL     2      -9.252   4.447  63.971  1.00  0.00    -0.135 C  
HETATM    7  C   UNL     1      -8.161   3.754  70.120  1.00  0.00    -0.056 C  
HETATM    8  N   UNL     1      -9.571   1.699  70.135  1.00  0.00    -0.067 NA 
HETATM    9  C   UNL     1      -9.242   2.786  72.226  1.00  0.00    -0.092 C  
HETATM   10  H   UNL     1     -10.347   1.791  73.497  1.00  0.00     0.000 HD 
HETATM   11  H   UNL     1      -7.403   4.199  68.349  1.00  0.00     0.000 HD 
HETATM   12  H2  UNL     1      -9.780   0.785  70.538  1.00  0.00     0.000 HD 
HETATM   13  O   UNL     1      -7.640   3.416  68.831  1.00  0.00    -0.052 OA 
HETATM   14  O   UNL     1      -9.914   1.596  72.674  1.00  0.00    -0.093 OA 
HETATM   15  H1  UNL     1     -10.389   2.304  70.057  1.00  0.00     0.000 HD 
ENDROOT
BRANCH   6  16
HETATM   16  C   UNL     2      -9.879   3.625  65.098  1.00  0.00    -0.126 C  
BRANCH  16  17
HETATM   17  C   UNL     2      -9.978   4.343  66.447  1.00  0.00    -0.252 C  
BRANCH  17  18
HETATM   18  C   UNL     2     -10.504   5.796  66.372  1.00  0.00    -0.217 C  
HETATM   19  C   UNL     2      -9.603   6.934  66.904  1.00  0.00    -0.162 C  
HETATM   20  C   UNL     2     -10.127   8.349  66.619  1.00  0.00    -0.358 C  
HETATM   21  O   UNL     2      -8.343   6.822  66.233  1.00  0.00    -0.114 OA 
HETATM   22  C   UNL     2      -9.373   6.767  68.379  1.00  0.00    -0.124 C  
HETATM   23  H   UNL     2      -7.789   7.521  66.560  1.00  0.00     0.000 HD 
HETATM   24  C   UNL     2     -10.249   6.991  69.374  1.00  0.00    -0.197 C  
BRANCH  24  25
HETATM   25  C   UNL     2      -9.973   6.776  70.845  1.00  0.00    -0.200 C  
HETATM   26  C   UNL     2      -8.622   7.316  71.370  1.00  0.00    -0.115 C  
HETATM   27  C   UNL     2      -8.796   7.211  72.865  1.00  0.00    -0.154 C  
HETATM   28  O   UNL     2      -8.378   8.695  71.109  1.00  0.00    -0.133 OA 
HETATM   29  H   UNL     2      -7.548   9.026  71.430  1.00  0.00     0.000 HD 
HETATM   30  C   UNL     2     -10.219   7.718  73.096  1.00  0.00    -0.335 C  
HETATM   31  C   UNL     2     -11.033   7.376  71.819  1.00  0.00    -0.264 C  
HETATM   32  O   UNL     2     -10.699   7.125  74.292  1.00  0.00    -0.540 OA 
HETATM   33  H   UNL     2     -11.584   7.440  74.435  1.00  0.00     0.000 HD 
BRANCH  31  34
HETATM   34  C   UNL     2     -12.249   6.449  72.042  1.00  0.00    -0.320 C  
BRANCH  34  35
HETATM   35  C   UNL     2     -13.524   6.942  71.394  1.00  0.00    -0.249 C  
HETATM   36  C   UNL     2     -14.211   8.066  71.649  1.00  0.00    -0.549 C  
BRANCH  36  37
HETATM   37  C   UNL     2     -13.885   9.134  72.653  1.00  0.00    -0.414 C  
BRANCH  37  38
HETATM   38  C   UNL     2     -12.936  10.205  72.112  1.00  0.00    -0.436 C  
BRANCH  38  39
HETATM   39  C   UNL     2     -12.966  10.374  70.601  1.00  0.00    -0.357 C  
HETATM   40  C   UNL     2     -11.643  10.633  69.878  1.00  0.00    -0.316 C  
HETATM   41  O   UNL     2     -11.761  11.242  68.778  1.00  0.00    -0.295 OA 
HETATM   42  O   UNL     2     -10.556  10.186  70.370  1.00  0.00    -0.290 OA 
ENDBRANCH  38  39
ENDBRANCH  37  38
ENDBRANCH  36  37
ENDBRANCH  34  35
ENDBRANCH  31  34
ENDBRANCH  24  25
ENDBRANCH  17  18
ENDBRANCH  16  17
ENDBRANCH   6  16
TORSDOF 9
ENDMDL
MODEL      180
REMARK 921   NORMALIZED FREE ENERGY PREDICTED BY IDOCK:   -4.98 KCAL/MOL
REMARK 922        TOTAL FREE ENERGY PREDICTED BY IDOCK:   -9.53 KCAL/MOL
REMARK 923 INTER-LIGAND FREE ENERGY PREDICTED BY IDOCK:   -7.96 KCAL/MOL
REMARK 924 INTRA-LIGAND FREE ENERGY PREDICTED BY IDOCK:   -1.57 KCAL/MOL
REMARK 927      BINDING AFFINITY PREDICTED BY RF-SCORE:    0.00 PKD
ROOT
HETATM    1  O   UNL     1     -10.497  18.645  69.324  1.00  0.00    -0.418 OA 
HETATM    2  C   UNL     1     -10.735  17.560  68.432  1.00  0.00    -0.280 C  
HETATM    3  H   UNL     1     -11.231  18.787  69.910  1.00  0.00     0.000 HD 
HETATM    4  C   UNL     2      -6.646  10.259  70.437  1.00  0.00    -0.126 C  
HETATM    5  C   UNL     1      -9.533  17.328  67.472  1.00  0.00    -0.245 C  
HETATM    6  C   UNL     2      -5.988  11.408  69.687  1.00  0.00    -0.098 C  
HETATM    7  C   UNL     1      -8.245  17.109  68.314  1.00  0.00    -0.230 C  
HETATM    8  N   UNL     1      -9.847  16.083  66.703  1.00  0.00    -0.248 NA 
HETATM    9  C   UNL     1      -9.355  18.391  66.399  1.00  0.00    -0.283 C  
HETATM   10  H   UNL     1     -10.301  18.904  64.766  1.00  0.00     0.000 HD 
HETATM   11  H   UNL     1      -7.625  15.876  69.730  1.00  0.00     0.000 HD 
HETATM   12  H2  UNL     1     -10.747  16.117  66.225  1.00  0.00     0.000 HD 
HETATM   13  O   UNL     1      -8.412  16.010  69.216  1.00  0.00    -0.251 OA 
HETATM   14  O   UNL     1     -10.412  18.240  65.437  1.00  0.00    -0.571 OA 
HETATM   15  H1  UNL     1      -9.059  15.930  66.074  1.00  0.00     0.000 HD 
ENDROOT
BRANCH   6  16
HETATM   16  C   UNL     2      -6.857  11.991  68.571  1.00  0.00    -0.078 C  
BRANCH  16  17
HETATM   17  C   UNL     2      -8.239  11.349  68.422  1.00  0.00    -0.151 C  
BRANCH  17  18
HETATM   18  C   UNL     2      -8.736  11.207  66.965  1.00  0.00    -0.148 C  
HETATM   19  C   UNL     2     -10.203  10.783  66.725  1.00  0.00    -0.230 C  
HETATM   20  C   UNL     2     -10.655  10.849  65.259  1.00  0.00    -0.259 C  
HETATM   21  O   UNL     2     -11.031  11.700  67.449  1.00  0.00    -0.231 OA 
HETATM   22  C   UNL     2     -10.438   9.401  67.265  1.00  0.00    -0.332 C  
HETATM   23  H   UNL     2     -11.932  11.440  67.302  1.00  0.00     0.000 HD 
HETATM   24  C   UNL     2     -10.014   8.236  66.746  1.00  0.00    -0.355 C  
BRANCH  24  25
HETATM   25  C   UNL     2     -10.255   6.871  67.350  1.00  0.00    -0.262 C  
HETATM   26  C   UNL     2     -10.104   5.667  66.391  1.00  0.00    -0.156 C  
HETATM   27  C   UNL     2     -10.112   4.498  67.345  1.00  0.00    -0.117 C  
HETATM   28  O   UNL     2      -8.859   5.592  65.704  1.00  0.00    -0.152 OA 
HETATM   29  H   UNL     2      -8.766   4.853  65.115  1.00  0.00     0.000 HD 
HETATM   30  C   UNL     2      -9.217   4.965  68.492  1.00  0.00    -0.120 C  
HETATM   31  C   UNL     2      -9.352   6.509  68.569  1.00  0.00    -0.123 C  
HETATM   32  O   UNL     2      -9.616   4.267  69.661  1.00  0.00    -0.175 OA 
HETATM   33  H   UNL     2      -9.059   4.558  70.374  1.00  0.00     0.000 HD 
BRANCH  31  34
HETATM   34  C   UNL     2      -9.891   7.057  69.910  1.00  0.00    -0.173 C  
BRANCH  34  35
HETATM   35  C   UNL     2     -11.391   6.947  70.060  1.00  0.00    -0.343 C  
HETATM   36  C   UNL     2     -12.143   7.176  71.148  1.00  0.00    -0.397 C  
BRANCH  36  37
HETATM   37  C   UNL     2     -11.679   7.609  72.510  1.00  0.00    -0.352 C  
BRANCH  37  38
HETATM   38  C   UNL     2     -10.832   6.554  73.225  1.00  0.00    -0.276 C  
BRANCH  38  39
HETATM   39  C   UNL     2     -11.213   5.115  72.910  1.00  0.00    -0.362 C  
HETATM   40  C   UNL     2     -10.197   4.016  73.223  1.00  0.00    -0.148 C  
HETATM   41  O   UNL     2     -10.324   2.973  72.522  1.00  0.00    -0.158 OA 
HETATM   42  O   UNL     2      -9.360   4.180  74.170  1.00  0.00    -0.105 OA 
ENDBRANCH  38  39
ENDBRANCH  37  38
ENDBRANCH  36  37
ENDBRANCH  34  35
ENDBRANCH  31  34
ENDBRANCH  24  25
ENDBRANCH  17  18
ENDBRANCH  16  17
ENDBRANCH   6  16
TORSDOF 9
ENDMDL
MODEL      181
REMARK 921   NORMALIZED FREE ENERGY PREDICTED BY IDOCK:   -4.97 KCAL/MOL
REMARK 922        TOTAL FREE ENERGY PREDICTED BY IDOCK:   -9.50 KCAL/MOL
REMARK 923 INTER-LIGAND FREE ENERGY PREDICTED BY IDOCK:   -7.47 KCAL/MOL
REMARK 924 INTRA-LIGAND FREE ENERGY PREDICTED BY IDOCK:   -2.03 KCAL/MOL
REMARK 927      BINDING AFFINITY PREDICTED BY RF-SCORE:    0.00 PKD
ROOT
HETATM    1  O   UNL     1      -6.858   3.012  70.824  1.00  0.00    -0.032 OA 
HETATM    2  C   UNL     1      -8.013   3.684  70.333  1.00  0.00    -0.050 C  
HETATM    3  H   UNL     1      -6.625   2.268  70.280  1.00  0.00     0.000 HD 
HETATM    4  C   UNL     2      -6.426  11.061  66.196  1.00  0.00    -0.082 C  
HETATM    5  C   UNL     1      -8.394   4.902  71.225  1.00  0.00    -0.115 C  
HETATM    6  C   UNL     2      -6.498  10.950  67.711  1.00  0.00    -0.063 C  
HETATM    7  C   UNL     1      -7.173   5.857  71.329  1.00  0.00    -0.078 C  
HETATM    8  N   UNL     1      -9.517   5.599  70.522  1.00  0.00    -0.160 NA 
HETATM    9  C   UNL     1      -8.973   4.544  72.585  1.00  0.00    -0.119 C  
HETATM   10  H   UNL     1     -10.659   3.796  73.235  1.00  0.00     0.000 HD 
HETATM   11  H   UNL     1      -6.000   6.860  70.092  1.00  0.00     0.000 HD 
HETATM   12  H2  UNL     1     -10.306   4.987  70.312  1.00  0.00     0.000 HD 
HETATM   13  O   UNL     1      -6.746   6.276  70.029  1.00  0.00    -0.049 OA 
HETATM   14  O   UNL     1     -10.297   4.019  72.386  1.00  0.00    -0.178 OA 
HETATM   15  H1  UNL     1      -9.766   6.397  71.106  1.00  0.00     0.000 HD 
ENDROOT
BRANCH   6  16
HETATM   16  C   UNL     2      -7.684  10.124  68.212  1.00  0.00    -0.088 C  
BRANCH  16  17
HETATM   17  C   UNL     2      -8.823  10.935  68.836  1.00  0.00    -0.143 C  
BRANCH  17  18
HETATM   18  C   UNL     2      -9.848  10.103  69.641  1.00  0.00    -0.254 C  
HETATM   19  C   UNL     2     -11.346  10.232  69.283  1.00  0.00    -0.196 C  
HETATM   20  C   UNL     2     -12.264   9.236  70.006  1.00  0.00     0.498 C  
HETATM   21  O   UNL     2     -11.469   9.958  67.882  1.00  0.00    -0.569 OA 
HETATM   22  C   UNL     2     -11.822  11.634  69.537  1.00  0.00    -0.414 C  
HETATM   23  H   UNL     2     -12.390  10.038  67.662  1.00  0.00     0.000 HD 
HETATM   24  C   UNL     2     -12.054  12.216  70.726  1.00  0.00    -0.279 C  
BRANCH  24  25
HETATM   25  C   UNL     2     -12.504  13.646  70.926  1.00  0.00    -0.448 C  
HETATM   26  C   UNL     2     -13.718  13.851  71.862  1.00  0.00    -0.435 C  
HETATM   27  C   UNL     2     -13.710  15.346  72.071  1.00  0.00    -0.613 C  
HETATM   28  O   UNL     2     -13.585  13.283  73.161  1.00  0.00    -0.489 OA 
HETATM   29  H   UNL     2     -14.330  13.409  73.736  1.00  0.00     0.000 HD 
HETATM   30  C   UNL     2     -12.232  15.669  72.284  1.00  0.00    -0.439 C  
HETATM   31  C   UNL     2     -11.419  14.619  71.482  1.00  0.00    -0.072 C  
HETATM   32  O   UNL     2     -12.024  17.017  71.893  1.00  0.00    -0.245 OA 
HETATM   33  H   UNL     2     -11.105  17.218  72.026  1.00  0.00     0.000 HD 
BRANCH  31  34
HETATM   34  C   UNL     2     -10.498  15.196  70.383  1.00  0.00    -0.107 C  
BRANCH  34  35
HETATM   35  C   UNL     2     -11.178  15.375  69.044  1.00  0.00    -0.295 C  
HETATM   36  C   UNL     2     -10.773  14.951  67.837  1.00  0.00    -0.265 C  
BRANCH  36  37
HETATM   37  C   UNL     2      -9.529  14.179  67.504  1.00  0.00    -0.210 C  
BRANCH  37  38
HETATM   38  C   UNL     2      -8.325  15.073  67.200  1.00  0.00    -0.244 C  
BRANCH  38  39
HETATM   39  C   UNL     2      -8.612  16.219  66.242  1.00  0.00    -0.374 C  
HETATM   40  C   UNL     2      -7.523  17.272  66.031  1.00  0.00    -0.197 C  
HETATM   41  O   UNL     2      -7.953  18.401  65.664  1.00  0.00    -0.482 OA 
HETATM   42  O   UNL     2      -6.297  16.950  66.168  1.00  0.00    -0.188 OA 
ENDBRANCH  38  39
ENDBRANCH  37  38
ENDBRANCH  36  37
ENDBRANCH  34  35
ENDBRANCH  31  34
ENDBRANCH  24  25
ENDBRANCH  17  18
ENDBRANCH  16  17
ENDBRANCH   6  16
TORSDOF 9
ENDMDL
MODEL      182
REMARK 921   NORMALIZED FREE ENERGY PREDICTED BY IDOCK:   -4.96 KCAL/MOL
REMARK 922        TOTAL FREE ENERGY PREDICTED BY IDOCK:   -9.50 KCAL/MOL
REMARK 923 INTER-LIGAND FREE ENERGY PREDICTED BY IDOCK:   -8.28 KCAL/MOL
REMARK 924 INTRA-LIGAND FREE ENERGY PREDICTED BY IDOCK:   -1.22 KCAL/MOL
REMARK 927      BINDING AFFINITY PREDICTED BY RF-SCORE:    0.00 PKD
ROOT
HETATM    1  O   UNL     1     -12.053   8.075  73.166  1.00  0.00    -0.656 OA 
HETATM    2  C   UNL     1     -12.037   7.731  71.784  1.00  0.00    -0.298 C  
HETATM    3  H   UNL     1     -12.750   7.627  73.632  1.00  0.00     0.000 HD 
HETATM    4  C   UNL     2      -5.880   2.166  69.507  1.00  0.00    -0.023 C  
HETATM    5  C   UNL     1     -10.895   8.463  71.021  1.00  0.00    -0.238 C  
HETATM    6  C   UNL     2      -5.640   3.659  69.670  1.00  0.00    -0.017 C  
HETATM    7  C   UNL     1      -9.539   8.146  71.709  1.00  0.00    -0.188 C  
HETATM    8  N   UNL     1     -10.896   7.904  69.632  1.00  0.00    -0.369 NA 
HETATM    9  C   UNL     1     -11.113   9.955  70.820  1.00  0.00    -0.347 C  
HETATM   10  H   UNL     1     -12.289  11.062  69.717  1.00  0.00     0.000 HD 
HETATM   11  H   UNL     1      -8.484   6.539  72.173  1.00  0.00     0.000 HD 
HETATM   12  H2  UNL     1     -11.802   7.971  69.168  1.00  0.00     0.000 HD 
HETATM   13  O   UNL     1      -9.313   6.733  71.753  1.00  0.00    -0.148 OA 
HETATM   14  O   UNL     1     -12.153  10.130  69.843  1.00  0.00    -0.160 OA 
HETATM   15  H1  UNL     1     -10.148   8.384  69.132  1.00  0.00     0.000 HD 
ENDROOT
BRANCH   6  16
HETATM   16  C   UNL     2      -6.723   4.530  69.029  1.00  0.00    -0.046 C  
BRANCH  16  17
HETATM   17  C   UNL     2      -7.598   3.819  67.993  1.00  0.00    -0.066 C  
BRANCH  17  18
HETATM   18  C   UNL     2      -9.036   4.374  67.867  1.00  0.00    -0.154 C  
HETATM   19  C   UNL     2      -9.381   5.255  66.645  1.00  0.00    -0.138 C  
HETATM   20  C   UNL     2     -10.871   5.603  66.509  1.00  0.00    -0.239 C  
HETATM   21  O   UNL     2      -9.028   4.509  65.474  1.00  0.00    -0.127 OA 
HETATM   22  C   UNL     2      -8.567   6.517  66.668  1.00  0.00    -0.118 C  
HETATM   23  H   UNL     2      -9.240   5.050  64.723  1.00  0.00     0.000 HD 
HETATM   24  C   UNL     2      -8.723   7.577  67.479  1.00  0.00    -0.125 C  
BRANCH  24  25
HETATM   25  C   UNL     2      -7.852   8.813  67.481  1.00  0.00    -0.102 C  
HETATM   26  C   UNL     2      -6.375   8.604  67.888  1.00  0.00    -0.057 C  
HETATM   27  C   UNL     2      -5.750   9.922  67.504  1.00  0.00    -0.042 C  
HETATM   28  O   UNL     2      -5.675   7.616  67.138  1.00  0.00    -0.030 OA 
HETATM   29  H   UNL     2      -4.767   7.487  67.388  1.00  0.00     0.000 HD 
HETATM   30  C   UNL     2      -6.365  10.227  66.139  1.00  0.00    -0.094 C  
HETATM   31  C   UNL     2      -7.775   9.579  66.125  1.00  0.00    -0.101 C  
HETATM   32  O   UNL     2      -6.348  11.635  65.963  1.00  0.00    -0.414 OA 
HETATM   33  H   UNL     2      -6.731  11.824  65.114  1.00  0.00     0.000 HD 
BRANCH  31  34
HETATM   34  C   UNL     2      -8.949  10.560  65.911  1.00  0.00    -0.185 C  
BRANCH  34  35
HETATM   35  C   UNL     2      -9.226  10.881  64.460  1.00  0.00    -0.226 C  
HETATM   36  C   UNL     2     -10.285  11.512  63.929  1.00  0.00    -0.411 C  
BRANCH  36  37
HETATM   37  C   UNL     2     -11.478  12.069  64.651  1.00  0.00    -0.371 C  
BRANCH  37  38
HETATM   38  C   UNL     2     -11.758  13.536  64.317  1.00  0.00    -0.455 C  
BRANCH  38  39
HETATM   39  C   UNL     2     -11.133  14.535  65.278  1.00  0.00    -0.355 C  
HETATM   40  C   UNL     2     -10.855  15.950  64.767  1.00  0.00    -0.324 C  
HETATM   41  O   UNL     2      -9.929  16.553  65.378  1.00  0.00    -0.552 OA 
HETATM   42  O   UNL     2     -11.580  16.441  63.841  1.00  0.00    -1.100 OA 
ENDBRANCH  38  39
ENDBRANCH  37  38
ENDBRANCH  36  37
ENDBRANCH  34  35
ENDBRANCH  31  34
ENDBRANCH  24  25
ENDBRANCH  17  18
ENDBRANCH  16  17
ENDBRANCH   6  16
TORSDOF 9
ENDMDL
MODEL      183
REMARK 921   NORMALIZED FREE ENERGY PREDICTED BY IDOCK:   -4.95 KCAL/MOL
REMARK 922        TOTAL FREE ENERGY PREDICTED BY IDOCK:   -9.48 KCAL/MOL
REMARK 923 INTER-LIGAND FREE ENERGY PREDICTED BY IDOCK:   -7.20 KCAL/MOL
REMARK 924 INTRA-LIGAND FREE ENERGY PREDICTED BY IDOCK:   -2.28 KCAL/MOL
REMARK 927      BINDING AFFINITY PREDICTED BY RF-SCORE:    0.00 PKD
ROOT
HETATM    1  O   UNL     1      -5.804  13.502  72.196  1.00  0.00    -0.494 OA 
HETATM    2  C   UNL     1      -5.248  13.425  70.887  1.00  0.00    -0.143 C  
HETATM    3  H   UNL     1      -5.132  13.622  72.857  1.00  0.00     0.000 HD 
HETATM    4  C   UNL     2      -6.127  20.559  66.156  1.00  0.00    -0.243 C  
HETATM    5  C   UNL     1      -6.348  13.229  69.804  1.00  0.00    -0.073 C  
HETATM    6  C   UNL     2      -7.225  19.518  66.312  1.00  0.00    -0.272 C  
HETATM    7  C   UNL     1      -7.388  14.377  69.922  1.00  0.00     0.185 C  
HETATM    8  N   UNL     1      -5.653  13.316  68.481  1.00  0.00    -0.078 NA 
HETATM    9  C   UNL     1      -6.997  11.853  69.792  1.00  0.00     0.233 C  
HETATM   10  H   UNL     1      -6.446  10.050  69.272  1.00  0.00     0.000 HD 
HETATM   11  H   UNL     1      -7.385  16.354  69.863  1.00  0.00     0.000 HD 
HETATM   12  H2  UNL     1      -4.872  12.665  68.389  1.00  0.00     0.000 HD 
HETATM   13  O   UNL     1      -6.750  15.652  69.791  1.00  0.00    -0.179 OA 
HETATM   14  O   UNL     1      -6.041  10.910  69.280  1.00  0.00    -0.042 OA 
HETATM   15  H1  UNL     1      -6.374  13.187  67.772  1.00  0.00     0.000 HD 
ENDROOT
BRANCH   6  16
HETATM   16  C   UNL     2      -6.731  18.077  66.171  1.00  0.00    -0.303 C  
BRANCH  16  17
HETATM   17  C   UNL     2      -7.834  17.018  66.083  1.00  0.00    -0.295 C  
BRANCH  17  18
HETATM   18  C   UNL     2      -9.238  17.506  66.510  1.00  0.00    -0.286 C  
HETATM   19  C   UNL     2      -9.936  16.796  67.692  1.00  0.00    -0.262 C  
HETATM   20  C   UNL     2     -11.237  17.465  68.160  1.00  0.00     0.150 C  
HETATM   21  O   UNL     2      -9.033  16.838  68.802  1.00  0.00    -0.248 OA 
HETATM   22  C   UNL     2     -10.202  15.357  67.349  1.00  0.00    -0.249 C  
HETATM   23  H   UNL     2      -9.462  16.401  69.528  1.00  0.00     0.000 HD 
HETATM   24  C   UNL     2     -11.132  14.876  66.507  1.00  0.00    -0.341 C  
BRANCH  24  25
HETATM   25  C   UNL     2     -11.337  13.415  66.174  1.00  0.00    -0.324 C  
HETATM   26  C   UNL     2     -10.748  12.935  64.827  1.00  0.00    -0.333 C  
HETATM   27  C   UNL     2     -10.860  11.435  64.946  1.00  0.00    -0.323 C  
HETATM   28  O   UNL     2      -9.360  13.201  64.644  1.00  0.00    -0.123 OA 
HETATM   29  H   UNL     2      -8.997  12.907  63.817  1.00  0.00     0.000 HD 
HETATM   30  C   UNL     2     -10.408  11.155  66.379  1.00  0.00    -0.252 C  
HETATM   31  C   UNL     2     -10.780  12.404  67.222  1.00  0.00    -0.259 C  
HETATM   32  O   UNL     2     -11.020   9.945  66.795  1.00  0.00    -0.089 OA 
HETATM   33  H   UNL     2     -10.739   9.771  67.686  1.00  0.00     0.000 HD 
BRANCH  31  34
HETATM   34  C   UNL     2     -11.752  12.143  68.394  1.00  0.00    -0.388 C  
BRANCH  34  35
HETATM   35  C   UNL     2     -11.224  12.585  69.740  1.00  0.00    -0.011 C  
HETATM   36  C   UNL     2     -11.896  13.134  70.764  1.00  0.00     0.018 C  
BRANCH  36  37
HETATM   37  C   UNL     2     -13.363  13.451  70.835  1.00  0.00     0.086 C  
BRANCH  37  38
HETATM   38  C   UNL     2     -13.662  14.950  70.770  1.00  0.00    -0.145 C  
BRANCH  38  39
HETATM   39  C   UNL     2     -13.931  15.602  72.118  1.00  0.00    -0.548 C  
HETATM   40  C   UNL     2     -12.741  16.171  72.893  1.00  0.00    -0.417 C  
HETATM   41  O   UNL     2     -12.913  16.230  74.142  1.00  0.00    -0.688 OA 
HETATM   42  O   UNL     2     -11.719  16.593  72.260  1.00  0.00    -0.460 OA 
ENDBRANCH  38  39
ENDBRANCH  37  38
ENDBRANCH  36  37
ENDBRANCH  34  35
ENDBRANCH  31  34
ENDBRANCH  24  25
ENDBRANCH  17  18
ENDBRANCH  16  17
ENDBRANCH   6  16
TORSDOF 9
ENDMDL
MODEL      184
REMARK 921   NORMALIZED FREE ENERGY PREDICTED BY IDOCK:   -4.93 KCAL/MOL
REMARK 922        TOTAL FREE ENERGY PREDICTED BY IDOCK:   -9.44 KCAL/MOL
REMARK 923 INTER-LIGAND FREE ENERGY PREDICTED BY IDOCK:   -7.42 KCAL/MOL
REMARK 924 INTRA-LIGAND FREE ENERGY PREDICTED BY IDOCK:   -2.02 KCAL/MOL
REMARK 927      BINDING AFFINITY PREDICTED BY RF-SCORE:    0.00 PKD
ROOT
HETATM    1  O   UNL     1      -8.234   5.801  73.179  1.00  0.00    -0.117 OA 
HETATM    2  C   UNL     1      -9.004   5.292  72.095  1.00  0.00    -0.129 C  
HETATM    3  H   UNL     1      -7.576   5.179  73.467  1.00  0.00     0.000 HD 
HETATM    4  C   UNL     2      -6.954   8.493  64.375  1.00  0.00    -0.081 C  
HETATM    5  C   UNL     1     -10.082   6.311  71.624  1.00  0.00    -0.188 C  
HETATM    6  C   UNL     2      -7.863   9.208  65.363  1.00  0.00    -0.100 C  
HETATM    7  C   UNL     1      -9.387   7.651  71.257  1.00  0.00    -0.149 C  
HETATM    8  N   UNL     1     -10.709   5.720  70.401  1.00  0.00    -0.295 NA 
HETATM    9  C   UNL     1     -11.247   6.501  72.583  1.00  0.00    -0.249 C  
HETATM   10  H   UNL     1     -12.788   5.435  73.143  1.00  0.00     0.000 HD 
HETATM   11  H   UNL     1      -7.966   8.264  70.026  1.00  0.00     0.000 HD 
HETATM   12  H2  UNL     1     -11.077   4.779  70.547  1.00  0.00     0.000 HD 
HETATM   13  O   UNL     1      -8.390   7.445  70.251  1.00  0.00    -0.130 OA 
HETATM   14  O   UNL     1     -12.060   5.316  72.543  1.00  0.00    -0.062 OA 
HETATM   15  H1  UNL     1     -11.415   6.388  70.092  1.00  0.00     0.000 HD 
ENDROOT
BRANCH   6  16
HETATM   16  C   UNL     2      -8.908   8.296  66.009  1.00  0.00    -0.203 C  
BRANCH  16  17
HETATM   17  C   UNL     2     -10.223   8.982  66.388  1.00  0.00    -0.297 C  
BRANCH  17  18
HETATM   18  C   UNL     2     -10.569   8.938  67.894  1.00  0.00    -0.244 C  
HETATM   19  C   UNL     2     -10.956  10.257  68.600  1.00  0.00    -0.244 C  
HETATM   20  C   UNL     2     -11.460  10.088  70.041  1.00  0.00    -0.310 C  
HETATM   21  O   UNL     2     -12.036  10.833  67.855  1.00  0.00    -0.753 OA 
HETATM   22  C   UNL     2      -9.799  11.216  68.579  1.00  0.00    -0.199 C  
HETATM   23  H   UNL     2     -12.273  11.643  68.288  1.00  0.00     0.000 HD 
HETATM   24  C   UNL     2      -8.672  11.154  69.307  1.00  0.00     0.158 C  
BRANCH  24  25
HETATM   25  C   UNL     2      -7.522  12.133  69.223  1.00  0.00     0.219 C  
HETATM   26  C   UNL     2      -6.148  11.610  69.701  1.00  0.00    -0.117 C  
HETATM   27  C   UNL     2      -5.210  12.690  69.218  1.00  0.00    -0.069 C  
HETATM   28  O   UNL     2      -5.705  10.410  69.074  1.00  0.00    -0.041 OA 
HETATM   29  H   UNL     2      -4.861  10.088  69.367  1.00  0.00     0.000 HD 
HETATM   30  C   UNL     2      -5.715  12.997  67.809  1.00  0.00    -0.134 C  
HETATM   31  C   UNL     2      -7.242  12.717  67.805  1.00  0.00    -0.132 C  
HETATM   32  O   UNL     2      -5.348  14.333  67.502  1.00  0.00    -0.335 OA 
HETATM   33  H   UNL     2      -5.662  14.524  66.626  1.00  0.00     0.000 HD 
BRANCH  31  34
HETATM   34  C   UNL     2      -8.134  13.931  67.459  1.00  0.00    -0.191 C  
BRANCH  34  35
HETATM   35  C   UNL     2      -8.864  14.515  68.646  1.00  0.00    -0.180 C  
HETATM   36  C   UNL     2      -9.975  15.268  68.658  1.00  0.00    -0.216 C  
BRANCH  36  37
HETATM   37  C   UNL     2     -10.787  15.726  67.480  1.00  0.00    -0.315 C  
BRANCH  37  38
HETATM   38  C   UNL     2     -11.584  14.600  66.819  1.00  0.00    -0.370 C  
BRANCH  38  39
HETATM   39  C   UNL     2     -11.236  14.348  65.360  1.00  0.00    -0.335 C  
HETATM   40  C   UNL     2     -11.836  13.117  64.678  1.00  0.00    -0.370 C  
HETATM   41  O   UNL     2     -11.165  12.683  63.701  1.00  0.00    -0.430 OA 
HETATM   42  O   UNL     2     -12.958  12.660  65.074  1.00  0.00    -0.812 OA 
ENDBRANCH  38  39
ENDBRANCH  37  38
ENDBRANCH  36  37
ENDBRANCH  34  35
ENDBRANCH  31  34
ENDBRANCH  24  25
ENDBRANCH  17  18
ENDBRANCH  16  17
ENDBRANCH   6  16
TORSDOF 9
ENDMDL
MODEL      185
REMARK 921   NORMALIZED FREE ENERGY PREDICTED BY IDOCK:   -4.92 KCAL/MOL
REMARK 922        TOTAL FREE ENERGY PREDICTED BY IDOCK:   -9.44 KCAL/MOL
REMARK 923 INTER-LIGAND FREE ENERGY PREDICTED BY IDOCK:   -8.63 KCAL/MOL
REMARK 924 INTRA-LIGAND FREE ENERGY PREDICTED BY IDOCK:   -0.81 KCAL/MOL
REMARK 927      BINDING AFFINITY PREDICTED BY RF-SCORE:    0.00 PKD
ROOT
HETATM    1  O   UNL     1      -7.726  21.235  67.180  1.00  0.00    -0.732 OA 
HETATM    2  C   UNL     1      -8.340  20.183  66.443  1.00  0.00    -0.241 C  
HETATM    3  H   UNL     1      -8.158  22.068  67.033  1.00  0.00     0.000 HD 
HETATM    4  C   UNL     2     -13.369  14.962  71.080  1.00  0.00    -0.480 C  
HETATM    5  C   UNL     1      -7.632  18.818  66.685  1.00  0.00    -0.244 C  
HETATM    6  C   UNL     2     -11.855  14.824  71.012  1.00  0.00    -0.383 C  
HETATM    7  C   UNL     1      -7.616  18.519  68.209  1.00  0.00    -0.287 C  
HETATM    8  N   UNL     1      -8.459  17.789  65.980  1.00  0.00    -0.522 NA 
HETATM    9  C   UNL     1      -6.257  18.688  66.049  1.00  0.00    -0.201 C  
HETATM   10  H   UNL     1      -5.569  18.494  64.228  1.00  0.00     0.000 HD 
HETATM   11  H   UNL     1      -8.935  18.334  69.670  1.00  0.00     0.000 HD 
HETATM   12  H2  UNL     1      -8.612  17.996  64.993  1.00  0.00     0.000 HD 
HETATM   13  O   UNL     1      -8.945  18.517  68.739  1.00  0.00    -0.310 OA 
HETATM   14  O   UNL     1      -6.429  18.576  64.626  1.00  0.00    -0.371 OA 
HETATM   15  H1  UNL     1      -7.996  16.894  66.139  1.00  0.00     0.000 HD 
ENDROOT
BRANCH   6  16
HETATM   16  C   UNL     2     -11.289  14.946  69.596  1.00  0.00    -0.311 C  
BRANCH  16  17
HETATM   17  C   UNL     2      -9.962  14.218  69.363  1.00  0.00     0.163 C  
BRANCH  17  18
HETATM   18  C   UNL     2      -9.999  13.139  68.257  1.00  0.00    -0.236 C  
HETATM   19  C   UNL     2     -11.205  12.172  68.211  1.00  0.00    -0.268 C  
HETATM   20  C   UNL     2     -11.247  11.262  66.975  1.00  0.00    -0.324 C  
HETATM   21  O   UNL     2     -12.388  12.977  68.165  1.00  0.00    -0.105 OA 
HETATM   22  C   UNL     2     -11.246  11.335  69.458  1.00  0.00    -0.337 C  
HETATM   23  H   UNL     2     -13.129  12.384  68.137  1.00  0.00     0.000 HD 
HETATM   24  C   UNL     2     -10.437  10.314  69.785  1.00  0.00    -0.300 C  
BRANCH  24  25
HETATM   25  C   UNL     2     -10.504   9.522  71.071  1.00  0.00    -0.377 C  
HETATM   26  C   UNL     2     -11.896   8.970  71.458  1.00  0.00    -0.345 C  
HETATM   27  C   UNL     2     -11.560   8.018  72.580  1.00  0.00    -0.464 C  
HETATM   28  O   UNL     2     -12.531   8.176  70.460  1.00  0.00    -0.441 OA 
HETATM   29  H   UNL     2     -13.386   7.837  70.697  1.00  0.00     0.000 HD 
HETATM   30  C   UNL     2     -10.315   7.292  72.073  1.00  0.00    -0.192 C  
HETATM   31  C   UNL     2      -9.562   8.281  71.145  1.00  0.00    -0.206 C  
HETATM   32  O   UNL     2      -9.582   6.853  73.206  1.00  0.00    -0.148 OA 
HETATM   33  H   UNL     2      -8.807   6.401  72.890  1.00  0.00     0.000 HD 
BRANCH  31  34
HETATM   34  C   UNL     2      -8.123   8.634  71.585  1.00  0.00    -0.183 C  
BRANCH  34  35
HETATM   35  C   UNL     2      -7.340   9.415  70.555  1.00  0.00    -0.138 C  
HETATM   36  C   UNL     2      -6.766   8.971  69.426  1.00  0.00    -0.048 C  
BRANCH  36  37
HETATM   37  C   UNL     2      -6.758   7.567  68.891  1.00  0.00    -0.049 C  
BRANCH  37  38
HETATM   38  C   UNL     2      -7.522   7.417  67.574  1.00  0.00    -0.100 C  
BRANCH  38  39
HETATM   39  C   UNL     2      -8.779   6.564  67.663  1.00  0.00    -0.114 C  
HETATM   40  C   UNL     2      -8.615   5.046  67.746  1.00  0.00    -0.103 C  
HETATM   41  O   UNL     2      -9.609   4.391  67.323  1.00  0.00    -0.165 OA 
HETATM   42  O   UNL     2      -7.565   4.551  68.270  1.00  0.00    -0.071 OA 
ENDBRANCH  38  39
ENDBRANCH  37  38
ENDBRANCH  36  37
ENDBRANCH  34  35
ENDBRANCH  31  34
ENDBRANCH  24  25
ENDBRANCH  17  18
ENDBRANCH  16  17
ENDBRANCH   6  16
TORSDOF 9
ENDMDL
MODEL      186
REMARK 921   NORMALIZED FREE ENERGY PREDICTED BY IDOCK:   -4.89 KCAL/MOL
REMARK 922        TOTAL FREE ENERGY PREDICTED BY IDOCK:   -9.38 KCAL/MOL
REMARK 923 INTER-LIGAND FREE ENERGY PREDICTED BY IDOCK:   -7.68 KCAL/MOL
REMARK 924 INTRA-LIGAND FREE ENERGY PREDICTED BY IDOCK:   -1.70 KCAL/MOL
REMARK 927      BINDING AFFINITY PREDICTED BY RF-SCORE:    0.00 PKD
ROOT
HETATM    1  O   UNL     1      -6.520  20.624  68.421  1.00  0.00    -0.304 OA 
HETATM    2  C   UNL     1      -7.250  19.722  67.596  1.00  0.00    -0.260 C  
HETATM    3  H   UNL     1      -7.085  21.065  69.046  1.00  0.00     0.000 HD 
HETATM    4  C   UNL     2      -6.379  11.413  69.661  1.00  0.00    -0.127 C  
HETATM    5  C   UNL     1      -6.325  19.000  66.573  1.00  0.00    -0.187 C  
HETATM    6  C   UNL     2      -5.367  12.177  68.822  1.00  0.00    -0.050 C  
HETATM    7  C   UNL     1      -5.181  18.281  67.342  1.00  0.00    -0.138 C  
HETATM    8  N   UNL     1      -7.180  17.984  65.882  1.00  0.00    -0.465 NA 
HETATM    9  C   UNL     1      -5.808  19.879  65.445  1.00  0.00    -0.182 C  
HETATM   10  H   UNL     1      -6.581  20.713  63.854  1.00  0.00     0.000 HD 
HETATM   11  H   UNL     1      -5.017  16.923  68.769  1.00  0.00     0.000 HD 
HETATM   12  H2  UNL     1      -8.020  18.380  65.460  1.00  0.00     0.000 HD 
HETATM   13  O   UNL     1      -5.715  17.362  68.300  1.00  0.00    -0.144 OA 
HETATM   14  O   UNL     1      -6.903  20.164  64.559  1.00  0.00    -0.277 OA 
HETATM   15  H1  UNL     1      -6.574  17.511  65.212  1.00  0.00     0.000 HD 
ENDROOT
BRANCH   6  16
HETATM   16  C   UNL     2      -6.001  13.051  67.738  1.00  0.00    -0.145 C  
BRANCH  16  17
HETATM   17  C   UNL     2      -7.053  14.044  68.239  1.00  0.00    -0.110 C  
BRANCH  17  18
HETATM   18  C   UNL     2      -8.233  14.285  67.268  1.00  0.00    -0.212 C  
HETATM   19  C   UNL     2      -9.643  13.814  67.692  1.00  0.00    -0.219 C  
HETATM   20  C   UNL     2     -10.774  14.259  66.753  1.00  0.00    -0.287 C  
HETATM   21  O   UNL     2      -9.918  14.400  68.969  1.00  0.00    -0.315 OA 
HETATM   22  C   UNL     2      -9.668  12.319  67.840  1.00  0.00    -0.202 C  
HETATM   23  H   UNL     2     -10.783  14.110  69.230  1.00  0.00     0.000 HD 
HETATM   24  C   UNL     2      -9.652  11.399  66.860  1.00  0.00    -0.203 C  
BRANCH  24  25
HETATM   25  C   UNL     2      -9.647   9.901  67.066  1.00  0.00    -0.218 C  
HETATM   26  C   UNL     2      -9.357   9.043  65.813  1.00  0.00    -0.236 C  
HETATM   27  C   UNL     2      -9.136   7.674  66.409  1.00  0.00    -0.214 C  
HETATM   28  O   UNL     2      -8.149   9.361  65.127  1.00  0.00    -0.117 OA 
HETATM   29  H   UNL     2      -7.971   8.834  64.357  1.00  0.00     0.000 HD 
HETATM   30  C   UNL     2      -8.271   7.954  67.637  1.00  0.00    -0.124 C  
HETATM   31  C   UNL     2      -8.642   9.376  68.136  1.00  0.00    -0.120 C  
HETATM   32  O   UNL     2      -8.499   6.910  68.571  1.00  0.00    -0.123 OA 
HETATM   33  H   UNL     2      -7.961   7.084  69.335  1.00  0.00     0.000 HD 
BRANCH  31  34
HETATM   34  C   UNL     2      -9.194   9.446  69.577  1.00  0.00    -0.182 C  
BRANCH  34  35
HETATM   35  C   UNL     2     -10.698   9.580  69.653  1.00  0.00    -0.257 C  
HETATM   36  C   UNL     2     -11.509   9.337  70.694  1.00  0.00    -0.327 C  
BRANCH  36  37
HETATM   37  C   UNL     2     -11.124   8.867  72.067  1.00  0.00    -0.421 C  
BRANCH  37  38
HETATM   38  C   UNL     2     -11.396   7.378  72.296  1.00  0.00    -0.323 C  
BRANCH  38  39
HETATM   39  C   UNL     2     -10.381   6.443  71.657  1.00  0.00    -0.235 C  
HETATM   40  C   UNL     2     -10.721   5.833  70.296  1.00  0.00    -0.309 C  
HETATM   41  O   UNL     2     -10.138   4.738  70.055  1.00  0.00    -0.239 OA 
HETATM   42  O   UNL     2     -11.485   6.463  69.494  1.00  0.00    -0.407 OA 
ENDBRANCH  38  39
ENDBRANCH  37  38
ENDBRANCH  36  37
ENDBRANCH  34  35
ENDBRANCH  31  34
ENDBRANCH  24  25
ENDBRANCH  17  18
ENDBRANCH  16  17
ENDBRANCH   6  16
TORSDOF 9
ENDMDL
MODEL      187
REMARK 921   NORMALIZED FREE ENERGY PREDICTED BY IDOCK:   -4.88 KCAL/MOL
REMARK 922        TOTAL FREE ENERGY PREDICTED BY IDOCK:   -9.37 KCAL/MOL
REMARK 923 INTER-LIGAND FREE ENERGY PREDICTED BY IDOCK:   -6.86 KCAL/MOL
REMARK 924 INTRA-LIGAND FREE ENERGY PREDICTED BY IDOCK:   -2.52 KCAL/MOL
REMARK 927      BINDING AFFINITY PREDICTED BY RF-SCORE:    0.00 PKD
ROOT
HETATM    1  O   UNL     1     -14.319   8.672  73.432  1.00  0.00    -1.033 OA 
HETATM    2  C   UNL     1     -13.943   8.361  72.094  1.00  0.00    -0.364 C  
HETATM    3  H   UNL     1     -15.161   8.294  73.658  1.00  0.00     0.000 HD 
HETATM    4  C   UNL     2      -7.980   2.202  71.348  1.00  0.00    -0.040 C  
HETATM    5  C   UNL     1     -12.564   8.980  71.724  1.00  0.00    -0.367 C  
HETATM    6  C   UNL     2      -7.648   3.655  71.652  1.00  0.00    -0.053 C  
HETATM    7  C   UNL     1     -11.499   8.498  72.748  1.00  0.00    -0.039 C  
HETATM    8  N   UNL     1     -12.223   8.457  70.363  1.00  0.00    -0.349 NA 
HETATM    9  C   UNL     1     -12.565  10.491  71.551  1.00  0.00    -0.424 C  
HETATM   10  H   UNL     1     -13.260  11.747  70.223  1.00  0.00     0.000 HD 
HETATM   11  H   UNL     1     -10.788   6.773  73.404  1.00  0.00     0.000 HD 
HETATM   12  H2  UNL     1     -12.947   8.635  69.667  1.00  0.00     0.000 HD 
HETATM   13  O   UNL     1     -11.438   7.068  72.778  1.00  0.00    -0.250 OA 
HETATM   14  O   UNL     1     -13.259  10.803  70.331  1.00  0.00    -0.158 OA 
HETATM   15  H1  UNL     1     -11.319   8.862  70.121  1.00  0.00     0.000 HD 
ENDROOT
BRANCH   6  16
HETATM   16  C   UNL     2      -8.410   4.655  70.780  1.00  0.00    -0.096 C  
BRANCH  16  17
HETATM   17  C   UNL     2      -8.516   6.070  71.357  1.00  0.00    -0.128 C  
BRANCH  17  18
HETATM   18  C   UNL     2      -7.635   7.127  70.652  1.00  0.00    -0.092 C  
HETATM   19  C   UNL     2      -8.180   7.806  69.374  1.00  0.00    -0.131 C  
HETATM   20  C   UNL     2      -7.323   8.967  68.852  1.00  0.00    -0.074 C  
HETATM   21  O   UNL     2      -9.460   8.359  69.704  1.00  0.00    -0.164 OA 
HETATM   22  C   UNL     2      -8.369   6.787  68.286  1.00  0.00    -0.118 C  
HETATM   23  H   UNL     2      -9.795   8.775  68.919  1.00  0.00     0.000 HD 
HETATM   24  C   UNL     2      -7.415   6.180  67.559  1.00  0.00    -0.082 C  
BRANCH  24  25
HETATM   25  C   UNL     2      -7.659   5.136  66.493  1.00  0.00    -0.088 C  
HETATM   26  C   UNL     2      -8.508   3.916  66.918  1.00  0.00    -0.104 C  
HETATM   27  C   UNL     2      -8.800   3.254  65.594  1.00  0.00    -0.134 C  
HETATM   28  O   UNL     2      -9.780   4.228  67.478  1.00  0.00    -0.178 OA 
HETATM   29  H   UNL     2     -10.302   3.479  67.740  1.00  0.00     0.000 HD 
HETATM   30  C   UNL     2      -9.145   4.426  64.676  1.00  0.00    -0.152 C  
HETATM   31  C   UNL     2      -8.349   5.654  65.194  1.00  0.00    -0.146 C  
HETATM   32  O   UNL     2      -8.846   4.034  63.346  1.00  0.00    -0.101 OA 
HETATM   33  H   UNL     2      -9.060   4.763  62.775  1.00  0.00     0.000 HD 
BRANCH  31  34
HETATM   34  C   UNL     2      -7.359   6.273  64.183  1.00  0.00    -0.071 C  
BRANCH  34  35
HETATM   35  C   UNL     2      -7.989   7.271  63.238  1.00  0.00    -0.074 C  
HETATM   36  C   UNL     2      -8.347   8.541  63.480  1.00  0.00    -0.086 C  
BRANCH  36  37
HETATM   37  C   UNL     2      -8.208   9.306  64.765  1.00  0.00    -0.149 C  
BRANCH  37  38
HETATM   38  C   UNL     2      -9.466  10.090  65.142  1.00  0.00    -0.331 C  
BRANCH  38  39
HETATM   39  C   UNL     2     -10.159   9.608  66.408  1.00  0.00    -0.317 C  
HETATM   40  C   UNL     2     -10.982  10.618  67.208  1.00  0.00    -0.284 C  
HETATM   41  O   UNL     2     -11.103  10.339  68.434  1.00  0.00    -0.253 OA 
HETATM   42  O   UNL     2     -11.529  11.602  66.611  1.00  0.00    -0.423 OA 
ENDBRANCH  38  39
ENDBRANCH  37  38
ENDBRANCH  36  37
ENDBRANCH  34  35
ENDBRANCH  31  34
ENDBRANCH  24  25
ENDBRANCH  17  18
ENDBRANCH  16  17
ENDBRANCH   6  16
TORSDOF 9
ENDMDL
MODEL      188
REMARK 921   NORMALIZED FREE ENERGY PREDICTED BY IDOCK:   -4.88 KCAL/MOL
REMARK 922        TOTAL FREE ENERGY PREDICTED BY IDOCK:   -9.37 KCAL/MOL
REMARK 923 INTER-LIGAND FREE ENERGY PREDICTED BY IDOCK:   -8.76 KCAL/MOL
REMARK 924 INTRA-LIGAND FREE ENERGY PREDICTED BY IDOCK:   -0.61 KCAL/MOL
REMARK 927      BINDING AFFINITY PREDICTED BY RF-SCORE:    0.00 PKD
ROOT
HETATM    1  O   UNL     1     -12.318   9.562  70.184  1.00  0.00    -0.455 OA 
HETATM    2  C   UNL     1     -10.900   9.491  70.289  1.00  0.00    -0.269 C  
HETATM    3  H   UNL     1     -12.618  10.453  70.052  1.00  0.00     0.000 HD 
HETATM    4  C   UNL     2      -6.885   6.589  63.253  1.00  0.00    -0.046 C  
HETATM    5  C   UNL     1     -10.410   8.030  70.505  1.00  0.00    -0.202 C  
HETATM    6  C   UNL     2      -7.525   5.676  64.288  1.00  0.00    -0.073 C  
HETATM    7  C   UNL     1     -10.946   7.138  69.351  1.00  0.00    -0.164 C  
HETATM    8  N   UNL     1      -8.915   8.078  70.447  1.00  0.00    -0.145 NA 
HETATM    9  C   UNL     1     -10.709   7.450  71.879  1.00  0.00    -0.216 C  
HETATM   10  H   UNL     1     -10.037   7.731  73.694  1.00  0.00     0.000 HD 
HETATM   11  H   UNL     1     -10.853   7.102  67.376  1.00  0.00     0.000 HD 
HETATM   12  H2  UNL     1      -8.504   8.745  71.102  1.00  0.00     0.000 HD 
HETATM   13  O   UNL     1     -10.525   7.646  68.081  1.00  0.00    -0.203 OA 
HETATM   14  O   UNL     1      -9.850   8.093  72.835  1.00  0.00    -0.270 OA 
HETATM   15  H1  UNL     1      -8.593   7.121  70.589  1.00  0.00     0.000 HD 
ENDROOT
BRANCH   6  16
HETATM   16  C   UNL     2      -7.212   6.069  65.732  1.00  0.00    -0.075 C  
BRANCH  16  17
HETATM   17  C   UNL     2      -7.345   7.563  66.042  1.00  0.00    -0.081 C  
BRANCH  17  18
HETATM   18  C   UNL     2      -8.543   8.263  65.358  1.00  0.00    -0.176 C  
HETATM   19  C   UNL     2      -8.330   9.677  64.769  1.00  0.00    -0.151 C  
HETATM   20  C   UNL     2      -9.514  10.213  63.952  1.00  0.00    -0.332 C  
HETATM   21  O   UNL     2      -7.217   9.597  63.872  1.00  0.00    -0.105 OA 
HETATM   22  C   UNL     2      -7.990  10.649  65.864  1.00  0.00    -0.157 C  
HETATM   23  H   UNL     2      -7.086  10.466  63.511  1.00  0.00     0.000 HD 
HETATM   24  C   UNL     2      -8.818  11.157  66.793  1.00  0.00    -0.162 C  
BRANCH  24  25
HETATM   25  C   UNL     2      -8.416  12.112  67.894  1.00  0.00    -0.163 C  
HETATM   26  C   UNL     2      -6.900  12.378  68.042  1.00  0.00    -0.089 C  
HETATM   27  C   UNL     2      -6.874  13.553  68.989  1.00  0.00    -0.107 C  
HETATM   28  O   UNL     2      -6.245  12.826  66.859  1.00  0.00    -0.490 OA 
HETATM   29  H   UNL     2      -5.314  12.990  66.950  1.00  0.00     0.000 HD 
HETATM   30  C   UNL     2      -7.990  14.457  68.467  1.00  0.00    -0.144 C  
HETATM   31  C   UNL     2      -9.052  13.533  67.815  1.00  0.00    -0.207 C  
HETATM   32  O   UNL     2      -8.458  15.236  69.557  1.00  0.00    -0.292 OA 
HETATM   33  H   UNL     2      -9.153  15.798  69.232  1.00  0.00     0.000 HD 
BRANCH  31  34
HETATM   34  C   UNL     2     -10.463  13.604  68.441  1.00  0.00    -0.251 C  
BRANCH  34  35
HETATM   35  C   UNL     2     -11.262  12.329  68.302  1.00  0.00    -0.315 C  
HETATM   36  C   UNL     2     -11.862  11.831  67.210  1.00  0.00    -0.186 C  
BRANCH  36  37
HETATM   37  C   UNL     2     -11.890  12.422  65.829  1.00  0.00    -0.467 C  
BRANCH  37  38
HETATM   38  C   UNL     2     -12.546  13.803  65.774  1.00  0.00    -0.525 C  
BRANCH  38  39
HETATM   39  C   UNL     2     -12.127  14.658  64.588  1.00  0.00    -0.466 C  
HETATM   40  C   UNL     2     -11.382  15.963  64.868  1.00  0.00    -0.256 C  
HETATM   41  O   UNL     2     -11.501  16.837  63.964  1.00  0.00    -1.198 OA 
HETATM   42  O   UNL     2     -10.665  16.069  65.916  1.00  0.00    -0.323 OA 
ENDBRANCH  38  39
ENDBRANCH  37  38
ENDBRANCH  36  37
ENDBRANCH  34  35
ENDBRANCH  31  34
ENDBRANCH  24  25
ENDBRANCH  17  18
ENDBRANCH  16  17
ENDBRANCH   6  16
TORSDOF 9
ENDMDL
MODEL      189
REMARK 921   NORMALIZED FREE ENERGY PREDICTED BY IDOCK:   -4.88 KCAL/MOL
REMARK 922        TOTAL FREE ENERGY PREDICTED BY IDOCK:   -9.37 KCAL/MOL
REMARK 923 INTER-LIGAND FREE ENERGY PREDICTED BY IDOCK:   -7.39 KCAL/MOL
REMARK 924 INTRA-LIGAND FREE ENERGY PREDICTED BY IDOCK:   -1.98 KCAL/MOL
REMARK 927      BINDING AFFINITY PREDICTED BY RF-SCORE:    0.00 PKD
ROOT
HETATM    1  O   UNL     1      -8.679   7.103  62.902  1.00  0.00    -0.306 OA 
HETATM    2  C   UNL     1      -7.497   7.618  63.507  1.00  0.00    -0.108 C  
HETATM    3  H   UNL     1      -8.522   6.268  62.477  1.00  0.00     0.000 HD 
HETATM    4  C   UNL     2      -7.135   6.761  72.062  1.00  0.00    -0.075 C  
HETATM    5  C   UNL     1      -7.754   8.986  64.203  1.00  0.00    -0.124 C  
HETATM    6  C   UNL     2      -7.888   7.883  71.364  1.00  0.00    -0.092 C  
HETATM    7  C   UNL     1      -8.904   8.823  65.235  1.00  0.00    -0.162 C  
HETATM    8  N   UNL     1      -6.485   9.336  64.917  1.00  0.00    -0.073 NA 
HETATM    9  C   UNL     1      -7.980  10.154  63.256  1.00  0.00    -0.155 C  
HETATM   10  H   UNL     1      -6.867  11.208  62.042  1.00  0.00     0.000 HD 
HETATM   11  H   UNL     1      -9.289   7.705  66.819  1.00  0.00     0.000 HD 
HETATM   12  H2  UNL     1      -5.665   9.337  64.310  1.00  0.00     0.000 HD 
HETATM   13  O   UNL     1      -8.587   7.804  66.189  1.00  0.00    -0.136 OA 
HETATM   14  O   UNL     1      -6.726  10.478  62.633  1.00  0.00    -0.141 OA 
HETATM   15  H1  UNL     1      -6.654  10.232  65.373  1.00  0.00     0.000 HD 
ENDROOT
BRANCH   6  16
HETATM   16  C   UNL     2      -7.106   8.532  70.221  1.00  0.00    -0.043 C  
BRANCH  16  17
HETATM   17  C   UNL     2      -7.708   9.831  69.678  1.00  0.00    -0.136 C  
BRANCH  17  18
HETATM   18  C   UNL     2      -6.739  10.694  68.836  1.00  0.00    -0.062 C  
HETATM   19  C   UNL     2      -6.619  12.200  69.165  1.00  0.00    -0.106 C  
HETATM   20  C   UNL     2      -5.504  12.933  68.406  1.00  0.00    -0.063 C  
HETATM   21  O   UNL     2      -6.301  12.303  70.558  1.00  0.00    -0.505 OA 
HETATM   22  C   UNL     2      -7.933  12.889  68.925  1.00  0.00     0.182 C  
HETATM   23  H   UNL     2      -6.228  13.228  70.760  1.00  0.00     0.000 HD 
HETATM   24  C   UNL     2      -8.494  13.190  67.742  1.00  0.00    -0.185 C  
BRANCH  24  25
HETATM   25  C   UNL     2      -9.837  13.860  67.557  1.00  0.00    -0.236 C  
HETATM   26  C   UNL     2      -9.804  15.374  67.244  1.00  0.00    -0.217 C  
HETATM   27  C   UNL     2     -11.231  15.647  66.836  1.00  0.00    -0.106 C  
HETATM   28  O   UNL     2      -9.009  15.744  66.121  1.00  0.00    -0.320 OA 
HETATM   29  H   UNL     2      -8.988  16.674  65.929  1.00  0.00     0.000 HD 
HETATM   30  C   UNL     2     -11.580  14.460  65.940  1.00  0.00    -0.361 C  
HETATM   31  C   UNL     2     -10.740  13.254  66.439  1.00  0.00    -0.291 C  
HETATM   32  O   UNL     2     -12.986  14.277  65.994  1.00  0.00    -0.470 OA 
HETATM   33  H   UNL     2     -13.203  13.538  65.437  1.00  0.00     0.000 HD 
BRANCH  31  34
HETATM   34  C   UNL     2     -11.557  12.031  66.912  1.00  0.00    -0.389 C  
BRANCH  34  35
HETATM   35  C   UNL     2     -10.833  11.157  67.910  1.00  0.00    -0.285 C  
HETATM   36  C   UNL     2     -11.241  10.759  69.125  1.00  0.00    -0.323 C  
BRANCH  36  37
HETATM   37  C   UNL     2     -12.538  11.082  69.810  1.00  0.00    -0.151 C  
BRANCH  37  38
HETATM   38  C   UNL     2     -12.603  10.580  71.253  1.00  0.00    -0.531 C  
BRANCH  38  39
HETATM   39  C   UNL     2     -11.515   9.585  71.628  1.00  0.00    -0.433 C  
HETATM   40  C   UNL     2     -11.939   8.176  72.044  1.00  0.00    -0.340 C  
HETATM   41  O   UNL     2     -11.114   7.582  72.793  1.00  0.00    -0.312 OA 
HETATM   42  O   UNL     2     -13.018   7.679  71.582  1.00  0.00    -0.334 OA 
ENDBRANCH  38  39
ENDBRANCH  37  38
ENDBRANCH  36  37
ENDBRANCH  34  35
ENDBRANCH  31  34
ENDBRANCH  24  25
ENDBRANCH  17  18
ENDBRANCH  16  17
ENDBRANCH   6  16
TORSDOF 9
ENDMDL
MODEL      190
REMARK 921   NORMALIZED FREE ENERGY PREDICTED BY IDOCK:   -4.87 KCAL/MOL
REMARK 922        TOTAL FREE ENERGY PREDICTED BY IDOCK:   -9.36 KCAL/MOL
REMARK 923 INTER-LIGAND FREE ENERGY PREDICTED BY IDOCK:   -6.93 KCAL/MOL
REMARK 924 INTRA-LIGAND FREE ENERGY PREDICTED BY IDOCK:   -2.43 KCAL/MOL
REMARK 927      BINDING AFFINITY PREDICTED BY RF-SCORE:    0.00 PKD
ROOT
HETATM    1  O   UNL     1      -5.581  10.145  64.374  1.00  0.00    -0.096 OA 
HETATM    2  C   UNL     1      -6.935  10.279  63.954  1.00  0.00    -0.055 C  
HETATM    3  H   UNL     1      -5.001  10.714  63.882  1.00  0.00     0.000 HD 
HETATM    4  C   UNL     2     -11.925  14.897  69.229  1.00  0.00    -0.326 C  
HETATM    5  C   UNL     1      -7.884   9.347  64.761  1.00  0.00    -0.118 C  
HETATM    6  C   UNL     2     -11.599  13.429  69.457  1.00  0.00    -0.352 C  
HETATM    7  C   UNL     1      -7.720   9.644  66.277  1.00  0.00    -0.101 C  
HETATM    8  N   UNL     1      -9.275   9.693  64.329  1.00  0.00    -0.385 NA 
HETATM    9  C   UNL     1      -7.755   7.866  64.439  1.00  0.00    -0.123 C  
HETATM   10  H   UNL     1      -8.231   6.714  62.931  1.00  0.00     0.000 HD 
HETATM   11  H   UNL     1      -7.885  11.204  67.480  1.00  0.00     0.000 HD 
HETATM   12  H2  UNL     1      -9.413   9.638  63.320  1.00  0.00     0.000 HD 
HETATM   13  O   UNL     1      -7.985  11.023  66.554  1.00  0.00    -0.149 OA 
HETATM   14  O   UNL     1      -8.312   7.640  63.133  1.00  0.00    -0.040 OA 
HETATM   15  H1  UNL     1      -9.898   9.083  64.858  1.00  0.00     0.000 HD 
ENDROOT
BRANCH   6  16
HETATM   16  C   UNL     2     -11.712  12.570  68.197  1.00  0.00    -0.400 C  
BRANCH  16  17
HETATM   17  C   UNL     2     -11.241  11.121  68.353  1.00  0.00    -0.325 C  
BRANCH  17  18
HETATM   18  C   UNL     2     -11.465  10.514  69.758  1.00  0.00    -0.365 C  
HETATM   19  C   UNL     2     -10.387   9.566  70.331  1.00  0.00    -0.276 C  
HETATM   20  C   UNL     2     -10.605   9.161  71.796  1.00  0.00    -0.383 C  
HETATM   21  O   UNL     2      -9.140  10.268  70.282  1.00  0.00    -0.317 OA 
HETATM   22  C   UNL     2     -10.273   8.334  69.478  1.00  0.00    -0.210 C  
HETATM   23  H   UNL     2      -8.477   9.685  70.633  1.00  0.00     0.000 HD 
HETATM   24  C   UNL     2     -11.139   7.308  69.402  1.00  0.00    -0.092 C  
BRANCH  24  25
HETATM   25  C   UNL     2     -10.989   6.103  68.501  1.00  0.00    -0.404 C  
HETATM   26  C   UNL     2     -11.146   6.364  66.985  1.00  0.00    -0.329 C  
HETATM   27  C   UNL     2     -10.658   5.068  66.386  1.00  0.00    -0.317 C  
HETATM   28  O   UNL     2     -10.295   7.375  66.453  1.00  0.00    -0.487 OA 
HETATM   29  H   UNL     2     -10.391   7.536  65.522  1.00  0.00     0.000 HD 
HETATM   30  C   UNL     2      -9.413   4.740  67.209  1.00  0.00    -0.146 C  
HETATM   31  C   UNL     2      -9.636   5.338  68.624  1.00  0.00    -0.183 C  
HETATM   32  O   UNL     2      -9.230   3.333  67.173  1.00  0.00    -0.165 OA 
HETATM   33  H   UNL     2      -8.456   3.130  67.685  1.00  0.00     0.000 HD 
BRANCH  31  34
HETATM   34  C   UNL     2      -9.617   4.316  69.783  1.00  0.00    -0.279 C  
BRANCH  34  35
HETATM   35  C   UNL     2      -9.377   4.933  71.142  1.00  0.00    -0.204 C  
HETATM   36  C   UNL     2      -8.456   4.602  72.060  1.00  0.00    -0.119 C  
BRANCH  36  37
HETATM   37  C   UNL     2      -7.416   3.523  71.970  1.00  0.00    -0.056 C  
BRANCH  37  38
HETATM   38  C   UNL     2      -6.049   4.037  71.513  1.00  0.00    -0.014 C  
BRANCH  38  39
HETATM   39  C   UNL     2      -5.666   3.645  70.094  1.00  0.00    -0.017 C  
HETATM   40  C   UNL     2      -6.117   4.552  68.949  1.00  0.00    -0.030 C  
HETATM   41  O   UNL     2      -6.226   3.970  67.834  1.00  0.00    -0.034 OA 
HETATM   42  O   UNL     2      -6.289   5.797  69.159  1.00  0.00    -0.037 OA 
ENDBRANCH  38  39
ENDBRANCH  37  38
ENDBRANCH  36  37
ENDBRANCH  34  35
ENDBRANCH  31  34
ENDBRANCH  24  25
ENDBRANCH  17  18
ENDBRANCH  16  17
ENDBRANCH   6  16
TORSDOF 9
ENDMDL
MODEL      191
REMARK 921   NORMALIZED FREE ENERGY PREDICTED BY IDOCK:   -4.86 KCAL/MOL
REMARK 922        TOTAL FREE ENERGY PREDICTED BY IDOCK:   -9.35 KCAL/MOL
REMARK 923 INTER-LIGAND FREE ENERGY PREDICTED BY IDOCK:   -7.62 KCAL/MOL
REMARK 924 INTRA-LIGAND FREE ENERGY PREDICTED BY IDOCK:   -1.73 KCAL/MOL
REMARK 927      BINDING AFFINITY PREDICTED BY RF-SCORE:    0.00 PKD
ROOT
HETATM    1  O   UNL     1     -10.377  18.206  69.518  1.00  0.00    -0.344 OA 
HETATM    2  C   UNL     1     -10.654  17.133  68.623  1.00  0.00    -0.352 C  
HETATM    3  H   UNL     1     -11.125  18.409  70.067  1.00  0.00     0.000 HD 
HETATM    4  C   UNL     2      -7.225   9.567  70.868  1.00  0.00    -0.063 C  
HETATM    5  C   UNL     1      -9.428  16.802  67.723  1.00  0.00    -0.228 C  
HETATM    6  C   UNL     2      -6.448  10.655  70.143  1.00  0.00    -0.152 C  
HETATM    7  C   UNL     1      -8.202  16.495  68.627  1.00  0.00    -0.234 C  
HETATM    8  N   UNL     1      -9.799  15.576  66.948  1.00  0.00    -0.233 NA 
HETATM    9  C   UNL     1      -9.120  17.838  66.653  1.00  0.00    -0.266 C  
HETATM   10  H   UNL     1      -9.948  18.404  64.973  1.00  0.00     0.000 HD 
HETATM   11  H   UNL     1      -7.744  15.234  70.079  1.00  0.00     0.000 HD 
HETATM   12  H2  UNL     1     -10.671  15.673  66.427  1.00  0.00     0.000 HD 
HETATM   13  O   UNL     1      -8.493  15.421  69.527  1.00  0.00    -0.256 OA 
HETATM   14  O   UNL     1     -10.140  17.757  65.642  1.00  0.00    -0.570 OA 
HETATM   15  H1  UNL     1      -8.996  15.358  66.358  1.00  0.00     0.000 HD 
ENDROOT
BRANCH   6  16
HETATM   16  C   UNL     2      -7.217  11.291  68.983  1.00  0.00    -0.119 C  
BRANCH  16  17
HETATM   17  C   UNL     2      -8.312  10.412  68.372  1.00  0.00    -0.119 C  
BRANCH  17  18
HETATM   18  C   UNL     2      -8.234  10.252  66.836  1.00  0.00    -0.123 C  
HETATM   19  C   UNL     2      -9.492   9.763  66.082  1.00  0.00    -0.205 C  
HETATM   20  C   UNL     2      -9.379   9.812  64.551  1.00  0.00    -0.298 C  
HETATM   21  O   UNL     2     -10.566  10.641  66.440  1.00  0.00    -0.233 OA 
HETATM   22  C   UNL     2      -9.850   8.370  66.518  1.00  0.00    -0.338 C  
HETATM   23  H   UNL     2     -11.339  10.340  65.977  1.00  0.00     0.000 HD 
HETATM   24  C   UNL     2      -9.216   7.227  66.207  1.00  0.00    -0.175 C  
BRANCH  24  25
HETATM   25  C   UNL     2      -9.603   5.851  66.700  1.00  0.00    -0.174 C  
HETATM   26  C   UNL     2      -9.273   4.673  65.754  1.00  0.00    -0.147 C  
HETATM   27  C   UNL     2      -9.502   3.476  66.645  1.00  0.00    -0.179 C  
HETATM   28  O   UNL     2      -7.911   4.588  65.344  1.00  0.00    -0.096 OA 
HETATM   29  H   UNL     2      -7.708   3.865  64.763  1.00  0.00     0.000 HD 
HETATM   30  C   UNL     2      -8.863   3.888  67.970  1.00  0.00    -0.111 C  
HETATM   31  C   UNL     2      -8.986   5.432  68.069  1.00  0.00    -0.110 C  
HETATM   32  O   UNL     2      -9.513   3.166  69.005  1.00  0.00    -0.163 OA 
HETATM   33  H   UNL     2      -9.115   3.423  69.829  1.00  0.00     0.000 HD 
BRANCH  31  34
HETATM   34  C   UNL     2      -9.787   5.954  69.283  1.00  0.00    -0.205 C  
BRANCH  34  35
HETATM   35  C   UNL     2      -8.925   6.404  70.441  1.00  0.00    -0.155 C  
HETATM   36  C   UNL     2      -9.039   6.091  71.741  1.00  0.00    -0.148 C  
BRANCH  36  37
HETATM   37  C   UNL     2     -10.064   5.202  72.384  1.00  0.00    -0.233 C  
BRANCH  37  38
HETATM   38  C   UNL     2     -11.258   5.968  72.956  1.00  0.00    -0.232 C  
BRANCH  38  39
HETATM   39  C   UNL     2     -11.211   7.473  72.735  1.00  0.00    -0.403 C  
HETATM   40  C   UNL     2     -12.195   8.085  71.737  1.00  0.00    -0.316 C  
HETATM   41  O   UNL     2     -11.810   9.174  71.226  1.00  0.00    -0.288 OA 
HETATM   42  O   UNL     2     -13.321   7.524  71.535  1.00  0.00    -0.356 OA 
ENDBRANCH  38  39
ENDBRANCH  37  38
ENDBRANCH  36  37
ENDBRANCH  34  35
ENDBRANCH  31  34
ENDBRANCH  24  25
ENDBRANCH  17  18
ENDBRANCH  16  17
ENDBRANCH   6  16
TORSDOF 9
ENDMDL
MODEL      192
REMARK 921   NORMALIZED FREE ENERGY PREDICTED BY IDOCK:   -4.85 KCAL/MOL
REMARK 922        TOTAL FREE ENERGY PREDICTED BY IDOCK:   -9.33 KCAL/MOL
REMARK 923 INTER-LIGAND FREE ENERGY PREDICTED BY IDOCK:   -7.34 KCAL/MOL
REMARK 924 INTRA-LIGAND FREE ENERGY PREDICTED BY IDOCK:   -1.99 KCAL/MOL
REMARK 927      BINDING AFFINITY PREDICTED BY RF-SCORE:    0.00 PKD
ROOT
HETATM    1  O   UNL     1     -12.441   6.714  71.612  1.00  0.00    -0.352 OA 
HETATM    2  C   UNL     1     -12.883   7.742  70.732  1.00  0.00     0.194 C  
HETATM    3  H   UNL     1     -12.866   5.885  71.427  1.00  0.00     0.000 HD 
HETATM    4  C   UNL     2      -7.361   9.758  64.447  1.00  0.00    -0.132 C  
HETATM    5  C   UNL     1     -12.185   9.100  71.034  1.00  0.00    -0.242 C  
HETATM    6  C   UNL     2      -7.252  10.302  65.863  1.00  0.00    -0.131 C  
HETATM    7  C   UNL     1     -10.645   8.906  70.964  1.00  0.00    -0.247 C  
HETATM    8  N   UNL     1     -12.621  10.043  69.956  1.00  0.00    -0.503 NA 
HETATM    9  C   UNL     1     -12.631   9.777  72.321  1.00  0.00    -0.184 C  
HETATM   10  H   UNL     1     -14.244  10.698  72.932  1.00  0.00     0.000 HD 
HETATM   11  H   UNL     1      -9.316   8.276  69.643  1.00  0.00     0.000 HD 
HETATM   12  H2  UNL     1     -13.635  10.118  69.868  1.00  0.00     0.000 HD 
HETATM   13  O   UNL     1     -10.257   8.395  69.685  1.00  0.00    -0.199 OA 
HETATM   14  O   UNL     1     -13.965  10.275  72.128  1.00  0.00    -0.052 OA 
HETATM   15  H1  UNL     1     -12.164  10.932  70.154  1.00  0.00     0.000 HD 
ENDROOT
BRANCH   6  16
HETATM   16  C   UNL     2      -8.585  10.778  66.444  1.00  0.00    -0.159 C  
BRANCH  16  17
HETATM   17  C   UNL     2      -9.471  11.565  65.474  1.00  0.00    -0.234 C  
BRANCH  17  18
HETATM   18  C   UNL     2     -10.735  12.190  66.110  1.00  0.00    -0.307 C  
HETATM   19  C   UNL     2     -11.379  13.413  65.417  1.00  0.00    -0.291 C  
HETATM   20  C   UNL     2     -12.727  13.847  66.012  1.00  0.00    -0.410 C  
HETATM   21  O   UNL     2     -11.634  13.041  64.058  1.00  0.00    -0.379 OA 
HETATM   22  C   UNL     2     -10.426  14.574  65.423  1.00  0.00    -0.399 C  
HETATM   23  H   UNL     2     -12.030  13.792  63.632  1.00  0.00     0.000 HD 
HETATM   24  C   UNL     2     -10.082  15.345  66.468  1.00  0.00    -0.282 C  
BRANCH  24  25
HETATM   25  C   UNL     2      -9.091  16.487  66.424  1.00  0.00    -0.332 C  
HETATM   26  C   UNL     2      -9.677  17.884  66.115  1.00  0.00    -0.216 C  
HETATM   27  C   UNL     2      -8.517  18.794  66.434  1.00  0.00    -0.296 C  
HETATM   28  O   UNL     2     -10.737  18.300  66.971  1.00  0.00    -0.370 OA 
HETATM   29  H   UNL     2     -11.097  19.158  66.781  1.00  0.00     0.000 HD 
HETATM   30  C   UNL     2      -7.962  18.222  67.738  1.00  0.00    -0.245 C  
HETATM   31  C   UNL     2      -8.254  16.698  67.723  1.00  0.00    -0.184 C  
HETATM   32  O   UNL     2      -6.588  18.570  67.812  1.00  0.00    -0.209 OA 
HETATM   33  H   UNL     2      -6.244  18.214  68.622  1.00  0.00     0.000 HD 
BRANCH  31  34
HETATM   34  C   UNL     2      -7.009  15.787  67.800  1.00  0.00    -0.173 C  
BRANCH  34  35
HETATM   35  C   UNL     2      -6.659  15.341  69.201  1.00  0.00    -0.130 C  
HETATM   36  C   UNL     2      -6.567  14.093  69.685  1.00  0.00    -0.120 C  
BRANCH  36  37
HETATM   37  C   UNL     2      -6.788  12.804  68.946  1.00  0.00    -0.096 C  
BRANCH  37  38
HETATM   38  C   UNL     2      -5.588  11.857  69.008  1.00  0.00    -0.051 C  
BRANCH  38  39
HETATM   39  C   UNL     2      -5.571  10.932  70.216  1.00  0.00    -0.089 C  
HETATM   40  C   UNL     2      -6.675   9.881  70.335  1.00  0.00    -0.136 C  
HETATM   41  O   UNL     2      -6.915   9.508  71.517  1.00  0.00    -0.319 OA 
HETATM   42  O   UNL     2      -7.220   9.415  69.281  1.00  0.00    -0.062 OA 
ENDBRANCH  38  39
ENDBRANCH  37  38
ENDBRANCH  36  37
ENDBRANCH  34  35
ENDBRANCH  31  34
ENDBRANCH  24  25
ENDBRANCH  17  18
ENDBRANCH  16  17
ENDBRANCH   6  16
TORSDOF 9
ENDMDL
MODEL      193
REMARK 921   NORMALIZED FREE ENERGY PREDICTED BY IDOCK:   -4.84 KCAL/MOL
REMARK 922        TOTAL FREE ENERGY PREDICTED BY IDOCK:   -9.31 KCAL/MOL
REMARK 923 INTER-LIGAND FREE ENERGY PREDICTED BY IDOCK:   -8.04 KCAL/MOL
REMARK 924 INTRA-LIGAND FREE ENERGY PREDICTED BY IDOCK:   -1.27 KCAL/MOL
REMARK 927      BINDING AFFINITY PREDICTED BY RF-SCORE:    0.00 PKD
ROOT
HETATM    1  O   UNL     1      -5.517  18.404  66.314  1.00  0.00    -0.136 OA 
HETATM    2  C   UNL     1      -6.212  17.697  67.336  1.00  0.00    -0.147 C  
HETATM    3  H   UNL     1      -4.664  18.024  66.141  1.00  0.00     0.000 HD 
HETATM    4  C   UNL     2     -12.455  12.481  64.529  1.00  0.00    -0.539 C  
HETATM    5  C   UNL     1      -7.611  18.319  67.618  1.00  0.00    -0.220 C  
HETATM    6  C   UNL     2     -12.639  13.979  64.721  1.00  0.00    -0.326 C  
HETATM    7  C   UNL     1      -8.423  18.365  66.295  1.00  0.00    -0.196 C  
HETATM    8  N   UNL     1      -8.287  17.403  68.590  1.00  0.00    -0.275 NA 
HETATM    9  C   UNL     1      -7.582  19.662  68.332  1.00  0.00    -0.327 C  
HETATM   10  H   UNL     1      -7.165  20.277  70.141  1.00  0.00     0.000 HD 
HETATM   11  H   UNL     1      -9.037  17.083  64.920  1.00  0.00     0.000 HD 
HETATM   12  H2  UNL     1      -7.740  17.233  69.435  1.00  0.00     0.000 HD 
HETATM   13  O   UNL     1      -8.541  17.056  65.728  1.00  0.00    -0.517 OA 
HETATM   14  O   UNL     1      -7.183  19.438  69.695  1.00  0.00    -0.230 OA 
HETATM   15  H1  UNL     1      -9.203  17.811  68.776  1.00  0.00     0.000 HD 
ENDROOT
BRANCH   6  16
HETATM   16  C   UNL     2     -12.061  14.507  66.035  1.00  0.00    -0.298 C  
BRANCH  16  17
HETATM   17  C   UNL     2     -11.873  13.453  67.130  1.00  0.00    -0.429 C  
BRANCH  17  18
HETATM   18  C   UNL     2     -10.494  13.481  67.828  1.00  0.00    -0.242 C  
HETATM   19  C   UNL     2      -9.229  13.252  66.969  1.00  0.00    -0.237 C  
HETATM   20  C   UNL     2      -7.903  13.481  67.710  1.00  0.00    -0.167 C  
HETATM   21  O   UNL     2      -9.268  14.204  65.899  1.00  0.00    -0.512 OA 
HETATM   22  C   UNL     2      -9.246  11.871  66.378  1.00  0.00    -0.218 C  
HETATM   23  H   UNL     2      -8.492  14.063  65.371  1.00  0.00     0.000 HD 
HETATM   24  C   UNL     2      -9.028  10.707  67.013  1.00  0.00    -0.145 C  
BRANCH  24  25
HETATM   25  C   UNL     2      -9.088   9.338  66.373  1.00  0.00    -0.200 C  
HETATM   26  C   UNL     2      -7.957   9.005  65.372  1.00  0.00    -0.111 C  
HETATM   27  C   UNL     2      -8.142   7.522  65.164  1.00  0.00    -0.130 C  
HETATM   28  O   UNL     2      -6.635   9.158  65.879  1.00  0.00    -0.069 OA 
HETATM   29  H   UNL     2      -5.940   8.954  65.265  1.00  0.00     0.000 HD 
HETATM   30  C   UNL     2      -8.401   6.992  66.574  1.00  0.00    -0.121 C  
HETATM   31  C   UNL     2      -9.092   8.135  67.365  1.00  0.00    -0.148 C  
HETATM   32  O   UNL     2      -9.160   5.799  66.453  1.00  0.00    -0.138 OA 
HETATM   33  H   UNL     2      -9.321   5.470  67.330  1.00  0.00     0.000 HD 
BRANCH  31  34
HETATM   34  C   UNL     2     -10.498   7.801  67.912  1.00  0.00    -0.263 C  
BRANCH  34  35
HETATM   35  C   UNL     2     -10.724   8.249  69.338  1.00  0.00    -0.160 C  
HETATM   36  C   UNL     2     -10.949   7.496  70.427  1.00  0.00    -0.264 C  
BRANCH  36  37
HETATM   37  C   UNL     2     -11.031   5.999  70.506  1.00  0.00    -0.388 C  
BRANCH  37  38
HETATM   38  C   UNL     2      -9.958   5.288  69.679  1.00  0.00    -0.302 C  
BRANCH  38  39
HETATM   39  C   UNL     2      -9.594   3.897  70.174  1.00  0.00    -0.267 C  
HETATM   40  C   UNL     2      -9.107   2.872  69.148  1.00  0.00    -0.135 C  
HETATM   41  O   UNL     2      -9.299   1.669  69.482  1.00  0.00    -0.100 OA 
HETATM   42  O   UNL     2      -8.507   3.267  68.096  1.00  0.00    -0.081 OA 
ENDBRANCH  38  39
ENDBRANCH  37  38
ENDBRANCH  36  37
ENDBRANCH  34  35
ENDBRANCH  31  34
ENDBRANCH  24  25
ENDBRANCH  17  18
ENDBRANCH  16  17
ENDBRANCH   6  16
TORSDOF 9
ENDMDL
MODEL      194
REMARK 921   NORMALIZED FREE ENERGY PREDICTED BY IDOCK:   -4.82 KCAL/MOL
REMARK 922        TOTAL FREE ENERGY PREDICTED BY IDOCK:   -9.28 KCAL/MOL
REMARK 923 INTER-LIGAND FREE ENERGY PREDICTED BY IDOCK:   -7.97 KCAL/MOL
REMARK 924 INTRA-LIGAND FREE ENERGY PREDICTED BY IDOCK:   -1.31 KCAL/MOL
REMARK 927      BINDING AFFINITY PREDICTED BY RF-SCORE:    0.00 PKD
ROOT
HETATM    1  O   UNL     1      -6.649  19.634  65.291  1.00  0.00    -0.261 OA 
HETATM    2  C   UNL     1      -6.722  18.632  66.299  1.00  0.00    -0.219 C  
HETATM    3  H   UNL     1      -5.904  19.503  64.716  1.00  0.00     0.000 HD 
HETATM    4  C   UNL     2     -12.676  12.566  64.953  1.00  0.00    -0.371 C  
HETATM    5  C   UNL     1      -7.943  18.848  67.240  1.00  0.00    -0.246 C  
HETATM    6  C   UNL     2     -12.989  13.927  65.556  1.00  0.00    -0.375 C  
HETATM    7  C   UNL     1      -9.239  18.900  66.386  1.00  0.00    -0.313 C  
HETATM    8  N   UNL     1      -7.987  17.657  68.146  1.00  0.00    -0.247 NA 
HETATM    9  C   UNL     1      -7.819  20.031  68.188  1.00  0.00    -0.227 C  
HETATM   10  H   UNL     1      -6.769  20.440  69.786  1.00  0.00     0.000 HD 
HETATM   11  H   UNL     1     -10.176  17.737  65.090  1.00  0.00     0.000 HD 
HETATM   12  H2  UNL     1      -7.113  17.495  68.647  1.00  0.00     0.000 HD 
HETATM   13  O   UNL     1      -9.384  17.705  65.612  1.00  0.00    -0.435 OA 
HETATM   14  O   UNL     1      -6.846  19.701  69.194  1.00  0.00    -0.324 OA 
HETATM   15  H1  UNL     1      -8.787  17.798  68.763  1.00  0.00     0.000 HD 
ENDROOT
BRANCH   6  16
HETATM   16  C   UNL     2     -11.993  14.368  66.630  1.00  0.00    -0.414 C  
BRANCH  16  17
HETATM   17  C   UNL     2     -11.490  13.249  67.547  1.00  0.00    -0.361 C  
BRANCH  17  18
HETATM   18  C   UNL     2     -10.045  13.435  68.066  1.00  0.00    -0.241 C  
HETATM   19  C   UNL     2      -8.896  13.505  67.034  1.00  0.00    -0.211 C  
HETATM   20  C   UNL     2      -7.528  13.874  67.626  1.00  0.00    -0.187 C  
HETATM   21  O   UNL     2      -9.230  14.537  66.100  1.00  0.00    -0.455 OA 
HETATM   22  C   UNL     2      -8.790  12.205  66.288  1.00  0.00    -0.040 C  
HETATM   23  H   UNL     2      -8.524  14.580  65.466  1.00  0.00     0.000 HD 
HETATM   24  C   UNL     2      -8.311  11.035  66.746  1.00  0.00    -0.147 C  
BRANCH  24  25
HETATM   25  C   UNL     2      -8.255   9.745  65.959  1.00  0.00    -0.117 C  
HETATM   26  C   UNL     2      -7.739   9.858  64.506  1.00  0.00    -0.142 C  
HETATM   27  C   UNL     2      -7.533   8.411  64.128  1.00  0.00    -0.114 C  
HETATM   28  O   UNL     2      -6.463  10.475  64.362  1.00  0.00    -0.319 OA 
HETATM   29  H   UNL     2      -6.146  10.545  63.470  1.00  0.00     0.000 HD 
HETATM   30  C   UNL     2      -6.873   7.808  65.368  1.00  0.00    -0.048 C  
HETATM   31  C   UNL     2      -7.390   8.612  66.590  1.00  0.00    -0.081 C  
HETATM   32  O   UNL     2      -7.178   6.422  65.387  1.00  0.00    -0.066 OA 
HETATM   33  H   UNL     2      -6.767   6.048  66.158  1.00  0.00     0.000 HD 
BRANCH  31  34
HETATM   34  C   UNL     2      -8.150   7.784  67.651  1.00  0.00    -0.124 C  
BRANCH  34  35
HETATM   35  C   UNL     2      -7.932   8.257  69.071  1.00  0.00    -0.112 C  
HETATM   36  C   UNL     2      -8.381   7.713  70.212  1.00  0.00    -0.132 C  
BRANCH  36  37
HETATM   37  C   UNL     2      -9.223   6.479  70.372  1.00  0.00    -0.156 C  
BRANCH  37  38
HETATM   38  C   UNL     2     -10.687   6.691  69.982  1.00  0.00    -0.287 C  
BRANCH  38  39
HETATM   39  C   UNL     2     -11.597   7.100  71.131  1.00  0.00    -0.336 C  
HETATM   40  C   UNL     2     -11.705   8.587  71.470  1.00  0.00    -0.297 C  
HETATM   41  O   UNL     2     -12.032   8.827  72.666  1.00  0.00    -0.298 OA 
HETATM   42  O   UNL     2     -11.530   9.458  70.556  1.00  0.00    -0.263 OA 
ENDBRANCH  38  39
ENDBRANCH  37  38
ENDBRANCH  36  37
ENDBRANCH  34  35
ENDBRANCH  31  34
ENDBRANCH  24  25
ENDBRANCH  17  18
ENDBRANCH  16  17
ENDBRANCH   6  16
TORSDOF 9
ENDMDL
MODEL      195
REMARK 921   NORMALIZED FREE ENERGY PREDICTED BY IDOCK:   -4.80 KCAL/MOL
REMARK 922        TOTAL FREE ENERGY PREDICTED BY IDOCK:   -9.25 KCAL/MOL
REMARK 923 INTER-LIGAND FREE ENERGY PREDICTED BY IDOCK:   -7.92 KCAL/MOL
REMARK 924 INTRA-LIGAND FREE ENERGY PREDICTED BY IDOCK:   -1.33 KCAL/MOL
REMARK 927      BINDING AFFINITY PREDICTED BY RF-SCORE:    0.00 PKD
ROOT
HETATM    1  O   UNL     1      -7.447  18.508  69.062  1.00  0.00    -0.281 OA 
HETATM    2  C   UNL     1      -8.807  18.434  68.645  1.00  0.00    -0.283 C  
HETATM    3  H   UNL     1      -7.357  18.362  69.996  1.00  0.00     0.000 HD 
HETATM    4  C   UNL     2     -10.982  11.127  64.655  1.00  0.00    -0.238 C  
HETATM    5  C   UNL     1      -8.954  18.672  67.114  1.00  0.00    -0.281 C  
HETATM    6  C   UNL     2     -10.290  12.288  63.956  1.00  0.00    -0.423 C  
HETATM    7  C   UNL     1      -8.063  17.652  66.353  1.00  0.00    -0.267 C  
HETATM    8  N   UNL     1     -10.393  18.421  66.789  1.00  0.00    -0.378 NA 
HETATM    9  C   UNL     1      -8.717  20.105  66.662  1.00  0.00    -0.286 C  
HETATM   10  H   UNL     1      -9.683  21.799  66.816  1.00  0.00     0.000 HD 
HETATM   11  H   UNL     1      -7.869  15.687  66.243  1.00  0.00     0.000 HD 
HETATM   12  H2  UNL     1     -11.040  18.976  67.350  1.00  0.00     0.000 HD 
HETATM   13  O   UNL     1      -8.414  16.311  66.708  1.00  0.00    -0.196 OA 
HETATM   14  O   UNL     1      -9.831  20.904  67.098  1.00  0.00    -0.416 OA 
HETATM   15  H1  UNL     1     -10.490  18.576  65.786  1.00  0.00     0.000 HD 
ENDROOT
BRANCH   6  16
HETATM   16  C   UNL     2     -10.887  13.655  64.297  1.00  0.00    -0.297 C  
BRANCH  16  17
HETATM   17  C   UNL     2     -10.572  14.167  65.706  1.00  0.00    -0.306 C  
BRANCH  17  18
HETATM   18  C   UNL     2     -11.402  13.512  66.835  1.00  0.00    -0.350 C  
HETATM   19  C   UNL     2     -10.747  13.341  68.225  1.00  0.00    -0.252 C  
HETATM   20  C   UNL     2     -11.701  12.856  69.326  1.00  0.00    -0.378 C  
HETATM   21  O   UNL     2     -10.277  14.631  68.632  1.00  0.00    -0.230 OA 
HETATM   22  C   UNL     2      -9.568  12.413  68.132  1.00  0.00    -0.218 C  
HETATM   23  H   UNL     2      -9.874  14.526  69.485  1.00  0.00     0.000 HD 
HETATM   24  C   UNL     2      -9.588  11.079  67.974  1.00  0.00    -0.175 C  
BRANCH  24  25
HETATM   25  C   UNL     2      -8.368  10.194  67.856  1.00  0.00    -0.117 C  
HETATM   26  C   UNL     2      -7.174  10.557  68.769  1.00  0.00    -0.084 C  
HETATM   27  C   UNL     2      -6.283   9.347  68.624  1.00  0.00    -0.044 C  
HETATM   28  O   UNL     2      -7.479  10.643  70.158  1.00  0.00    -0.403 OA 
HETATM   29  H   UNL     2      -6.746  10.866  70.720  1.00  0.00     0.000 HD 
HETATM   30  C   UNL     2      -7.259   8.174  68.693  1.00  0.00    -0.084 C  
HETATM   31  C   UNL     2      -8.612   8.677  68.122  1.00  0.00    -0.141 C  
HETATM   32  O   UNL     2      -6.677   7.087  67.991  1.00  0.00    -0.059 OA 
HETATM   33  H   UNL     2      -7.284   6.357  68.034  1.00  0.00     0.000 HD 
BRANCH  31  34
HETATM   34  C   UNL     2      -9.128   7.915  66.881  1.00  0.00    -0.172 C  
BRANCH  34  35
HETATM   35  C   UNL     2     -10.557   7.438  67.003  1.00  0.00    -0.414 C  
HETATM   36  C   UNL     2     -11.026   6.354  67.640  1.00  0.00    -0.441 C  
BRANCH  36  37
HETATM   37  C   UNL     2     -10.241   5.327  68.405  1.00  0.00    -0.206 C  
BRANCH  37  38
HETATM   38  C   UNL     2      -8.999   4.835  67.659  1.00  0.00    -0.120 C  
BRANCH  38  39
HETATM   39  C   UNL     2      -8.829   3.324  67.638  1.00  0.00    -0.157 C  
HETATM   40  C   UNL     2      -8.038   2.703  66.486  1.00  0.00    -0.083 C  
HETATM   41  O   UNL     2      -8.338   1.503  66.234  1.00  0.00    -0.080 OA 
HETATM   42  O   UNL     2      -7.121   3.378  65.914  1.00  0.00    -0.060 OA 
ENDBRANCH  38  39
ENDBRANCH  37  38
ENDBRANCH  36  37
ENDBRANCH  34  35
ENDBRANCH  31  34
ENDBRANCH  24  25
ENDBRANCH  17  18
ENDBRANCH  16  17
ENDBRANCH   6  16
TORSDOF 9
ENDMDL
MODEL      196
REMARK 921   NORMALIZED FREE ENERGY PREDICTED BY IDOCK:   -4.80 KCAL/MOL
REMARK 922        TOTAL FREE ENERGY PREDICTED BY IDOCK:   -9.25 KCAL/MOL
REMARK 923 INTER-LIGAND FREE ENERGY PREDICTED BY IDOCK:   -7.51 KCAL/MOL
REMARK 924 INTRA-LIGAND FREE ENERGY PREDICTED BY IDOCK:   -1.74 KCAL/MOL
REMARK 927      BINDING AFFINITY PREDICTED BY RF-SCORE:    0.00 PKD
ROOT
HETATM    1  O   UNL     1     -11.080   6.312  73.452  1.00  0.00    -0.443 OA 
HETATM    2  C   UNL     1     -11.893   6.278  72.283  1.00  0.00    -0.278 C  
HETATM    3  H   UNL     1     -11.391   5.706  74.114  1.00  0.00     0.000 HD 
HETATM    4  C   UNL     2      -8.499   1.992  65.637  1.00  0.00    -0.100 C  
HETATM    5  C   UNL     1     -11.383   7.270  71.197  1.00  0.00    -0.267 C  
HETATM    6  C   UNL     2      -8.142   3.431  65.975  1.00  0.00    -0.093 C  
HETATM    7  C   UNL     1      -9.897   6.951  70.875  1.00  0.00    -0.185 C  
HETATM    8  N   UNL     1     -12.223   7.027  69.982  1.00  0.00    -0.523 NA 
HETATM    9  C   UNL     1     -11.609   8.740  71.516  1.00  0.00    -0.303 C  
HETATM   10  H   UNL     1     -13.157   9.933  71.595  1.00  0.00     0.000 HD 
HETATM   11  H   UNL     1      -8.844   5.398  70.251  1.00  0.00     0.000 HD 
HETATM   12  H2  UNL     1     -13.225   7.099  70.160  1.00  0.00     0.000 HD 
HETATM   13  O   UNL     1      -9.752   5.593  70.448  1.00  0.00    -0.166 OA 
HETATM   14  O   UNL     1     -13.015   9.015  71.396  1.00  0.00    -0.322 OA 
HETATM   15  H1  UNL     1     -11.889   7.677  69.271  1.00  0.00     0.000 HD 
ENDROOT
BRANCH   6  16
HETATM   16  C   UNL     2      -9.353   4.305  66.305  1.00  0.00    -0.165 C  
BRANCH  16  17
HETATM   17  C   UNL     2      -9.178   5.797  66.006  1.00  0.00    -0.155 C  
BRANCH  17  18
HETATM   18  C   UNL     2      -8.203   6.117  64.850  1.00  0.00    -0.125 C  
HETATM   19  C   UNL     2      -7.156   7.236  65.059  1.00  0.00    -0.064 C  
HETATM   20  C   UNL     2      -6.117   7.357  63.935  1.00  0.00    -0.048 C  
HETATM   21  O   UNL     2      -6.431   6.917  66.253  1.00  0.00    -0.047 OA 
HETATM   22  C   UNL     2      -7.842   8.558  65.258  1.00  0.00    -0.106 C  
HETATM   23  H   UNL     2      -5.789   7.605  66.381  1.00  0.00     0.000 HD 
HETATM   24  C   UNL     2      -8.460   9.306  64.328  1.00  0.00    -0.202 C  
BRANCH  24  25
HETATM   25  C   UNL     2      -9.163  10.620  64.589  1.00  0.00    -0.262 C  
HETATM   26  C   UNL     2      -9.672  11.378  63.342  1.00  0.00    -0.365 C  
HETATM   27  C   UNL     2     -10.551  12.443  63.953  1.00  0.00    -0.470 C  
HETATM   28  O   UNL     2     -10.524  10.627  62.481  1.00  0.00    -0.719 OA 
HETATM   29  H   UNL     2     -10.836  11.093  61.715  1.00  0.00     0.000 HD 
HETATM   30  C   UNL     2     -11.323  11.691  65.035  1.00  0.00    -0.170 C  
HETATM   31  C   UNL     2     -10.407  10.539  65.527  1.00  0.00    -0.287 C  
HETATM   32  O   UNL     2     -11.694  12.631  66.031  1.00  0.00    -0.373 OA 
HETATM   33  H   UNL     2     -12.175  12.163  66.705  1.00  0.00     0.000 HD 
BRANCH  31  34
HETATM   34  C   UNL     2     -10.042  10.580  67.028  1.00  0.00    -0.259 C  
BRANCH  34  35
HETATM   35  C   UNL     2      -9.267  11.812  67.437  1.00  0.00    -0.174 C  
HETATM   36  C   UNL     2      -8.068  11.885  68.036  1.00  0.00    -0.151 C  
BRANCH  36  37
HETATM   37  C   UNL     2      -7.180  10.748  68.455  1.00  0.00    -0.088 C  
BRANCH  37  38
HETATM   38  C   UNL     2      -7.719   9.969  69.656  1.00  0.00    -0.158 C  
BRANCH  38  39
HETATM   39  C   UNL     2      -7.045   8.627  69.896  1.00  0.00    -0.050 C  
HETATM   40  C   UNL     2      -6.516   8.327  71.300  1.00  0.00    -0.046 C  
HETATM   41  O   UNL     2      -5.571   7.490  71.333  1.00  0.00    -0.035 OA 
HETATM   42  O   UNL     2      -7.072   8.864  72.313  1.00  0.00    -0.307 OA 
ENDBRANCH  38  39
ENDBRANCH  37  38
ENDBRANCH  36  37
ENDBRANCH  34  35
ENDBRANCH  31  34
ENDBRANCH  24  25
ENDBRANCH  17  18
ENDBRANCH  16  17
ENDBRANCH   6  16
TORSDOF 9
ENDMDL
MODEL      197
REMARK 921   NORMALIZED FREE ENERGY PREDICTED BY IDOCK:   -4.74 KCAL/MOL
REMARK 922        TOTAL FREE ENERGY PREDICTED BY IDOCK:   -9.16 KCAL/MOL
REMARK 923 INTER-LIGAND FREE ENERGY PREDICTED BY IDOCK:   -6.60 KCAL/MOL
REMARK 924 INTRA-LIGAND FREE ENERGY PREDICTED BY IDOCK:   -2.56 KCAL/MOL
REMARK 927      BINDING AFFINITY PREDICTED BY RF-SCORE:    0.00 PKD
ROOT
HETATM    1  O   UNL     1      -8.795   8.002  63.425  1.00  0.00    -0.246 OA 
HETATM    2  C   UNL     1      -7.883   8.749  64.223  1.00  0.00    -0.133 C  
HETATM    3  H   UNL     1      -9.095   7.219  63.872  1.00  0.00     0.000 HD 
HETATM    4  C   UNL     2     -11.206  15.778  67.912  1.00  0.00    -0.313 C  
HETATM    5  C   UNL     1      -7.392  10.032  63.491  1.00  0.00    -0.138 C  
HETATM    6  C   UNL     2     -10.719  15.739  66.471  1.00  0.00    -0.283 C  
HETATM    7  C   UNL     1      -8.625  10.883  63.078  1.00  0.00    -0.129 C  
HETATM    8  N   UNL     1      -6.570  10.791  64.485  1.00  0.00    -0.351 NA 
HETATM    9  C   UNL     1      -6.439   9.784  62.332  1.00  0.00    -0.103 C  
HETATM   10  H   UNL     1      -4.578   9.211  62.149  1.00  0.00     0.000 HD 
HETATM   11  H   UNL     1     -10.175  11.728  63.969  1.00  0.00     0.000 HD 
HETATM   12  H2  UNL     1      -5.812  10.241  64.889  1.00  0.00     0.000 HD 
HETATM   13  O   UNL     1      -9.422  11.208  64.221  1.00  0.00    -0.226 OA 
HETATM   14  O   UNL     1      -5.174   9.366  62.873  1.00  0.00    -0.070 OA 
HETATM   15  H1  UNL     1      -6.249  11.632  64.005  1.00  0.00     0.000 HD 
ENDROOT
BRANCH   6  16
HETATM   16  C   UNL     2      -9.370  15.039  66.295  1.00  0.00    -0.341 C  
BRANCH  16  17
HETATM   17  C   UNL     2      -9.153  13.815  67.190  1.00  0.00    -0.243 C  
BRANCH  17  18
HETATM   18  C   UNL     2     -10.310  12.789  67.177  1.00  0.00    -0.237 C  
HETATM   19  C   UNL     2     -10.586  11.976  68.463  1.00  0.00    -0.231 C  
HETATM   20  C   UNL     2     -11.862  11.122  68.417  1.00  0.00    -0.302 C  
HETATM   21  O   UNL     2     -10.763  12.918  69.527  1.00  0.00    -0.428 OA 
HETATM   22  C   UNL     2      -9.406  11.105  68.790  1.00  0.00    -0.156 C  
HETATM   23  H   UNL     2     -10.932  12.418  70.317  1.00  0.00     0.000 HD 
HETATM   24  C   UNL     2      -9.018   9.983  68.160  1.00  0.00    -0.122 C  
BRANCH  24  25
HETATM   25  C   UNL     2      -7.801   9.159  68.513  1.00  0.00    -0.101 C  
HETATM   26  C   UNL     2      -6.531   9.428  67.673  1.00  0.00    -0.062 C  
HETATM   27  C   UNL     2      -5.470   8.690  68.453  1.00  0.00    -0.038 C  
HETATM   28  O   UNL     2      -6.104  10.787  67.638  1.00  0.00    -0.047 OA 
HETATM   29  H   UNL     2      -5.324  10.953  67.122  1.00  0.00     0.000 HD 
HETATM   30  C   UNL     2      -5.786   9.041  69.906  1.00  0.00    -0.031 C  
HETATM   31  C   UNL     2      -7.318   9.275  69.991  1.00  0.00    -0.083 C  
HETATM   32  O   UNL     2      -5.293   7.988  70.720  1.00  0.00    -0.026 OA 
HETATM   33  H   UNL     2      -5.490   8.207  71.624  1.00  0.00     0.000 HD 
BRANCH  31  34
HETATM   34  C   UNL     2      -8.077   8.336  70.956  1.00  0.00    -0.118 C  
BRANCH  34  35
HETATM   35  C   UNL     2      -9.421   8.867  71.399  1.00  0.00    -0.344 C  
HETATM   36  C   UNL     2     -10.634   8.318  71.234  1.00  0.00    -0.269 C  
BRANCH  36  37
HETATM   37  C   UNL     2     -10.969   7.018  70.560  1.00  0.00    -0.297 C  
BRANCH  37  38
HETATM   38  C   UNL     2     -11.109   7.142  69.041  1.00  0.00    -0.057 C  
BRANCH  38  39
HETATM   39  C   UNL     2     -10.873   5.849  68.275  1.00  0.00    -0.325 C  
HETATM   40  C   UNL     2     -10.432   5.947  66.814  1.00  0.00    -0.281 C  
HETATM   41  O   UNL     2     -10.729   4.941  66.111  1.00  0.00    -0.317 OA 
HETATM   42  O   UNL     2      -9.766   6.960  66.422  1.00  0.00    -0.153 OA 
ENDBRANCH  38  39
ENDBRANCH  37  38
ENDBRANCH  36  37
ENDBRANCH  34  35
ENDBRANCH  31  34
ENDBRANCH  24  25
ENDBRANCH  17  18
ENDBRANCH  16  17
ENDBRANCH   6  16
TORSDOF 9
ENDMDL
MODEL      198
REMARK 921   NORMALIZED FREE ENERGY PREDICTED BY IDOCK:   -4.73 KCAL/MOL
REMARK 922        TOTAL FREE ENERGY PREDICTED BY IDOCK:   -9.14 KCAL/MOL
REMARK 923 INTER-LIGAND FREE ENERGY PREDICTED BY IDOCK:   -7.40 KCAL/MOL
REMARK 924 INTRA-LIGAND FREE ENERGY PREDICTED BY IDOCK:   -1.74 KCAL/MOL
REMARK 927      BINDING AFFINITY PREDICTED BY RF-SCORE:    0.00 PKD
ROOT
HETATM    1  O   UNL     1     -12.373   8.296  72.771  1.00  0.00    -0.597 OA 
HETATM    2  C   UNL     1     -11.185   8.670  72.080  1.00  0.00    -0.367 C  
HETATM    3  H   UNL     1     -13.057   8.948  72.672  1.00  0.00     0.000 HD 
HETATM    4  C   UNL     2      -9.863   4.535  64.650  1.00  0.00    -0.023 C  
HETATM    5  C   UNL     1     -10.064   7.602  72.243  1.00  0.00    -0.208 C  
HETATM    6  C   UNL     2      -9.507   3.950  66.008  1.00  0.00    -0.185 C  
HETATM    7  C   UNL     1     -10.600   6.225  71.762  1.00  0.00    -0.225 C  
HETATM    8  N   UNL     1      -8.940   8.039  71.356  1.00  0.00    -0.134 NA 
HETATM    9  C   UNL     1      -9.439   7.535  73.628  1.00  0.00    -0.284 C  
HETATM   10  H   UNL     1      -8.237   8.666  74.678  1.00  0.00     0.000 HD 
HETATM   11  H   UNL     1     -11.380   5.462  70.114  1.00  0.00     0.000 HD 
HETATM   12  H2  UNL     1      -8.623   8.991  71.541  1.00  0.00     0.000 HD 
HETATM   13  O   UNL     1     -11.052   6.303  70.407  1.00  0.00    -0.296 OA 
HETATM   14  O   UNL     1      -8.628   8.707  73.812  1.00  0.00    -0.292 OA 
HETATM   15  H1  UNL     1      -8.205   7.340  71.462  1.00  0.00     0.000 HD 
ENDROOT
BRANCH   6  16
HETATM   16  C   UNL     2      -8.799   4.937  66.938  1.00  0.00    -0.106 C  
BRANCH  16  17
HETATM   17  C   UNL     2      -9.079   6.415  66.649  1.00  0.00    -0.155 C  
BRANCH  17  18
HETATM   18  C   UNL     2      -8.143   7.407  67.378  1.00  0.00    -0.113 C  
HETATM   19  C   UNL     2      -8.729   8.755  67.857  1.00  0.00    -0.136 C  
HETATM   20  C   UNL     2      -7.780   9.591  68.728  1.00  0.00    -0.080 C  
HETATM   21  O   UNL     2      -9.870   8.454  68.669  1.00  0.00    -0.162 OA 
HETATM   22  C   UNL     2      -9.185   9.570  66.680  1.00  0.00    -0.190 C  
HETATM   23  H   UNL     2     -10.230   9.282  68.963  1.00  0.00     0.000 HD 
HETATM   24  C   UNL     2      -8.418  10.218  65.787  1.00  0.00    -0.161 C  
BRANCH  24  25
HETATM   25  C   UNL     2      -8.930  11.002  64.599  1.00  0.00    -0.085 C  
HETATM   26  C   UNL     2      -8.830  10.298  63.226  1.00  0.00    -0.222 C  
HETATM   27  C   UNL     2      -9.669  11.193  62.347  1.00  0.00     0.033 C  
HETATM   28  O   UNL     2      -9.441   9.013  63.158  1.00  0.00    -0.292 OA 
HETATM   29  H   UNL     2      -9.380   8.580  62.314  1.00  0.00     0.000 HD 
HETATM   30  C   UNL     2     -10.890  11.501  63.213  1.00  0.00    -0.264 C  
HETATM   31  C   UNL     2     -10.417  11.461  64.690  1.00  0.00    -0.373 C  
HETATM   32  O   UNL     2     -11.418  12.746  62.784  1.00  0.00    -0.624 OA 
HETATM   33  H   UNL     2     -12.177  12.938  63.323  1.00  0.00     0.000 HD 
BRANCH  31  34
HETATM   34  C   UNL     2     -10.601  12.777  65.478  1.00  0.00    -0.303 C  
BRANCH  34  35
HETATM   35  C   UNL     2     -10.313  12.654  66.957  1.00  0.00    -0.241 C  
HETATM   36  C   UNL     2      -9.312  13.203  67.663  1.00  0.00    -0.205 C  
BRANCH  36  37
HETATM   37  C   UNL     2      -8.212  14.092  67.158  1.00  0.00    -0.166 C  
BRANCH  37  38
HETATM   38  C   UNL     2      -8.171  15.456  67.849  1.00  0.00    -0.150 C  
BRANCH  38  39
HETATM   39  C   UNL     2      -7.144  15.571  68.965  1.00  0.00    -0.147 C  
HETATM   40  C   UNL     2      -6.524  16.943  69.236  1.00  0.00    -0.228 C  
HETATM   41  O   UNL     2      -5.383  16.902  69.775  1.00  0.00    -0.152 OA 
HETATM   42  O   UNL     2      -7.187  17.999  68.974  1.00  0.00    -0.264 OA 
ENDBRANCH  38  39
ENDBRANCH  37  38
ENDBRANCH  36  37
ENDBRANCH  34  35
ENDBRANCH  31  34
ENDBRANCH  24  25
ENDBRANCH  17  18
ENDBRANCH  16  17
ENDBRANCH   6  16
TORSDOF 9
ENDMDL
MODEL      199
REMARK 921   NORMALIZED FREE ENERGY PREDICTED BY IDOCK:   -4.70 KCAL/MOL
REMARK 922        TOTAL FREE ENERGY PREDICTED BY IDOCK:   -9.10 KCAL/MOL
REMARK 923 INTER-LIGAND FREE ENERGY PREDICTED BY IDOCK:   -7.91 KCAL/MOL
REMARK 924 INTRA-LIGAND FREE ENERGY PREDICTED BY IDOCK:   -1.19 KCAL/MOL
REMARK 927      BINDING AFFINITY PREDICTED BY RF-SCORE:    0.00 PKD
ROOT
HETATM    1  O   UNL     1      -7.946  21.289  67.349  1.00  0.00    -0.576 OA 
HETATM    2  C   UNL     1      -8.612  20.254  66.634  1.00  0.00    -0.223 C  
HETATM    3  H   UNL     1      -8.328  22.141  67.174  1.00  0.00     0.000 HD 
HETATM    4  C   UNL     2     -13.972  15.457  71.358  1.00  0.00    -0.565 C  
HETATM    5  C   UNL     1      -7.985  18.858  66.921  1.00  0.00    -0.256 C  
HETATM    6  C   UNL     2     -12.468  15.231  71.311  1.00  0.00    -0.435 C  
HETATM    7  C   UNL     1      -8.000  18.601  68.453  1.00  0.00    -0.324 C  
HETATM    8  N   UNL     1      -8.863  17.858  66.236  1.00  0.00    -0.444 NA 
HETATM    9  C   UNL     1      -6.614  18.633  66.304  1.00  0.00    -0.212 C  
HETATM   10  H   UNL     1      -5.922  18.350  64.496  1.00  0.00     0.000 HD 
HETATM   11  H   UNL     1      -9.341  18.532  69.904  1.00  0.00     0.000 HD 
HETATM   12  H2  UNL     1      -8.995  18.046  65.242  1.00  0.00     0.000 HD 
HETATM   13  O   UNL     1      -9.332  18.689  68.968  1.00  0.00    -0.263 OA 
HETATM   14  O   UNL     1      -6.779  18.491  64.882  1.00  0.00    -0.463 OA 
HETATM   15  H1  UNL     1      -8.453  16.943  66.424  1.00  0.00     0.000 HD 
ENDROOT
BRANCH   6  16
HETATM   16  C   UNL     2     -11.883  15.282  69.898  1.00  0.00    -0.363 C  
BRANCH  16  17
HETATM   17  C   UNL     2     -10.356  15.189  69.824  1.00  0.00    -0.225 C  
BRANCH  17  18
HETATM   18  C   UNL     2      -9.771  15.242  68.394  1.00  0.00    -0.213 C  
HETATM   19  C   UNL     2     -10.166  14.130  67.395  1.00  0.00    -0.244 C  
HETATM   20  C   UNL     2      -9.688  14.366  65.955  1.00  0.00    -0.305 C  
HETATM   21  O   UNL     2     -11.597  14.093  67.349  1.00  0.00    -0.331 OA 
HETATM   22  C   UNL     2      -9.670  12.797  67.880  1.00  0.00    -0.217 C  
HETATM   23  H   UNL     2     -11.839  13.410  66.736  1.00  0.00     0.000 HD 
HETATM   24  C   UNL     2      -8.404  12.347  67.885  1.00  0.00    -0.165 C  
BRANCH  24  25
HETATM   25  C   UNL     2      -7.956  11.003  68.414  1.00  0.00    -0.131 C  
HETATM   26  C   UNL     2      -9.034  10.163  69.137  1.00  0.00    -0.175 C  
HETATM   27  C   UNL     2      -8.359   8.819  69.263  1.00  0.00    -0.120 C  
HETATM   28  O   UNL     2     -10.221   9.927  68.387  1.00  0.00    -0.164 OA 
HETATM   29  H   UNL     2     -10.884   9.411  68.831  1.00  0.00     0.000 HD 
HETATM   30  C   UNL     2      -7.702   8.620  67.898  1.00  0.00    -0.102 C  
HETATM   31  C   UNL     2      -7.355  10.031  67.353  1.00  0.00    -0.090 C  
HETATM   32  O   UNL     2      -6.592   7.755  68.076  1.00  0.00    -0.052 OA 
HETATM   33  H   UNL     2      -6.183   7.631  67.227  1.00  0.00     0.000 HD 
BRANCH  31  34
HETATM   34  C   UNL     2      -5.855  10.281  67.078  1.00  0.00    -0.050 C  
BRANCH  34  35
HETATM   35  C   UNL     2      -5.562  10.772  65.678  1.00  0.00    -0.135 C  
HETATM   36  C   UNL     2      -5.515  10.069  64.537  1.00  0.00    -0.094 C  
BRANCH  36  37
HETATM   37  C   UNL     2      -5.748   8.596  64.356  1.00  0.00    -0.064 C  
BRANCH  37  38
HETATM   38  C   UNL     2      -6.942   8.277  63.455  1.00  0.00    -0.085 C  
BRANCH  38  39
HETATM   39  C   UNL     2      -8.301   8.517  64.095  1.00  0.00    -0.102 C  
HETATM   40  C   UNL     2      -8.950   9.890  63.917  1.00  0.00    -0.248 C  
HETATM   41  O   UNL     2      -9.768  10.203  64.826  1.00  0.00    -0.294 OA 
HETATM   42  O   UNL     2      -8.691  10.581  62.878  1.00  0.00    -0.177 OA 
ENDBRANCH  38  39
ENDBRANCH  37  38
ENDBRANCH  36  37
ENDBRANCH  34  35
ENDBRANCH  31  34
ENDBRANCH  24  25
ENDBRANCH  17  18
ENDBRANCH  16  17
ENDBRANCH   6  16
TORSDOF 9
ENDMDL
MODEL      200
REMARK 921   NORMALIZED FREE ENERGY PREDICTED BY IDOCK:   -4.68 KCAL/MOL
REMARK 922        TOTAL FREE ENERGY PREDICTED BY IDOCK:   -9.07 KCAL/MOL
REMARK 923 INTER-LIGAND FREE ENERGY PREDICTED BY IDOCK:   -6.89 KCAL/MOL
REMARK 924 INTRA-LIGAND FREE ENERGY PREDICTED BY IDOCK:   -2.17 KCAL/MOL
REMARK 927      BINDING AFFINITY PREDICTED BY RF-SCORE:    0.00 PKD
ROOT
HETATM    1  O   UNL     1     -13.931   8.970  73.396  1.00  0.00    -1.220 OA 
HETATM    2  C   UNL     1     -12.643   8.935  72.790  1.00  0.00    -0.035 C  
HETATM    3  H   UNL     1     -13.897   9.331  74.275  1.00  0.00     0.000 HD 
HETATM    4  C   UNL     2     -11.220  15.090  66.947  1.00  0.00    -0.323 C  
HETATM    5  C   UNL     1     -12.698   8.344  71.351  1.00  0.00    -0.262 C  
HETATM    6  C   UNL     2     -11.970  13.802  66.640  1.00  0.00    -0.469 C  
HETATM    7  C   UNL     1     -13.711   9.163  70.504  1.00  0.00     0.728 C  
HETATM    8  N   UNL     1     -11.323   8.503  70.782  1.00  0.00    -0.268 NA 
HETATM    9  C   UNL     1     -12.957   6.847  71.283  1.00  0.00    -0.244 C  
HETATM   10  H   UNL     1     -11.935   5.230  71.693  1.00  0.00     0.000 HD 
HETATM   11  H   UNL     1     -13.969  11.048  69.967  1.00  0.00     0.000 HD 
HETATM   12  H2  UNL     1     -10.593   8.090  71.362  1.00  0.00     0.000 HD 
HETATM   13  O   UNL     1     -13.350  10.548  70.485  1.00  0.00    -0.206 OA 
HETATM   14  O   UNL     1     -11.774   6.165  71.735  1.00  0.00    -0.300 OA 
HETATM   15  H1  UNL     1     -11.359   8.116  69.839  1.00  0.00     0.000 HD 
ENDROOT
BRANCH   6  16
HETATM   16  C   UNL     2     -11.297  12.549  67.205  1.00  0.00    -0.381 C  
BRANCH  16  17
HETATM   17  C   UNL     2     -11.022  11.444  66.181  1.00  0.00    -0.294 C  
BRANCH  17  18
HETATM   18  C   UNL     2      -9.547  11.328  65.731  1.00  0.00    -0.256 C  
HETATM   19  C   UNL     2      -9.168  10.210  64.732  1.00  0.00    -0.242 C  
HETATM   20  C   UNL     2      -7.729  10.288  64.202  1.00  0.00    -0.097 C  
HETATM   21  O   UNL     2     -10.030  10.349  63.597  1.00  0.00    -0.408 OA 
HETATM   22  C   UNL     2      -9.408   8.861  65.348  1.00  0.00    -0.158 C  
HETATM   23  H   UNL     2      -9.798   9.662  62.983  1.00  0.00     0.000 HD 
HETATM   24  C   UNL     2      -8.681   8.257  66.304  1.00  0.00    -0.173 C  
BRANCH  24  25
HETATM   25  C   UNL     2      -8.986   6.906  66.912  1.00  0.00    -0.128 C  
HETATM   26  C   UNL     2     -10.211   6.845  67.853  1.00  0.00    -0.174 C  
HETATM   27  C   UNL     2     -10.401   5.359  68.034  1.00  0.00    -0.215 C  
HETATM   28  O   UNL     2     -11.431   7.321  67.292  1.00  0.00    -0.445 OA 
HETATM   29  H   UNL     2     -12.184   7.284  67.870  1.00  0.00     0.000 HD 
HETATM   30  C   UNL     2     -10.208   4.801  66.624  1.00  0.00    -0.238 C  
HETATM   31  C   UNL     2      -9.224   5.751  65.892  1.00  0.00    -0.128 C  
HETATM   32  O   UNL     2      -9.767   3.458  66.749  1.00  0.00    -0.391 OA 
HETATM   33  H   UNL     2      -9.648   3.111  65.873  1.00  0.00     0.000 HD 
BRANCH  31  34
HETATM   34  C   UNL     2      -7.915   5.093  65.400  1.00  0.00    -0.110 C  
BRANCH  34  35
HETATM   35  C   UNL     2      -6.717   5.379  66.277  1.00  0.00    -0.057 C  
HETATM   36  C   UNL     2      -6.138   4.582  67.189  1.00  0.00    -0.031 C  
BRANCH  36  37
HETATM   37  C   UNL     2      -6.537   3.186  67.574  1.00  0.00    -0.037 C  
BRANCH  37  38
HETATM   38  C   UNL     2      -6.543   2.953  69.086  1.00  0.00    -0.033 C  
BRANCH  38  39
HETATM   39  C   UNL     2      -7.894   3.157  69.754  1.00  0.00    -0.048 C  
HETATM   40  C   UNL     2      -8.070   4.369  70.670  1.00  0.00    -0.067 C  
HETATM   41  O   UNL     2      -8.965   4.232  71.551  1.00  0.00    -0.113 OA 
HETATM   42  O   UNL     2      -7.383   5.422  70.463  1.00  0.00    -0.066 OA 
ENDBRANCH  38  39
ENDBRANCH  37  38
ENDBRANCH  36  37
ENDBRANCH  34  35
ENDBRANCH  31  34
ENDBRANCH  24  25
ENDBRANCH  17  18
ENDBRANCH  16  17
ENDBRANCH   6  16
TORSDOF 9
ENDMDL
MODEL      201
REMARK 921   NORMALIZED FREE ENERGY PREDICTED BY IDOCK:   -4.66 KCAL/MOL
REMARK 922        TOTAL FREE ENERGY PREDICTED BY IDOCK:   -9.03 KCAL/MOL
REMARK 923 INTER-LIGAND FREE ENERGY PREDICTED BY IDOCK:   -8.61 KCAL/MOL
REMARK 924 INTRA-LIGAND FREE ENERGY PREDICTED BY IDOCK:   -0.42 KCAL/MOL
REMARK 927      BINDING AFFINITY PREDICTED BY RF-SCORE:    0.00 PKD
ROOT
HETATM    1  O   UNL     1     -10.445   6.695  72.642  1.00  0.00    -0.198 OA 
HETATM    2  C   UNL     1     -10.166   7.586  71.567  1.00  0.00    -0.188 C  
HETATM    3  H   UNL     1      -9.688   6.573  73.204  1.00  0.00     0.000 HD 
HETATM    4  C   UNL     2     -13.375  15.515  72.509  1.00  0.00    -0.591 C  
HETATM    5  C   UNL     1     -11.406   7.785  70.647  1.00  0.00    -0.264 C  
HETATM    6  C   UNL     2     -14.193  14.336  72.004  1.00  0.00    -0.631 C  
HETATM    7  C   UNL     1     -12.603   8.277  71.507  1.00  0.00    -0.309 C  
HETATM    8  N   UNL     1     -11.028   8.846  69.661  1.00  0.00    -0.391 NA 
HETATM    9  C   UNL     1     -11.762   6.585  69.783  1.00  0.00    -0.226 C  
HETATM   10  H   UNL     1     -10.989   5.712  68.213  1.00  0.00     0.000 HD 
HETATM   11  H   UNL     1     -12.998   9.786  72.723  1.00  0.00     0.000 HD 
HETATM   12  H2  UNL     1     -10.172   8.636  69.147  1.00  0.00     0.000 HD 
HETATM   13  O   UNL     1     -12.267   9.485  72.197  1.00  0.00    -0.328 OA 
HETATM   14  O   UNL     1     -10.766   6.461  68.753  1.00  0.00    -0.227 OA 
HETATM   15  H1  UNL     1     -11.840   8.977  69.058  1.00  0.00     0.000 HD 
ENDROOT
BRANCH   6  16
HETATM   16  C   UNL     2     -13.466  13.487  70.959  1.00  0.00     0.034 C  
BRANCH  16  17
HETATM   17  C   UNL     2     -11.942  13.632  70.951  1.00  0.00    -0.226 C  
BRANCH  17  18
HETATM   18  C   UNL     2     -11.416  14.923  70.282  1.00  0.00    -0.315 C  
HETATM   19  C   UNL     2     -11.350  14.979  68.738  1.00  0.00    -0.291 C  
HETATM   20  C   UNL     2     -10.994  16.357  68.163  1.00  0.00    -0.339 C  
HETATM   21  O   UNL     2     -12.657  14.657  68.249  1.00  0.00    -0.464 OA 
HETATM   22  C   UNL     2     -10.382  13.950  68.223  1.00  0.00    -0.249 C  
HETATM   23  H   UNL     2     -12.616  14.690  67.300  1.00  0.00     0.000 HD 
HETATM   24  C   UNL     2      -9.041  13.987  68.285  1.00  0.00    -0.191 C  
BRANCH  24  25
HETATM   25  C   UNL     2      -8.112  12.907  67.776  1.00  0.00    -0.166 C  
HETATM   26  C   UNL     2      -6.762  12.766  68.517  1.00  0.00    -0.090 C  
HETATM   27  C   UNL     2      -6.237  11.459  67.976  1.00  0.00    -0.049 C  
HETATM   28  O   UNL     2      -6.861  12.585  69.927  1.00  0.00    -0.347 OA 
HETATM   29  H   UNL     2      -6.032  12.498  70.382  1.00  0.00     0.000 HD 
HETATM   30  C   UNL     2      -7.466  10.551  67.980  1.00  0.00    -0.090 C  
HETATM   31  C   UNL     2      -8.703  11.464  67.771  1.00  0.00    -0.136 C  
HETATM   32  O   UNL     2      -7.273   9.561  66.981  1.00  0.00    -0.086 OA 
HETATM   33  H   UNL     2      -8.037   8.997  66.983  1.00  0.00     0.000 HD 
BRANCH  31  34
HETATM   34  C   UNL     2      -9.547  11.155  66.514  1.00  0.00    -0.222 C  
BRANCH  34  35
HETATM   35  C   UNL     2      -9.887  12.374  65.688  1.00  0.00    -0.235 C  
HETATM   36  C   UNL     2     -10.289  12.434  64.409  1.00  0.00    -0.370 C  
BRANCH  36  37
HETATM   37  C   UNL     2     -10.506  11.290  63.461  1.00  0.00    -0.457 C  
BRANCH  37  38
HETATM   38  C   UNL     2      -9.289  10.988  62.585  1.00  0.00    -0.348 C  
BRANCH  38  39
HETATM   39  C   UNL     2      -8.980   9.508  62.416  1.00  0.00    -0.279 C  
HETATM   40  C   UNL     2      -7.865   8.903  63.270  1.00  0.00    -0.143 C  
HETATM   41  O   UNL     2      -7.323   7.877  62.770  1.00  0.00    -0.092 OA 
HETATM   42  O   UNL     2      -7.601   9.403  64.412  1.00  0.00    -0.107 OA 
ENDBRANCH  38  39
ENDBRANCH  37  38
ENDBRANCH  36  37
ENDBRANCH  34  35
ENDBRANCH  31  34
ENDBRANCH  24  25
ENDBRANCH  17  18
ENDBRANCH  16  17
ENDBRANCH   6  16
TORSDOF 9
ENDMDL
MODEL      202
REMARK 921   NORMALIZED FREE ENERGY PREDICTED BY IDOCK:   -4.64 KCAL/MOL
REMARK 922        TOTAL FREE ENERGY PREDICTED BY IDOCK:   -9.01 KCAL/MOL
REMARK 923 INTER-LIGAND FREE ENERGY PREDICTED BY IDOCK:   -6.91 KCAL/MOL
REMARK 924 INTRA-LIGAND FREE ENERGY PREDICTED BY IDOCK:   -2.10 KCAL/MOL
REMARK 927      BINDING AFFINITY PREDICTED BY RF-SCORE:    0.00 PKD
ROOT
HETATM    1  O   UNL     1      -7.431  16.534  68.120  1.00  0.00    -0.151 OA 
HETATM    2  C   UNL     1      -8.466  16.056  68.974  1.00  0.00    -0.244 C  
HETATM    3  H   UNL     1      -6.814  17.083  68.589  1.00  0.00     0.000 HD 
HETATM    4  C   UNL     2      -7.643   7.846  71.418  1.00  0.00    -0.083 C  
HETATM    5  C   UNL     1      -9.477  15.155  68.207  1.00  0.00    -0.201 C  
HETATM    6  C   UNL     2      -8.231   8.265  70.079  1.00  0.00    -0.119 C  
HETATM    7  C   UNL     1      -8.705  13.989  67.529  1.00  0.00    -0.198 C  
HETATM    8  N   UNL     1     -10.412  14.604  69.238  1.00  0.00    -0.325 NA 
HETATM    9  C   UNL     1     -10.386  15.893  67.237  1.00  0.00    -0.293 C  
HETATM   10  H   UNL     1     -11.905  17.116  67.398  1.00  0.00     0.000 HD 
HETATM   11  H   UNL     1      -7.498  12.524  68.086  1.00  0.00     0.000 HD 
HETATM   12  H2  UNL     1     -10.860  15.324  69.805  1.00  0.00     0.000 HD 
HETATM   13  O   UNL     1      -7.970  13.237  68.500  1.00  0.00    -0.136 OA 
HETATM   14  O   UNL     1     -11.336  16.654  68.004  1.00  0.00    -0.251 OA 
HETATM   15  H1  UNL     1     -11.074  14.014  68.735  1.00  0.00     0.000 HD 
ENDROOT
BRANCH   6  16
HETATM   16  C   UNL     2      -9.230   9.420  70.181  1.00  0.00    -0.268 C  
BRANCH  16  17
HETATM   17  C   UNL     2     -10.309   9.251  71.254  1.00  0.00    -0.397 C  
BRANCH  17  18
HETATM   18  C   UNL     2     -11.496   8.348  70.845  1.00  0.00    -0.295 C  
HETATM   19  C   UNL     2     -12.180   7.493  71.937  1.00  0.00    -0.306 C  
HETATM   20  C   UNL     2     -13.458   6.775  71.478  1.00  0.00    -0.180 C  
HETATM   21  O   UNL     2     -12.568   8.383  72.989  1.00  0.00    -0.676 OA 
HETATM   22  C   UNL     2     -11.210   6.490  72.495  1.00  0.00    -0.298 C  
HETATM   23  H   UNL     2     -12.988   7.858  73.659  1.00  0.00     0.000 HD 
HETATM   24  C   UNL     2     -10.755   5.374  71.901  1.00  0.00    -0.275 C  
BRANCH  24  25
HETATM   25  C   UNL     2      -9.752   4.413  72.499  1.00  0.00    -0.204 C  
HETATM   26  C   UNL     2     -10.185   3.701  73.802  1.00  0.00    -0.142 C  
HETATM   27  C   UNL     2      -9.125   2.638  73.951  1.00  0.00    -0.083 C  
HETATM   28  O   UNL     2     -11.422   3.000  73.726  1.00  0.00    -0.183 OA 
HETATM   29  H   UNL     2     -11.689   2.563  74.527  1.00  0.00     0.000 HD 
HETATM   30  C   UNL     2      -8.964   2.091  72.533  1.00  0.00    -0.066 C  
HETATM   31  C   UNL     2      -9.292   3.255  71.561  1.00  0.00    -0.204 C  
HETATM   32  O   UNL     2      -7.651   1.565  72.420  1.00  0.00    -0.037 OA 
HETATM   33  H   UNL     2      -7.552   1.225  71.538  1.00  0.00     0.000 HD 
BRANCH  31  34
HETATM   34  C   UNL     2      -8.145   3.662  70.608  1.00  0.00    -0.061 C  
BRANCH  34  35
HETATM   35  C   UNL     2      -8.429   3.382  69.150  1.00  0.00    -0.094 C  
HETATM   36  C   UNL     2      -9.092   4.142  68.265  1.00  0.00    -0.176 C  
BRANCH  36  37
HETATM   37  C   UNL     2      -9.727   5.482  68.501  1.00  0.00    -0.175 C  
BRANCH  37  38
HETATM   38  C   UNL     2     -10.147   6.189  67.210  1.00  0.00    -0.202 C  
BRANCH  38  39
HETATM   39  C   UNL     2      -9.352   5.785  65.978  1.00  0.00    -0.134 C  
HETATM   40  C   UNL     2      -9.820   4.563  65.187  1.00  0.00    -0.142 C  
HETATM   41  O   UNL     2      -8.910   3.988  64.527  1.00  0.00    -0.119 OA 
HETATM   42  O   UNL     2     -11.054   4.246  65.186  1.00  0.00    -0.194 OA 
ENDBRANCH  38  39
ENDBRANCH  37  38
ENDBRANCH  36  37
ENDBRANCH  34  35
ENDBRANCH  31  34
ENDBRANCH  24  25
ENDBRANCH  17  18
ENDBRANCH  16  17
ENDBRANCH   6  16
TORSDOF 9
ENDMDL
MODEL      203
REMARK 921   NORMALIZED FREE ENERGY PREDICTED BY IDOCK:   -4.63 KCAL/MOL
REMARK 922        TOTAL FREE ENERGY PREDICTED BY IDOCK:   -8.99 KCAL/MOL
REMARK 923 INTER-LIGAND FREE ENERGY PREDICTED BY IDOCK:   -7.70 KCAL/MOL
REMARK 924 INTRA-LIGAND FREE ENERGY PREDICTED BY IDOCK:   -1.29 KCAL/MOL
REMARK 927      BINDING AFFINITY PREDICTED BY RF-SCORE:    0.00 PKD
ROOT
HETATM    1  O   UNL     1      -5.125   8.760  64.437  1.00  0.00    -0.042 OA 
HETATM    2  C   UNL     1      -6.001   9.848  64.161  1.00  0.00    -0.120 C  
HETATM    3  H   UNL     1      -4.368   8.763  63.864  1.00  0.00     0.000 HD 
HETATM    4  C   UNL     2      -5.560  16.368  69.760  1.00  0.00    -0.167 C  
HETATM    5  C   UNL     1      -7.241   9.844  65.101  1.00  0.00    -0.133 C  
HETATM    6  C   UNL     2      -6.370  15.104  70.009  1.00  0.00    -0.153 C  
HETATM    7  C   UNL     1      -6.759   9.854  66.578  1.00  0.00    -0.080 C  
HETATM    8  N   UNL     1      -7.991  11.106  64.809  1.00  0.00    -0.176 NA 
HETATM    9  C   UNL     1      -8.251   8.741  64.825  1.00  0.00    -0.162 C  
HETATM   10  H   UNL     1      -9.562   8.362  63.424  1.00  0.00     0.000 HD 
HETATM   11  H   UNL     1      -5.625  10.993  67.730  1.00  0.00     0.000 HD 
HETATM   12  H2  UNL     1      -8.230  11.218  63.824  1.00  0.00     0.000 HD 
HETATM   13  O   UNL     1      -5.920  10.986  66.828  1.00  0.00    -0.073 OA 
HETATM   14  O   UNL     1      -8.931   9.052  63.597  1.00  0.00    -0.085 OA 
HETATM   15  H1  UNL     1      -8.803  11.104  65.426  1.00  0.00     0.000 HD 
ENDROOT
BRANCH   6  16
HETATM   16  C   UNL     2      -7.196  14.655  68.802  1.00  0.00    -0.124 C  
BRANCH  16  17
HETATM   17  C   UNL     2      -8.586  14.106  69.135  1.00  0.00     0.217 C  
BRANCH  17  18
HETATM   18  C   UNL     2      -9.710  15.167  69.178  1.00  0.00    -0.232 C  
HETATM   19  C   UNL     2     -11.173  14.685  69.313  1.00  0.00    -0.282 C  
HETATM   20  C   UNL     2     -12.198  15.808  69.533  1.00  0.00    -0.178 C  
HETATM   21  O   UNL     2     -11.234  13.844  70.470  1.00  0.00    -0.484 OA 
HETATM   22  C   UNL     2     -11.564  13.872  68.112  1.00  0.00    -0.370 C  
HETATM   23  H   UNL     2     -12.132  13.547  70.553  1.00  0.00     0.000 HD 
HETATM   24  C   UNL     2     -11.823  14.318  66.871  1.00  0.00    -0.458 C  
BRANCH  24  25
HETATM   25  C   UNL     2     -12.184  13.449  65.687  1.00  0.00    -0.510 C  
HETATM   26  C   UNL     2     -12.603  14.195  64.399  1.00  0.00    -0.164 C  
HETATM   27  C   UNL     2     -12.600  13.087  63.374  1.00  0.00    -0.224 C  
HETATM   28  O   UNL     2     -11.666  15.157  63.924  1.00  0.00    -0.795 OA 
HETATM   29  H   UNL     2     -11.923  15.615  63.133  1.00  0.00     0.000 HD 
HETATM   30  C   UNL     2     -11.326  12.306  63.695  1.00  0.00    -0.470 C  
HETATM   31  C   UNL     2     -11.073  12.461  65.218  1.00  0.00    -0.342 C  
HETATM   32  O   UNL     2     -11.514  10.973  63.248  1.00  0.00    -0.643 OA 
HETATM   33  H   UNL     2     -10.722  10.488  63.448  1.00  0.00     0.000 HD 
BRANCH  31  34
HETATM   34  C   UNL     2     -11.053  11.140  66.020  1.00  0.00    -0.117 C  
BRANCH  34  35
HETATM   35  C   UNL     2      -9.957  11.069  67.059  1.00  0.00    -0.223 C  
HETATM   36  C   UNL     2      -9.721  10.104  67.961  1.00  0.00    -0.161 C  
BRANCH  36  37
HETATM   37  C   UNL     2     -10.493   8.833  68.170  1.00  0.00    -0.243 C  
BRANCH  37  38
HETATM   38  C   UNL     2      -9.706   7.765  68.933  1.00  0.00    -0.160 C  
BRANCH  38  39
HETATM   39  C   UNL     2      -9.981   6.336  68.487  1.00  0.00    -0.163 C  
HETATM   40  C   UNL     2      -9.211   5.797  67.281  1.00  0.00    -0.110 C  
HETATM   41  O   UNL     2      -9.795   4.863  66.664  1.00  0.00    -0.162 OA 
HETATM   42  O   UNL     2      -8.050   6.253  67.017  1.00  0.00    -0.108 OA 
ENDBRANCH  38  39
ENDBRANCH  37  38
ENDBRANCH  36  37
ENDBRANCH  34  35
ENDBRANCH  31  34
ENDBRANCH  24  25
ENDBRANCH  17  18
ENDBRANCH  16  17
ENDBRANCH   6  16
TORSDOF 9
ENDMDL
MODEL      204
REMARK 921   NORMALIZED FREE ENERGY PREDICTED BY IDOCK:   -4.61 KCAL/MOL
REMARK 922        TOTAL FREE ENERGY PREDICTED BY IDOCK:   -8.96 KCAL/MOL
REMARK 923 INTER-LIGAND FREE ENERGY PREDICTED BY IDOCK:   -7.04 KCAL/MOL
REMARK 924 INTRA-LIGAND FREE ENERGY PREDICTED BY IDOCK:   -1.92 KCAL/MOL
REMARK 927      BINDING AFFINITY PREDICTED BY RF-SCORE:    0.00 PKD
ROOT
HETATM    1  O   UNL     1      -6.390   2.060  71.211  1.00  0.00    -0.018 OA 
HETATM    2  C   UNL     1      -7.540   2.787  70.791  1.00  0.00    -0.036 C  
HETATM    3  H   UNL     1      -6.159   1.377  70.592  1.00  0.00     0.000 HD 
HETATM    4  C   UNL     2      -5.899  10.552  67.464  1.00  0.00    -0.044 C  
HETATM    5  C   UNL     1      -7.919   3.905  71.805  1.00  0.00    -0.071 C  
HETATM    6  C   UNL     2      -5.978  10.282  68.959  1.00  0.00    -0.037 C  
HETATM    7  C   UNL     1      -6.693   4.837  72.014  1.00  0.00    -0.047 C  
HETATM    8  N   UNL     1      -9.035   4.679  71.176  1.00  0.00    -0.120 NA 
HETATM    9  C   UNL     1      -8.505   3.409  73.117  1.00  0.00    -0.082 C  
HETATM   10  H   UNL     1     -10.197   2.604  73.679  1.00  0.00     0.000 HD 
HETATM   11  H   UNL     1      -5.510   5.959  70.895  1.00  0.00     0.000 HD 
HETATM   12  H2  UNL     1      -9.827   4.098  70.899  1.00  0.00     0.000 HD 
HETATM   13  O   UNL     1      -6.259   5.390  70.767  1.00  0.00    -0.024 OA 
HETATM   14  O   UNL     1      -9.830   2.915  72.859  1.00  0.00    -0.110 OA 
HETATM   15  H1  UNL     1      -9.283   5.412  71.840  1.00  0.00     0.000 HD 
ENDROOT
BRANCH   6  16
HETATM   16  C   UNL     2      -7.171   9.413  69.365  1.00  0.00    -0.066 C  
BRANCH  16  17
HETATM   17  C   UNL     2      -8.432  10.187  69.759  1.00  0.00    -0.147 C  
BRANCH  17  18
HETATM   18  C   UNL     2      -9.448   9.384  70.605  1.00  0.00    -0.325 C  
HETATM   19  C   UNL     2     -10.869   9.166  70.037  1.00  0.00    -0.234 C  
HETATM   20  C   UNL     2     -11.745   8.207  70.856  1.00  0.00    -0.259 C  
HETATM   21  O   UNL     2     -10.719   8.575  68.741  1.00  0.00    -0.375 OA 
HETATM   22  C   UNL     2     -11.574  10.484  69.880  1.00  0.00    -0.384 C  
HETATM   23  H   UNL     2     -11.592   8.442  68.391  1.00  0.00     0.000 HD 
HETATM   24  C   UNL     2     -12.079  11.262  70.852  1.00  0.00    -0.406 C  
BRANCH  24  25
HETATM   25  C   UNL     2     -12.753  12.599  70.640  1.00  0.00    -0.141 C  
HETATM   26  C   UNL     2     -13.863  12.968  71.651  1.00  0.00     0.212 C  
HETATM   27  C   UNL     2     -14.101  14.427  71.345  1.00  0.00    -0.378 C  
HETATM   28  O   UNL     2     -13.474  12.924  73.021  1.00  0.00    -0.540 OA 
HETATM   29  H   UNL     2     -14.156  13.150  73.643  1.00  0.00     0.000 HD 
HETATM   30  C   UNL     2     -12.691  14.991  71.175  1.00  0.00    -0.362 C  
HETATM   31  C   UNL     2     -11.804  13.836  70.639  1.00  0.00    -0.261 C  
HETATM   32  O   UNL     2     -12.780  16.125  70.327  1.00  0.00    -0.523 OA 
HETATM   33  H   UNL     2     -11.903  16.475  70.221  1.00  0.00     0.000 HD 
BRANCH  31  34
HETATM   34  C   UNL     2     -11.142  14.095  69.267  1.00  0.00    -0.286 C  
BRANCH  34  35
HETATM   35  C   UNL     2     -12.063  13.873  68.089  1.00  0.00    -0.317 C  
HETATM   36  C   UNL     2     -11.867  13.106  67.006  1.00  0.00    -0.435 C  
BRANCH  36  37
HETATM   37  C   UNL     2     -10.669  12.259  66.685  1.00  0.00    -0.276 C  
BRANCH  37  38
HETATM   38  C   UNL     2     -10.905  11.291  65.524  1.00  0.00    -0.244 C  
BRANCH  38  39
HETATM   39  C   UNL     2      -9.740  11.168  64.554  1.00  0.00    -0.310 C  
HETATM   40  C   UNL     2      -8.578  10.250  64.935  1.00  0.00    -0.182 C  
HETATM   41  O   UNL     2      -7.476  10.552  64.396  1.00  0.00    -0.057 OA 
HETATM   42  O   UNL     2      -8.789   9.243  65.687  1.00  0.00    -0.156 OA 
ENDBRANCH  38  39
ENDBRANCH  37  38
ENDBRANCH  36  37
ENDBRANCH  34  35
ENDBRANCH  31  34
ENDBRANCH  24  25
ENDBRANCH  17  18
ENDBRANCH  16  17
ENDBRANCH   6  16
TORSDOF 9
ENDMDL
MODEL      205
REMARK 921   NORMALIZED FREE ENERGY PREDICTED BY IDOCK:   -4.60 KCAL/MOL
REMARK 922        TOTAL FREE ENERGY PREDICTED BY IDOCK:   -8.95 KCAL/MOL
REMARK 923 INTER-LIGAND FREE ENERGY PREDICTED BY IDOCK:   -7.43 KCAL/MOL
REMARK 924 INTRA-LIGAND FREE ENERGY PREDICTED BY IDOCK:   -1.52 KCAL/MOL
REMARK 927      BINDING AFFINITY PREDICTED BY RF-SCORE:    0.00 PKD
ROOT
HETATM    1  O   UNL     1     -12.008  13.751  65.853  1.00  0.00    -0.363 OA 
HETATM    2  C   UNL     1     -10.807  13.274  66.452  1.00  0.00    -0.288 C  
HETATM    3  H   UNL     1     -12.069  13.501  64.939  1.00  0.00     0.000 HD 
HETATM    4  C   UNL     2     -11.774   6.390  71.524  1.00  0.00    -0.369 C  
HETATM    5  C   UNL     1     -10.708  13.683  67.950  1.00  0.00    -0.247 C  
HETATM    6  C   UNL     2     -12.050   7.813  71.984  1.00  0.00    -0.351 C  
HETATM    7  C   UNL     1     -11.968  13.170  68.701  1.00  0.00    -0.284 C  
HETATM    8  N   UNL     1      -9.491  12.999  68.490  1.00  0.00    -0.379 NA 
HETATM    9  C   UNL     1     -10.443  15.160  68.195  1.00  0.00    -0.245 C  
HETATM   10  H   UNL     1      -8.917  16.364  67.973  1.00  0.00     0.000 HD 
HETATM   11  H   UNL     1     -12.872  11.440  69.014  1.00  0.00     0.000 HD 
HETATM   12  H2  UNL     1      -8.643  13.199  67.958  1.00  0.00     0.000 HD 
HETATM   13  O   UNL     1     -12.102  11.753  68.556  1.00  0.00    -0.454 OA 
HETATM   14  O   UNL     1      -9.083  15.441  67.820  1.00  0.00    -0.177 OA 
HETATM   15  H1  UNL     1      -9.426  13.266  69.472  1.00  0.00     0.000 HD 
ENDROOT
BRANCH   6  16
HETATM   16  C   UNL     2     -10.971   8.814  71.567  1.00  0.00    -0.377 C  
BRANCH  16  17
HETATM   17  C   UNL     2      -9.548   8.454  72.004  1.00  0.00    -0.344 C  
BRANCH  17  18
HETATM   18  C   UNL     2      -8.426   9.077  71.142  1.00  0.00    -0.234 C  
HETATM   19  C   UNL     2      -8.757   9.490  69.689  1.00  0.00    -0.182 C  
HETATM   20  C   UNL     2      -7.641  10.265  68.975  1.00  0.00    -0.102 C  
HETATM   21  O   UNL     2      -9.889  10.366  69.748  1.00  0.00    -0.368 OA 
HETATM   22  C   UNL     2      -9.132   8.281  68.879  1.00  0.00    -0.147 C  
HETATM   23  H   UNL     2     -10.093  10.619  68.855  1.00  0.00     0.000 HD 
HETATM   24  C   UNL     2      -8.315   7.318  68.421  1.00  0.00    -0.125 C  
BRANCH  24  25
HETATM   25  C   UNL     2      -8.751   6.103  67.634  1.00  0.00    -0.105 C  
HETATM   26  C   UNL     2     -10.260   6.011  67.306  1.00  0.00    -0.195 C  
HETATM   27  C   UNL     2     -10.299   4.888  66.298  1.00  0.00    -0.336 C  
HETATM   28  O   UNL     2     -10.804   7.145  66.636  1.00  0.00    -0.516 OA 
HETATM   29  H   UNL     2     -11.731   7.089  66.435  1.00  0.00     0.000 HD 
HETATM   30  C   UNL     2      -9.106   5.181  65.389  1.00  0.00    -0.140 C  
HETATM   31  C   UNL     2      -8.044   5.907  66.258  1.00  0.00    -0.104 C  
HETATM   32  O   UNL     2      -8.682   3.951  64.824  1.00  0.00    -0.111 OA 
HETATM   33  H   UNL     2      -7.940   4.134  64.259  1.00  0.00     0.000 HD 
BRANCH  31  34
HETATM   34  C   UNL     2      -6.681   5.187  66.371  1.00  0.00    -0.057 C  
BRANCH  34  35
HETATM   35  C   UNL     2      -5.490   6.089  66.141  1.00  0.00    -0.013 C  
HETATM   36  C   UNL     2      -5.196   6.828  65.060  1.00  0.00    -0.026 C  
BRANCH  36  37
HETATM   37  C   UNL     2      -5.988   6.952  63.790  1.00  0.00    -0.039 C  
BRANCH  37  38
HETATM   38  C   UNL     2      -6.614   8.334  63.598  1.00  0.00    -0.076 C  
BRANCH  38  39
HETATM   39  C   UNL     2      -8.116   8.389  63.837  1.00  0.00    -0.143 C  
HETATM   40  C   UNL     2      -8.674   9.559  64.648  1.00  0.00    -0.205 C  
HETATM   41  O   UNL     2      -9.769   9.316  65.229  1.00  0.00    -0.216 OA 
HETATM   42  O   UNL     2      -8.067  10.679  64.641  1.00  0.00    -0.107 OA 
ENDBRANCH  38  39
ENDBRANCH  37  38
ENDBRANCH  36  37
ENDBRANCH  34  35
ENDBRANCH  31  34
ENDBRANCH  24  25
ENDBRANCH  17  18
ENDBRANCH  16  17
ENDBRANCH   6  16
TORSDOF 9
ENDMDL
MODEL      206
REMARK 921   NORMALIZED FREE ENERGY PREDICTED BY IDOCK:   -4.60 KCAL/MOL
REMARK 922        TOTAL FREE ENERGY PREDICTED BY IDOCK:   -8.95 KCAL/MOL
REMARK 923 INTER-LIGAND FREE ENERGY PREDICTED BY IDOCK:   -7.34 KCAL/MOL
REMARK 924 INTRA-LIGAND FREE ENERGY PREDICTED BY IDOCK:   -1.61 KCAL/MOL
REMARK 927      BINDING AFFINITY PREDICTED BY RF-SCORE:    0.00 PKD
ROOT
HETATM    1  O   UNL     1     -11.612  16.942  69.706  1.00  0.00    -0.068 OA 
HETATM    2  C   UNL     1     -11.489  16.091  70.841  1.00  0.00    -0.416 C  
HETATM    3  H   UNL     1     -11.026  17.688  69.759  1.00  0.00     0.000 HD 
HETATM    4  C   UNL     2      -7.034   8.856  69.476  1.00  0.00    -0.051 C  
HETATM    5  C   UNL     1     -12.448  14.869  70.752  1.00  0.00    -0.339 C  
HETATM    6  C   UNL     2      -8.501   9.017  69.109  1.00  0.00    -0.128 C  
HETATM    7  C   UNL     1     -12.176  14.104  69.427  1.00  0.00    -0.287 C  
HETATM    8  N   UNL     1     -12.113  13.990  71.916  1.00  0.00    -0.181 NA 
HETATM    9  C   UNL     1     -13.921  15.195  70.946  1.00  0.00    -0.178 C  
HETATM   10  H   UNL     1     -15.052  15.720  72.453  1.00  0.00     0.000 HD 
HETATM   11  H   UNL     1     -10.639  13.231  68.541  1.00  0.00     0.000 HD 
HETATM   12  H2  UNL     1     -12.153  14.472  72.814  1.00  0.00     0.000 HD 
HETATM   13  O   UNL     1     -10.806  13.698  69.350  1.00  0.00    -0.148 OA 
HETATM   14  O   UNL     1     -14.132  15.516  72.331  1.00  0.00    -0.539 OA 
HETATM   15  H1  UNL     1     -12.741  13.188  71.858  1.00  0.00     0.000 HD 
ENDROOT
BRANCH   6  16
HETATM   16  C   UNL     2      -9.339   9.684  70.202  1.00  0.00    -0.294 C  
BRANCH  16  17
HETATM   17  C   UNL     2     -10.714  10.185  69.750  1.00  0.00    -0.317 C  
BRANCH  17  18
HETATM   18  C   UNL     2     -11.908   9.334  70.241  1.00  0.00    -0.015 C  
HETATM   19  C   UNL     2     -11.617   8.085  71.104  1.00  0.00    -0.282 C  
HETATM   20  C   UNL     2     -12.864   7.413  71.697  1.00  0.00    -0.406 C  
HETATM   21  O   UNL     2     -10.820   8.516  72.213  1.00  0.00    -0.330 OA 
HETATM   22  C   UNL     2     -10.828   7.080  70.313  1.00  0.00    -0.283 C  
HETATM   23  H   UNL     2     -10.640   7.749  72.743  1.00  0.00     0.000 HD 
HETATM   24  C   UNL     2     -11.271   6.292  69.319  1.00  0.00    -0.458 C  
BRANCH  24  25
HETATM   25  C   UNL     2     -10.423   5.317  68.533  1.00  0.00    -0.147 C  
HETATM   26  C   UNL     2     -10.583   5.362  66.996  1.00  0.00    -0.226 C  
HETATM   27  C   UNL     2      -9.426   4.513  66.530  1.00  0.00    -0.180 C  
HETATM   28  O   UNL     2     -10.382   6.641  66.403  1.00  0.00    -0.438 OA 
HETATM   29  H   UNL     2     -10.480   6.669  65.459  1.00  0.00     0.000 HD 
HETATM   30  C   UNL     2      -8.268   4.969  67.417  1.00  0.00    -0.106 C  
HETATM   31  C   UNL     2      -8.885   5.427  68.765  1.00  0.00    -0.107 C  
HETATM   32  O   UNL     2      -7.347   3.894  67.511  1.00  0.00    -0.066 OA 
HETATM   33  H   UNL     2      -6.628   4.178  68.063  1.00  0.00     0.000 HD 
BRANCH  31  34
HETATM   34  C   UNL     2      -8.400   4.651  70.010  1.00  0.00    -0.075 C  
BRANCH  34  35
HETATM   35  C   UNL     2      -9.212   3.414  70.318  1.00  0.00    -0.226 C  
HETATM   36  C   UNL     2      -9.999   3.171  71.377  1.00  0.00    -0.097 C  
BRANCH  36  37
HETATM   37  C   UNL     2     -10.279   4.080  72.540  1.00  0.00    -0.233 C  
BRANCH  37  38
HETATM   38  C   UNL     2      -9.213   4.009  73.635  1.00  0.00    -0.101 C  
BRANCH  38  39
HETATM   39  C   UNL     2      -8.207   5.151  73.614  1.00  0.00    -0.109 C  
HETATM   40  C   UNL     2      -8.741   6.583  73.666  1.00  0.00    -0.124 C  
HETATM   41  O   UNL     2      -7.971   7.445  73.159  1.00  0.00    -0.097 OA 
HETATM   42  O   UNL     2      -9.849   6.823  74.247  1.00  0.00    -0.283 OA 
ENDBRANCH  38  39
ENDBRANCH  37  38
ENDBRANCH  36  37
ENDBRANCH  34  35
ENDBRANCH  31  34
ENDBRANCH  24  25
ENDBRANCH  17  18
ENDBRANCH  16  17
ENDBRANCH   6  16
TORSDOF 9
ENDMDL
MODEL      207
REMARK 921   NORMALIZED FREE ENERGY PREDICTED BY IDOCK:   -4.59 KCAL/MOL
REMARK 922        TOTAL FREE ENERGY PREDICTED BY IDOCK:   -8.94 KCAL/MOL
REMARK 923 INTER-LIGAND FREE ENERGY PREDICTED BY IDOCK:   -7.28 KCAL/MOL
REMARK 924 INTRA-LIGAND FREE ENERGY PREDICTED BY IDOCK:   -1.65 KCAL/MOL
REMARK 927      BINDING AFFINITY PREDICTED BY RF-SCORE:    0.00 PKD
ROOT
HETATM    1  O   UNL     1     -11.222  14.864  66.005  1.00  0.00    -0.337 OA 
HETATM    2  C   UNL     1     -10.399  13.809  66.492  1.00  0.00    -0.286 C  
HETATM    3  H   UNL     1     -11.482  14.720  65.103  1.00  0.00     0.000 HD 
HETATM    4  C   UNL     2     -14.371   8.223  71.696  1.00  0.00    -0.561 C  
HETATM    5  C   UNL     1      -9.974  14.045  67.971  1.00  0.00    -0.235 C  
HETATM    6  C   UNL     2     -13.825   9.563  72.166  1.00  0.00    -0.376 C  
HETATM    7  C   UNL     1     -11.248  14.230  68.842  1.00  0.00    -0.264 C  
HETATM    8  N   UNL     1      -9.250  12.807  68.400  1.00  0.00    -0.327 NA 
HETATM    9  C   UNL     1      -8.959  15.159  68.177  1.00  0.00    -0.174 C  
HETATM   10  H   UNL     1      -7.055  15.404  67.800  1.00  0.00     0.000 HD 
HETATM   11  H   UNL     1     -12.889  13.209  69.255  1.00  0.00     0.000 HD 
HETATM   12  H2  UNL     1      -8.471  12.560  67.789  1.00  0.00     0.000 HD 
HETATM   13  O   UNL     1     -12.112  13.096  68.723  1.00  0.00    -0.310 OA 
HETATM   14  O   UNL     1      -7.690  14.708  67.672  1.00  0.00    -0.145 OA 
HETATM   15  H1  UNL     1      -8.972  12.961  69.369  1.00  0.00     0.000 HD 
ENDROOT
BRANCH   6  16
HETATM   16  C   UNL     2     -12.423   9.875  71.640  1.00  0.00    -0.507 C  
BRANCH  16  17
HETATM   17  C   UNL     2     -11.397   8.753  71.823  1.00  0.00    -0.409 C  
BRANCH  17  18
HETATM   18  C   UNL     2      -9.921   9.192  71.676  1.00  0.00    -0.319 C  
HETATM   19  C   UNL     2      -9.193   8.893  70.345  1.00  0.00    -0.194 C  
HETATM   20  C   UNL     2      -7.800   9.526  70.223  1.00  0.00    -0.180 C  
HETATM   21  O   UNL     2      -9.989   9.452  69.294  1.00  0.00    -0.168 OA 
HETATM   22  C   UNL     2      -9.095   7.409  70.130  1.00  0.00    -0.148 C  
HETATM   23  H   UNL     2      -9.542   9.267  68.477  1.00  0.00     0.000 HD 
HETATM   24  C   UNL     2      -8.291   6.541  70.768  1.00  0.00    -0.130 C  
BRANCH  24  25
HETATM   25  C   UNL     2      -8.254   5.048  70.532  1.00  0.00    -0.100 C  
HETATM   26  C   UNL     2      -8.951   4.173  71.600  1.00  0.00    -0.119 C  
HETATM   27  C   UNL     2      -8.990   2.822  70.930  1.00  0.00    -0.163 C  
HETATM   28  O   UNL     2     -10.310   4.508  71.865  1.00  0.00    -0.189 OA 
HETATM   29  H   UNL     2     -10.738   3.972  72.521  1.00  0.00     0.000 HD 
HETATM   30  C   UNL     2      -9.404   3.146  69.495  1.00  0.00    -0.158 C  
HETATM   31  C   UNL     2      -8.866   4.568  69.181  1.00  0.00    -0.127 C  
HETATM   32  O   UNL     2      -8.903   2.115  68.659  1.00  0.00    -0.079 OA 
HETATM   33  H   UNL     2      -9.160   2.317  67.767  1.00  0.00     0.000 HD 
BRANCH  31  34
HETATM   34  C   UNL     2      -7.874   4.651  67.999  1.00  0.00    -0.081 C  
BRANCH  34  35
HETATM   35  C   UNL     2      -8.177   5.763  67.020  1.00  0.00    -0.101 C  
HETATM   36  C   UNL     2      -9.292   5.966  66.302  1.00  0.00    -0.168 C  
BRANCH  36  37
HETATM   37  C   UNL     2     -10.540   5.131  66.288  1.00  0.00    -0.325 C  
BRANCH  37  38
HETATM   38  C   UNL     2     -10.650   4.226  65.060  1.00  0.00    -0.168 C  
BRANCH  38  39
HETATM   39  C   UNL     2      -9.414   3.386  64.778  1.00  0.00    -0.155 C  
HETATM   40  C   UNL     2      -8.576   3.727  63.545  1.00  0.00    -0.093 C  
HETATM   41  O   UNL     2      -7.907   2.760  63.084  1.00  0.00    -0.066 OA 
HETATM   42  O   UNL     2      -8.550   4.925  63.111  1.00  0.00    -0.116 OA 
ENDBRANCH  38  39
ENDBRANCH  37  38
ENDBRANCH  36  37
ENDBRANCH  34  35
ENDBRANCH  31  34
ENDBRANCH  24  25
ENDBRANCH  17  18
ENDBRANCH  16  17
ENDBRANCH   6  16
TORSDOF 9
ENDMDL
MODEL      208
REMARK 921   NORMALIZED FREE ENERGY PREDICTED BY IDOCK:   -4.59 KCAL/MOL
REMARK 922        TOTAL FREE ENERGY PREDICTED BY IDOCK:   -8.93 KCAL/MOL
REMARK 923 INTER-LIGAND FREE ENERGY PREDICTED BY IDOCK:   -7.30 KCAL/MOL
REMARK 924 INTRA-LIGAND FREE ENERGY PREDICTED BY IDOCK:   -1.63 KCAL/MOL
REMARK 927      BINDING AFFINITY PREDICTED BY RF-SCORE:    0.00 PKD
ROOT
HETATM    1  O   UNL     1      -9.264   5.000  70.850  1.00  0.00    -0.137 OA 
HETATM    2  C   UNL     1     -10.061   5.345  69.721  1.00  0.00    -0.249 C  
HETATM    3  H   UNL     1      -9.041   4.077  70.855  1.00  0.00     0.000 HD 
HETATM    4  C   UNL     2      -5.852   9.424  63.421  1.00  0.00    -0.089 C  
HETATM    5  C   UNL     1     -10.425   6.858  69.713  1.00  0.00    -0.217 C  
HETATM    6  C   UNL     2      -6.384  10.125  64.662  1.00  0.00    -0.130 C  
HETATM    7  C   UNL     1      -9.118   7.696  69.772  1.00  0.00    -0.147 C  
HETATM    8  N   UNL     1     -11.126   7.112  68.415  1.00  0.00    -0.469 NA 
HETATM    9  C   UNL     1     -11.436   7.280  70.769  1.00  0.00    -0.299 C  
HETATM   10  H   UNL     1     -13.355   7.024  71.050  1.00  0.00     0.000 HD 
HETATM   11  H   UNL     1      -7.456   7.874  68.716  1.00  0.00     0.000 HD 
HETATM   12  H2  UNL     1     -11.928   6.501  68.260  1.00  0.00     0.000 HD 
HETATM   13  O   UNL     1      -8.254   7.362  68.680  1.00  0.00    -0.123 OA 
HETATM   14  O   UNL     1     -12.723   6.761  70.391  1.00  0.00    -0.053 OA 
HETATM   15  H1  UNL     1     -11.364   8.104  68.409  1.00  0.00     0.000 HD 
ENDROOT
BRANCH   6  16
HETATM   16  C   UNL     2      -7.808   9.712  65.038  1.00  0.00    -0.118 C  
BRANCH  16  17
HETATM   17  C   UNL     2      -8.895  10.165  64.059  1.00  0.00    -0.247 C  
BRANCH  17  18
HETATM   18  C   UNL     2     -10.269  10.460  64.705  1.00  0.00    -0.319 C  
HETATM   19  C   UNL     2     -10.563  11.899  65.186  1.00  0.00    -0.287 C  
HETATM   20  C   UNL     2     -12.010  12.138  65.641  1.00  0.00    -0.280 C  
HETATM   21  O   UNL     2     -10.335  12.771  64.072  1.00  0.00    -0.416 OA 
HETATM   22  C   UNL     2      -9.617  12.281  66.290  1.00  0.00    -0.248 C  
HETATM   23  H   UNL     2     -10.515  13.655  64.368  1.00  0.00     0.000 HD 
HETATM   24  C   UNL     2      -9.628  11.850  67.562  1.00  0.00    -0.175 C  
BRANCH  24  25
HETATM   25  C   UNL     2      -8.630  12.245  68.628  1.00  0.00     0.019 C  
HETATM   26  C   UNL     2      -7.646  11.141  69.079  1.00  0.00    -0.119 C  
HETATM   27  C   UNL     2      -6.641  11.922  69.890  1.00  0.00     0.029 C  
HETATM   28  O   UNL     2      -6.899  10.529  68.032  1.00  0.00    -0.071 OA 
HETATM   29  H   UNL     2      -6.295   9.851  68.309  1.00  0.00     0.000 HD 
HETATM   30  C   UNL     2      -6.402  13.176  69.050  1.00  0.00    -0.099 C  
HETATM   31  C   UNL     2      -7.715  13.457  68.273  1.00  0.00    -0.141 C  
HETATM   32  O   UNL     2      -5.991  14.212  69.930  1.00  0.00    -0.114 OA 
HETATM   33  H   UNL     2      -5.842  14.991  69.407  1.00  0.00     0.000 HD 
BRANCH  31  34
HETATM   34  C   UNL     2      -8.375  14.824  68.564  1.00  0.00    -0.160 C  
BRANCH  34  35
HETATM   35  C   UNL     2      -8.919  15.516  67.335  1.00  0.00    -0.203 C  
HETATM   36  C   UNL     2      -9.926  16.399  67.249  1.00  0.00    -0.258 C  
BRANCH  36  37
HETATM   37  C   UNL     2     -10.779  16.931  68.365  1.00  0.00    -0.368 C  
BRANCH  37  38
HETATM   38  C   UNL     2     -11.409  15.833  69.224  1.00  0.00    -0.350 C  
BRANCH  38  39
HETATM   39  C   UNL     2     -10.943  15.814  70.672  1.00  0.00    -0.341 C  
HETATM   40  C   UNL     2     -11.714  14.943  71.665  1.00  0.00    -0.332 C  
HETATM   41  O   UNL     2     -11.633  15.326  72.866  1.00  0.00    -0.436 OA 
HETATM   42  O   UNL     2     -12.311  13.895  71.256  1.00  0.00    -0.352 OA 
ENDBRANCH  38  39
ENDBRANCH  37  38
ENDBRANCH  36  37
ENDBRANCH  34  35
ENDBRANCH  31  34
ENDBRANCH  24  25
ENDBRANCH  17  18
ENDBRANCH  16  17
ENDBRANCH   6  16
TORSDOF 9
ENDMDL
MODEL      209
REMARK 921   NORMALIZED FREE ENERGY PREDICTED BY IDOCK:   -4.59 KCAL/MOL
REMARK 922        TOTAL FREE ENERGY PREDICTED BY IDOCK:   -8.93 KCAL/MOL
REMARK 923 INTER-LIGAND FREE ENERGY PREDICTED BY IDOCK:   -7.41 KCAL/MOL
REMARK 924 INTRA-LIGAND FREE ENERGY PREDICTED BY IDOCK:   -1.51 KCAL/MOL
REMARK 927      BINDING AFFINITY PREDICTED BY RF-SCORE:    0.00 PKD
ROOT
HETATM    1  O   UNL     1      -6.505   8.073  72.881  1.00  0.00    -0.067 OA 
HETATM    2  C   UNL     1      -7.327   8.500  71.800  1.00  0.00    -0.095 C  
HETATM    3  H   UNL     1      -7.017   7.880  73.658  1.00  0.00     0.000 HD 
HETATM    4  C   UNL     2      -8.699   2.559  65.727  1.00  0.00    -0.124 C  
HETATM    5  C   UNL     1      -6.487   8.817  70.528  1.00  0.00    -0.040 C  
HETATM    6  C   UNL     2      -7.444   3.416  65.791  1.00  0.00    -0.077 C  
HETATM    7  C   UNL     1      -5.644   7.567  70.151  1.00  0.00    -0.023 C  
HETATM    8  N   UNL     1      -7.473   9.104  69.438  1.00  0.00    -0.075 NA 
HETATM    9  C   UNL     1      -5.649  10.083  70.612  1.00  0.00    -0.070 C  
HETATM   10  H   UNL     1      -6.012  12.005  70.607  1.00  0.00     0.000 HD 
HETATM   11  H   UNL     1      -5.974   5.667  69.718  1.00  0.00     0.000 HD 
HETATM   12  H2  UNL     1      -8.140   9.838  69.676  1.00  0.00     0.000 HD 
HETATM   13  O   UNL     1      -6.489   6.430  69.948  1.00  0.00    -0.043 OA 
HETATM   14  O   UNL     1      -6.536  11.214  70.554  1.00  0.00    -0.306 OA 
HETATM   15  H1  UNL     1      -6.923   9.311  68.604  1.00  0.00     0.000 HD 
ENDROOT
BRANCH   6  16
HETATM   16  C   UNL     2      -7.722   4.896  66.061  1.00  0.00    -0.091 C  
BRANCH  16  17
HETATM   17  C   UNL     2      -9.178   5.231  66.400  1.00  0.00    -0.145 C  
BRANCH  17  18
HETATM   18  C   UNL     2      -9.368   6.086  67.674  1.00  0.00    -0.112 C  
HETATM   19  C   UNL     2     -10.541   7.092  67.718  1.00  0.00    -0.225 C  
HETATM   20  C   UNL     2     -10.761   7.758  69.084  1.00  0.00    -0.139 C  
HETATM   21  O   UNL     2     -11.736   6.360  67.423  1.00  0.00    -0.580 OA 
HETATM   22  C   UNL     2     -10.358   8.148  66.665  1.00  0.00    -0.284 C  
HETATM   23  H   UNL     2     -12.456   6.978  67.449  1.00  0.00     0.000 HD 
HETATM   24  C   UNL     2      -9.481   9.166  66.670  1.00  0.00    -0.242 C  
BRANCH  24  25
HETATM   25  C   UNL     2      -9.318  10.186  65.566  1.00  0.00    -0.260 C  
HETATM   26  C   UNL     2      -8.493   9.733  64.339  1.00  0.00    -0.179 C  
HETATM   27  C   UNL     2      -8.774  10.833  63.344  1.00  0.00    -0.123 C  
HETATM   28  O   UNL     2      -8.941   8.532  63.718  1.00  0.00    -0.368 OA 
HETATM   29  H   UNL     2      -8.435   8.253  62.964  1.00  0.00     0.000 HD 
HETATM   30  C   UNL     2     -10.275  11.074  63.491  1.00  0.00    -0.365 C  
HETATM   31  C   UNL     2     -10.645  10.734  64.959  1.00  0.00    -0.243 C  
HETATM   32  O   UNL     2     -10.537  12.413  63.099  1.00  0.00    -0.555 OA 
HETATM   33  H   UNL     2     -11.471  12.562  63.191  1.00  0.00     0.000 HD 
BRANCH  31  34
HETATM   34  C   UNL     2     -11.252  11.899  65.773  1.00  0.00    -0.365 C  
BRANCH  34  35
HETATM   35  C   UNL     2     -10.224  12.770  66.459  1.00  0.00    -0.261 C  
HETATM   36  C   UNL     2     -10.423  13.843  67.239  1.00  0.00    -0.271 C  
BRANCH  36  37
HETATM   37  C   UNL     2     -11.734  14.458  67.638  1.00  0.00    -0.421 C  
BRANCH  37  38
HETATM   38  C   UNL     2     -11.585  15.606  68.639  1.00  0.00    -0.391 C  
BRANCH  38  39
HETATM   39  C   UNL     2     -10.170  15.818  69.155  1.00  0.00    -0.231 C  
HETATM   40  C   UNL     2      -9.196  16.609  68.281  1.00  0.00    -0.217 C  
HETATM   41  O   UNL     2      -7.978  16.340  68.482  1.00  0.00    -0.165 OA 
HETATM   42  O   UNL     2      -9.640  17.498  67.484  1.00  0.00    -0.258 OA 
ENDBRANCH  38  39
ENDBRANCH  37  38
ENDBRANCH  36  37
ENDBRANCH  34  35
ENDBRANCH  31  34
ENDBRANCH  24  25
ENDBRANCH  17  18
ENDBRANCH  16  17
ENDBRANCH   6  16
TORSDOF 9
ENDMDL
MODEL      210
REMARK 921   NORMALIZED FREE ENERGY PREDICTED BY IDOCK:   -4.58 KCAL/MOL
REMARK 922        TOTAL FREE ENERGY PREDICTED BY IDOCK:   -8.91 KCAL/MOL
REMARK 923 INTER-LIGAND FREE ENERGY PREDICTED BY IDOCK:   -7.07 KCAL/MOL
REMARK 924 INTRA-LIGAND FREE ENERGY PREDICTED BY IDOCK:   -1.85 KCAL/MOL
REMARK 927      BINDING AFFINITY PREDICTED BY RF-SCORE:    0.00 PKD
ROOT
HETATM    1  O   UNL     1     -13.383  15.998  70.183  1.00  0.00    -0.564 OA 
HETATM    2  C   UNL     1     -12.616  15.633  69.040  1.00  0.00     0.456 C  
HETATM    3  H   UNL     1     -14.304  15.795  70.069  1.00  0.00     0.000 HD 
HETATM    4  C   UNL     2      -8.024   8.408  69.913  1.00  0.00    -0.107 C  
HETATM    5  C   UNL     1     -11.107  15.966  69.228  1.00  0.00    -0.312 C  
HETATM    6  C   UNL     2      -7.563   9.761  70.434  1.00  0.00    -0.165 C  
HETATM    7  C   UNL     1     -10.590  15.267  70.516  1.00  0.00    -0.157 C  
HETATM    8  N   UNL     1     -10.403  15.402  68.034  1.00  0.00    -0.245 NA 
HETATM    9  C   UNL     1     -10.768  17.448  69.193  1.00  0.00    -0.034 C  
HETATM   10  H   UNL     1     -10.697  18.835  67.815  1.00  0.00     0.000 HD 
HETATM   11  H   UNL     1     -10.491  13.427  71.233  1.00  0.00     0.000 HD 
HETATM   12  H2  UNL     1     -10.783  15.730  67.146  1.00  0.00     0.000 HD 
HETATM   13  O   UNL     1     -10.807  13.854  70.446  1.00  0.00     0.397 OA 
HETATM   14  O   UNL     1     -10.908  17.908  67.838  1.00  0.00    -0.365 OA 
HETATM   15  H1  UNL     1      -9.415  15.619  68.157  1.00  0.00     0.000 HD 
ENDROOT
BRANCH   6  16
HETATM   16  C   UNL     2      -7.763  10.905  69.438  1.00  0.00    -0.072 C  
BRANCH  16  17
HETATM   17  C   UNL     2      -6.793  10.909  68.252  1.00  0.00    -0.067 C  
BRANCH  17  18
HETATM   18  C   UNL     2      -6.593  12.288  67.583  1.00  0.00    -0.122 C  
HETATM   19  C   UNL     2      -7.678  13.370  67.786  1.00  0.00    -0.161 C  
HETATM   20  C   UNL     2      -7.307  14.758  67.243  1.00  0.00    -0.147 C  
HETATM   21  O   UNL     2      -7.864  13.521  69.198  1.00  0.00    -0.332 OA 
HETATM   22  C   UNL     2      -8.978  12.921  67.181  1.00  0.00    -0.219 C  
HETATM   23  H   UNL     2      -8.531  14.185  69.323  1.00  0.00     0.000 HD 
HETATM   24  C   UNL     2      -9.291  12.849  65.876  1.00  0.00     0.028 C  
BRANCH  24  25
HETATM   25  C   UNL     2     -10.609  12.359  65.319  1.00  0.00    -0.322 C  
HETATM   26  C   UNL     2     -11.860  13.177  65.715  1.00  0.00    -0.397 C  
HETATM   27  C   UNL     2     -12.911  12.622  64.785  1.00  0.00    -0.349 C  
HETATM   28  O   UNL     2     -11.790  14.570  65.424  1.00  0.00    -0.354 OA 
HETATM   29  H   UNL     2     -12.559  15.073  65.667  1.00  0.00     0.000 HD 
HETATM   30  C   UNL     2     -12.183  12.515  63.445  1.00  0.00    -0.517 C  
HETATM   31  C   UNL     2     -10.685  12.264  63.764  1.00  0.00    -0.494 C  
HETATM   32  O   UNL     2     -12.817  11.494  62.691  1.00  0.00    -0.743 OA 
HETATM   33  H   UNL     2     -12.364  11.428  61.858  1.00  0.00     0.000 HD 
BRANCH  31  34
HETATM   34  C   UNL     2     -10.104  10.946  63.205  1.00  0.00    -0.368 C  
BRANCH  34  35
HETATM   35  C   UNL     2      -8.647  11.036  62.812  1.00  0.00    -0.205 C  
HETATM   36  C   UNL     2      -7.645  10.195  63.112  1.00  0.00    -0.147 C  
BRANCH  36  37
HETATM   37  C   UNL     2      -7.718   8.933  63.924  1.00  0.00    -0.129 C  
BRANCH  37  38
HETATM   38  C   UNL     2      -7.657   9.179  65.432  1.00  0.00    -0.097 C  
BRANCH  38  39
HETATM   39  C   UNL     2      -8.968   8.943  66.167  1.00  0.00    -0.218 C  
HETATM   40  C   UNL     2      -9.343   7.505  66.528  1.00  0.00    -0.181 C  
HETATM   41  O   UNL     2     -10.583   7.307  66.660  1.00  0.00    -0.249 OA 
HETATM   42  O   UNL     2      -8.426   6.644  66.729  1.00  0.00    -0.113 OA 
ENDBRANCH  38  39
ENDBRANCH  37  38
ENDBRANCH  36  37
ENDBRANCH  34  35
ENDBRANCH  31  34
ENDBRANCH  24  25
ENDBRANCH  17  18
ENDBRANCH  16  17
ENDBRANCH   6  16
TORSDOF 9
ENDMDL
MODEL      211
REMARK 921   NORMALIZED FREE ENERGY PREDICTED BY IDOCK:   -4.56 KCAL/MOL
REMARK 922        TOTAL FREE ENERGY PREDICTED BY IDOCK:   -8.88 KCAL/MOL
REMARK 923 INTER-LIGAND FREE ENERGY PREDICTED BY IDOCK:   -7.20 KCAL/MOL
REMARK 924 INTRA-LIGAND FREE ENERGY PREDICTED BY IDOCK:   -1.68 KCAL/MOL
REMARK 927      BINDING AFFINITY PREDICTED BY RF-SCORE:    0.00 PKD
ROOT
HETATM    1  O   UNL     1      -9.774   4.865  72.664  1.00  0.00    -0.145 OA 
HETATM    2  C   UNL     1     -10.465   5.415  71.547  1.00  0.00    -0.223 C  
HETATM    3  H   UNL     1      -9.926   3.930  72.747  1.00  0.00     0.000 HD 
HETATM    4  C   UNL     2      -5.530   7.067  64.693  1.00  0.00    -0.032 C  
HETATM    5  C   UNL     1     -10.215   6.945  71.411  1.00  0.00    -0.197 C  
HETATM    6  C   UNL     2      -5.648   8.004  65.885  1.00  0.00    -0.036 C  
HETATM    7  C   UNL     1      -8.686   7.205  71.327  1.00  0.00    -0.128 C  
HETATM    8  N   UNL     1     -10.866   7.362  70.129  1.00  0.00    -0.252 NA 
HETATM    9  C   UNL     1     -10.896   7.802  72.467  1.00  0.00    -0.328 C  
HETATM   10  H   UNL     1     -12.734   8.339  72.862  1.00  0.00     0.000 HD 
HETATM   11  H   UNL     1      -7.175   6.643  70.182  1.00  0.00     0.000 HD 
HETATM   12  H2  UNL     1     -11.851   7.105  70.071  1.00  0.00     0.000 HD 
HETATM   13  O   UNL     1      -8.110   6.484  70.233  1.00  0.00    -0.116 OA 
HETATM   14  O   UNL     1     -12.309   7.804  72.202  1.00  0.00    -0.301 OA 
HETATM   15  H1  UNL     1     -10.702   8.365  70.039  1.00  0.00     0.000 HD 
ENDROOT
BRANCH   6  16
HETATM   16  C   UNL     2      -7.086   8.210  66.366  1.00  0.00    -0.075 C  
BRANCH  16  17
HETATM   17  C   UNL     2      -7.227   9.013  67.662  1.00  0.00    -0.083 C  
BRANCH  17  18
HETATM   18  C   UNL     2      -8.678   9.170  68.174  1.00  0.00    -0.129 C  
HETATM   19  C   UNL     2      -9.687   9.947  67.297  1.00  0.00    -0.171 C  
HETATM   20  C   UNL     2     -11.139   9.892  67.794  1.00  0.00    -0.196 C  
HETATM   21  O   UNL     2      -9.676   9.338  66.001  1.00  0.00    -0.254 OA 
HETATM   22  C   UNL     2      -9.255  11.379  67.153  1.00  0.00    -0.170 C  
HETATM   23  H   UNL     2     -10.296   9.815  65.462  1.00  0.00     0.000 HD 
HETATM   24  C   UNL     2      -9.313  12.348  68.082  1.00  0.00    -0.209 C  
BRANCH  24  25
HETATM   25  C   UNL     2      -8.835  13.770  67.893  1.00  0.00    -0.186 C  
HETATM   26  C   UNL     2      -7.303  13.966  67.805  1.00  0.00    -0.162 C  
HETATM   27  C   UNL     2      -7.192  15.395  67.333  1.00  0.00    -0.242 C  
HETATM   28  O   UNL     2      -6.649  13.183  66.811  1.00  0.00    -0.329 OA 
HETATM   29  H   UNL     2      -5.708  13.303  66.757  1.00  0.00     0.000 HD 
HETATM   30  C   UNL     2      -8.266  15.499  66.251  1.00  0.00     0.158 C  
HETATM   31  C   UNL     2      -9.392  14.502  66.635  1.00  0.00    -0.301 C  
HETATM   32  O   UNL     2      -8.667  16.858  66.172  1.00  0.00    -0.389 OA 
HETATM   33  H   UNL     2      -9.335  16.922  65.499  1.00  0.00     0.000 HD 
BRANCH  31  34
HETATM   34  C   UNL     2     -10.783  15.135  66.863  1.00  0.00    -0.308 C  
BRANCH  34  35
HETATM   35  C   UNL     2     -11.928  14.153  66.760  1.00  0.00    -0.475 C  
HETATM   36  C   UNL     2     -12.277  13.381  65.720  1.00  0.00    -0.507 C  
BRANCH  36  37
HETATM   37  C   UNL     2     -11.609  13.292  64.377  1.00  0.00    -0.423 C  
BRANCH  37  38
HETATM   38  C   UNL     2     -10.889  11.962  64.146  1.00  0.00    -0.412 C  
BRANCH  38  39
HETATM   39  C   UNL     2      -9.589  12.073  63.364  1.00  0.00    -0.093 C  
HETATM   40  C   UNL     2      -8.912  10.780  62.904  1.00  0.00    -0.274 C  
HETATM   41  O   UNL     2      -7.666  10.878  62.728  1.00  0.00    -0.057 OA 
HETATM   42  O   UNL     2      -9.619   9.745  62.673  1.00  0.00    -0.153 OA 
ENDBRANCH  38  39
ENDBRANCH  37  38
ENDBRANCH  36  37
ENDBRANCH  34  35
ENDBRANCH  31  34
ENDBRANCH  24  25
ENDBRANCH  17  18
ENDBRANCH  16  17
ENDBRANCH   6  16
TORSDOF 9
ENDMDL
MODEL      212
REMARK 921   NORMALIZED FREE ENERGY PREDICTED BY IDOCK:   -4.55 KCAL/MOL
REMARK 922        TOTAL FREE ENERGY PREDICTED BY IDOCK:   -8.87 KCAL/MOL
REMARK 923 INTER-LIGAND FREE ENERGY PREDICTED BY IDOCK:   -7.22 KCAL/MOL
REMARK 924 INTRA-LIGAND FREE ENERGY PREDICTED BY IDOCK:   -1.65 KCAL/MOL
REMARK 927      BINDING AFFINITY PREDICTED BY RF-SCORE:    0.00 PKD
ROOT
HETATM    1  O   UNL     1      -8.767   6.973  62.733  1.00  0.00    -0.335 OA 
HETATM    2  C   UNL     1      -8.013   7.562  63.788  1.00  0.00    -0.082 C  
HETATM    3  H   UNL     1      -9.105   6.119  62.976  1.00  0.00     0.000 HD 
HETATM    4  C   UNL     2     -12.099  13.761  68.140  1.00  0.00    -0.316 C  
HETATM    5  C   UNL     1      -7.461   8.962  63.391  1.00  0.00    -0.105 C  
HETATM    6  C   UNL     2     -11.397  13.995  66.811  1.00  0.00    -0.346 C  
HETATM    7  C   UNL     1      -8.644   9.869  62.953  1.00  0.00    -0.194 C  
HETATM    8  N   UNL     1      -6.826   9.526  64.624  1.00  0.00    -0.096 NA 
HETATM    9  C   UNL     1      -6.333   8.940  62.370  1.00  0.00    -0.095 C  
HETATM   10  H   UNL     1      -4.448   8.420  62.379  1.00  0.00     0.000 HD 
HETATM   11  H   UNL     1     -10.340  10.525  63.730  1.00  0.00     0.000 HD 
HETATM   12  H2  UNL     1      -6.121   8.913  65.034  1.00  0.00     0.000 HD 
HETATM   13  O   UNL     1      -9.617   9.971  63.997  1.00  0.00    -0.285 OA 
HETATM   14  O   UNL     1      -5.153   8.434  63.016  1.00  0.00    -0.060 OA 
HETATM   15  H1  UNL     1      -6.464  10.443  64.364  1.00  0.00     0.000 HD 
ENDROOT
BRANCH   6  16
HETATM   16  C   UNL     2     -10.014  13.346  66.723  1.00  0.00    -0.264 C  
BRANCH  16  17
HETATM   17  C   UNL     2      -8.848  14.245  67.145  1.00  0.00    -0.243 C  
BRANCH  17  18
HETATM   18  C   UNL     2      -7.929  13.648  68.237  1.00  0.00    -0.150 C  
HETATM   19  C   UNL     2      -7.206  12.314  67.941  1.00  0.00    -0.106 C  
HETATM   20  C   UNL     2      -6.178  11.896  69.002  1.00  0.00    -0.077 C  
HETATM   21  O   UNL     2      -6.482  12.489  66.718  1.00  0.00    -0.468 OA 
HETATM   22  C   UNL     2      -8.209  11.212  67.747  1.00  0.00    -0.119 C  
HETATM   23  H   UNL     2      -6.038  11.670  66.535  1.00  0.00     0.000 HD 
HETATM   24  C   UNL     2      -8.950  10.605  68.689  1.00  0.00    -0.170 C  
BRANCH  24  25
HETATM   25  C   UNL     2      -9.970   9.518  68.434  1.00  0.00    -0.184 C  
HETATM   26  C   UNL     2      -9.636   8.526  67.296  1.00  0.00    -0.171 C  
HETATM   27  C   UNL     2     -10.667   7.444  67.504  1.00  0.00    -0.310 C  
HETATM   28  O   UNL     2      -8.372   7.877  67.409  1.00  0.00    -0.121 OA 
HETATM   29  H   UNL     2      -8.167   7.268  66.710  1.00  0.00     0.000 HD 
HETATM   30  C   UNL     2     -10.675   7.244  69.019  1.00  0.00    -0.166 C  
HETATM   31  C   UNL     2     -10.299   8.608  69.656  1.00  0.00    -0.213 C  
HETATM   32  O   UNL     2     -11.952   6.743  69.380  1.00  0.00    -0.573 OA 
HETATM   33  H   UNL     2     -11.957   6.618  70.322  1.00  0.00     0.000 HD 
BRANCH  31  34
HETATM   34  C   UNL     2     -11.365   9.212  70.597  1.00  0.00    -0.323 C  
BRANCH  34  35
HETATM   35  C   UNL     2     -11.662   8.366  71.814  1.00  0.00    -0.371 C  
HETATM   36  C   UNL     2     -10.834   8.013  72.810  1.00  0.00    -0.438 C  
BRANCH  36  37
HETATM   37  C   UNL     2      -9.386   8.375  72.971  1.00  0.00    -0.249 C  
BRANCH  37  38
HETATM   38  C   UNL     2      -8.458   7.159  73.006  1.00  0.00    -0.142 C  
BRANCH  38  39
HETATM   39  C   UNL     2      -7.680   6.919  71.721  1.00  0.00    -0.095 C  
HETATM   40  C   UNL     2      -7.047   8.124  71.025  1.00  0.00    -0.056 C  
HETATM   41  O   UNL     2      -6.869   7.976  69.784  1.00  0.00    -0.043 OA 
HETATM   42  O   UNL     2      -6.692   9.136  71.713  1.00  0.00    -0.251 OA 
ENDBRANCH  38  39
ENDBRANCH  37  38
ENDBRANCH  36  37
ENDBRANCH  34  35
ENDBRANCH  31  34
ENDBRANCH  24  25
ENDBRANCH  17  18
ENDBRANCH  16  17
ENDBRANCH   6  16
TORSDOF 9
ENDMDL
MODEL      213
REMARK 921   NORMALIZED FREE ENERGY PREDICTED BY IDOCK:   -4.54 KCAL/MOL
REMARK 922        TOTAL FREE ENERGY PREDICTED BY IDOCK:   -8.86 KCAL/MOL
REMARK 923 INTER-LIGAND FREE ENERGY PREDICTED BY IDOCK:   -7.70 KCAL/MOL
REMARK 924 INTRA-LIGAND FREE ENERGY PREDICTED BY IDOCK:   -1.16 KCAL/MOL
REMARK 927      BINDING AFFINITY PREDICTED BY RF-SCORE:    0.00 PKD
ROOT
HETATM    1  O   UNL     1      -9.363   8.992  62.340  1.00  0.00    -0.561 OA 
HETATM    2  C   UNL     1      -8.340   8.208  62.945  1.00  0.00    -0.058 C  
HETATM    3  H   UNL     1      -9.850   8.496  61.692  1.00  0.00     0.000 HD 
HETATM    4  C   UNL     2     -10.146   5.394  70.874  1.00  0.00    -0.286 C  
HETATM    5  C   UNL     1      -7.542   9.021  64.006  1.00  0.00    -0.118 C  
HETATM    6  C   UNL     2      -9.620   6.791  70.582  1.00  0.00    -0.174 C  
HETATM    7  C   UNL     1      -8.533   9.588  65.061  1.00  0.00    -0.154 C  
HETATM    8  N   UNL     1      -6.613   8.049  64.663  1.00  0.00    -0.056 NA 
HETATM    9  C   UNL     1      -6.621  10.088  63.437  1.00  0.00    -0.135 C  
HETATM   10  H   UNL     1      -4.931  10.098  62.452  1.00  0.00     0.000 HD 
HETATM   11  H   UNL     1      -9.888   8.879  66.313  1.00  0.00     0.000 HD 
HETATM   12  H2  UNL     1      -6.016   7.548  64.004  1.00  0.00     0.000 HD 
HETATM   13  O   UNL     1      -9.283   8.533  65.669  1.00  0.00    -0.178 OA 
HETATM   14  O   UNL     1      -5.507   9.431  62.808  1.00  0.00    -0.082 OA 
HETATM   15  H1  UNL     1      -6.090   8.581  65.359  1.00  0.00     0.000 HD 
ENDROOT
BRANCH   6  16
HETATM   16  C   UNL     2      -8.457   6.815  69.587  1.00  0.00    -0.133 C  
BRANCH  16  17
HETATM   17  C   UNL     2      -8.513   7.942  68.551  1.00  0.00    -0.128 C  
BRANCH  17  18
HETATM   18  C   UNL     2      -7.360   8.968  68.646  1.00  0.00    -0.077 C  
HETATM   19  C   UNL     2      -7.589  10.260  69.464  1.00  0.00    -0.150 C  
HETATM   20  C   UNL     2      -6.336  11.126  69.655  1.00  0.00    -0.119 C  
HETATM   21  O   UNL     2      -8.013   9.861  70.772  1.00  0.00    -0.395 OA 
HETATM   22  C   UNL     2      -8.681  11.082  68.840  1.00  0.00    -0.122 C  
HETATM   23  H   UNL     2      -8.154  10.654  71.274  1.00  0.00     0.000 HD 
HETATM   24  C   UNL     2      -8.616  11.806  67.709  1.00  0.00    -0.151 C  
BRANCH  24  25
HETATM   25  C   UNL     2      -9.759  12.593  67.109  1.00  0.00    -0.211 C  
HETATM   26  C   UNL     2     -10.912  11.760  66.500  1.00  0.00    -0.295 C  
HETATM   27  C   UNL     2     -11.976  12.807  66.274  1.00  0.00    -0.460 C  
HETATM   28  O   UNL     2     -11.497  10.803  67.377  1.00  0.00    -0.467 OA 
HETATM   29  H   UNL     2     -12.204  10.291  67.003  1.00  0.00     0.000 HD 
HETATM   30  C   UNL     2     -11.929  13.644  67.552  1.00  0.00    -0.358 C  
HETATM   31  C   UNL     2     -10.470  13.587  68.077  1.00  0.00    -0.245 C  
HETATM   32  O   UNL     2     -12.403  14.943  67.232  1.00  0.00    -0.412 OA 
HETATM   33  H   UNL     2     -12.374  15.464  68.026  1.00  0.00     0.000 HD 
BRANCH  31  34
HETATM   34  C   UNL     2      -9.753  14.951  68.183  1.00  0.00    -0.214 C  
BRANCH  34  35
HETATM   35  C   UNL     2      -8.553  15.087  67.275  1.00  0.00    -0.226 C  
HETATM   36  C   UNL     2      -8.124  16.171  66.610  1.00  0.00    -0.323 C  
BRANCH  36  37
HETATM   37  C   UNL     2      -8.734  17.543  66.601  1.00  0.00    -0.288 C  
BRANCH  37  38
HETATM   38  C   UNL     2      -7.699  18.666  66.508  1.00  0.00    -0.279 C  
BRANCH  38  39
HETATM   39  C   UNL     2      -7.189  19.172  67.849  1.00  0.00    -0.269 C  
HETATM   40  C   UNL     2      -6.243  18.273  68.646  1.00  0.00    -0.208 C  
HETATM   41  O   UNL     2      -6.254  18.478  69.892  1.00  0.00    -0.238 OA 
HETATM   42  O   UNL     2      -5.486  17.452  68.033  1.00  0.00    -0.129 OA 
ENDBRANCH  38  39
ENDBRANCH  37  38
ENDBRANCH  36  37
ENDBRANCH  34  35
ENDBRANCH  31  34
ENDBRANCH  24  25
ENDBRANCH  17  18
ENDBRANCH  16  17
ENDBRANCH   6  16
TORSDOF 9
ENDMDL
MODEL      214
REMARK 921   NORMALIZED FREE ENERGY PREDICTED BY IDOCK:   -4.53 KCAL/MOL
REMARK 922        TOTAL FREE ENERGY PREDICTED BY IDOCK:   -8.84 KCAL/MOL
REMARK 923 INTER-LIGAND FREE ENERGY PREDICTED BY IDOCK:   -7.41 KCAL/MOL
REMARK 924 INTRA-LIGAND FREE ENERGY PREDICTED BY IDOCK:   -1.43 KCAL/MOL
REMARK 927      BINDING AFFINITY PREDICTED BY RF-SCORE:    0.00 PKD
ROOT
HETATM    1  O   UNL     1      -7.576   5.231  72.374  1.00  0.00    -0.093 OA 
HETATM    2  C   UNL     1      -8.366   6.353  71.996  1.00  0.00    -0.109 C  
HETATM    3  H   UNL     1      -8.100   4.443  72.457  1.00  0.00     0.000 HD 
HETATM    4  C   UNL     2      -7.676   8.651  63.731  1.00  0.00    -0.136 C  
HETATM    5  C   UNL     1      -7.507   7.644  71.859  1.00  0.00    -0.081 C  
HETATM    6  C   UNL     2      -6.675   9.062  64.801  1.00  0.00    -0.076 C  
HETATM    7  C   UNL     1      -6.357   7.384  70.848  1.00  0.00    -0.039 C  
HETATM    8  N   UNL     1      -8.422   8.699  71.317  1.00  0.00    -0.164 NA 
HETATM    9  C   UNL     1      -7.009   8.225  73.173  1.00  0.00    -0.107 C  
HETATM   10  H   UNL     1      -7.820   9.165  74.684  1.00  0.00     0.000 HD 
HETATM   11  H   UNL     1      -6.177   6.810  68.964  1.00  0.00     0.000 HD 
HETATM   12  H2  UNL     1      -9.266   8.830  71.875  1.00  0.00     0.000 HD 
HETATM   13  O   UNL     1      -6.880   6.970  69.582  1.00  0.00    -0.048 OA 
HETATM   14  O   UNL     1      -8.131   8.802  73.863  1.00  0.00    -0.375 OA 
HETATM   15  H1  UNL     1      -7.859   9.544  71.227  1.00  0.00     0.000 HD 
ENDROOT
BRANCH   6  16
HETATM   16  C   UNL     2      -7.325   9.548  66.097  1.00  0.00    -0.093 C  
BRANCH  16  17
HETATM   17  C   UNL     2      -8.305   8.562  66.741  1.00  0.00    -0.109 C  
BRANCH  17  18
HETATM   18  C   UNL     2      -9.573   9.209  67.346  1.00  0.00    -0.193 C  
HETATM   19  C   UNL     2     -10.033  10.580  66.799  1.00  0.00    -0.204 C  
HETATM   20  C   UNL     2     -11.395  11.053  67.326  1.00  0.00    -0.265 C  
HETATM   21  O   UNL     2     -10.168  10.443  65.380  1.00  0.00    -0.292 OA 
HETATM   22  C   UNL     2      -8.991  11.626  67.079  1.00  0.00    -0.182 C  
HETATM   23  H   UNL     2     -10.450  11.285  65.044  1.00  0.00     0.000 HD 
HETATM   24  C   UNL     2      -8.698  12.193  68.261  1.00  0.00    -0.178 C  
BRANCH  24  25
HETATM   25  C   UNL     2      -7.615  13.223  68.492  1.00  0.00    -0.128 C  
HETATM   26  C   UNL     2      -6.191  12.826  68.038  1.00  0.00    -0.103 C  
HETATM   27  C   UNL     2      -5.450  14.138  68.132  1.00  0.00    -0.122 C  
HETATM   28  O   UNL     2      -6.081  12.421  66.677  1.00  0.00    -0.493 OA 
HETATM   29  H   UNL     2      -5.206  12.177  66.397  1.00  0.00     0.000 HD 
HETATM   30  C   UNL     2      -6.432  15.147  67.538  1.00  0.00    -0.109 C  
HETATM   31  C   UNL     2      -7.860  14.613  67.829  1.00  0.00    -0.165 C  
HETATM   32  O   UNL     2      -6.138  16.416  68.100  1.00  0.00    -0.110 OA 
HETATM   33  H   UNL     2      -6.749  17.043  67.731  1.00  0.00     0.000 HD 
BRANCH  31  34
HETATM   34  C   UNL     2      -8.752  15.545  68.679  1.00  0.00    -0.188 C  
BRANCH  34  35
HETATM   35  C   UNL     2     -10.235  15.315  68.490  1.00  0.00    -0.224 C  
HETATM   36  C   UNL     2     -10.955  15.382  67.360  1.00  0.00    -0.312 C  
BRANCH  36  37
HETATM   37  C   UNL     2     -10.466  15.704  65.977  1.00  0.00    -0.343 C  
BRANCH  37  38
HETATM   38  C   UNL     2     -10.371  14.477  65.068  1.00  0.00    -0.442 C  
BRANCH  38  39
HETATM   39  C   UNL     2     -11.698  13.786  64.793  1.00  0.00    -0.399 C  
HETATM   40  C   UNL     2     -11.758  12.769  63.653  1.00  0.00    -0.519 C  
HETATM   41  O   UNL     2     -12.907  12.614  63.152  1.00  0.00    -0.576 OA 
HETATM   42  O   UNL     2     -10.711  12.118  63.331  1.00  0.00    -0.430 OA 
ENDBRANCH  38  39
ENDBRANCH  37  38
ENDBRANCH  36  37
ENDBRANCH  34  35
ENDBRANCH  31  34
ENDBRANCH  24  25
ENDBRANCH  17  18
ENDBRANCH  16  17
ENDBRANCH   6  16
TORSDOF 9
ENDMDL
MODEL      215
REMARK 921   NORMALIZED FREE ENERGY PREDICTED BY IDOCK:   -4.52 KCAL/MOL
REMARK 922        TOTAL FREE ENERGY PREDICTED BY IDOCK:   -8.82 KCAL/MOL
REMARK 923 INTER-LIGAND FREE ENERGY PREDICTED BY IDOCK:   -7.25 KCAL/MOL
REMARK 924 INTRA-LIGAND FREE ENERGY PREDICTED BY IDOCK:   -1.57 KCAL/MOL
REMARK 927      BINDING AFFINITY PREDICTED BY RF-SCORE:    0.00 PKD
ROOT
HETATM    1  O   UNL     1     -12.372  14.553  63.922  1.00  0.00    -0.936 OA 
HETATM    2  C   UNL     1     -11.063  14.074  64.212  1.00  0.00    -0.180 C  
HETATM    3  H   UNL     1     -12.516  14.642  62.987  1.00  0.00     0.000 HD 
HETATM    4  C   UNL     2     -10.653   5.766  66.417  1.00  0.00    -0.219 C  
HETATM    5  C   UNL     1     -10.828  13.928  65.744  1.00  0.00    -0.289 C  
HETATM    6  C   UNL     2     -11.024   6.873  67.392  1.00  0.00    -0.374 C  
HETATM    7  C   UNL     1     -11.925  13.002  66.339  1.00  0.00    -0.402 C  
HETATM    8  N   UNL     1      -9.488  13.281  65.901  1.00  0.00    -0.489 NA 
HETATM    9  C   UNL     1     -10.698  15.240  66.500  1.00  0.00    -0.311 C  
HETATM   10  H   UNL     1      -9.351  16.653  66.632  1.00  0.00     0.000 HD 
HETATM   11  H   UNL     1     -12.591  11.162  66.051  1.00  0.00     0.000 HD 
HETATM   12  H2  UNL     1      -8.737  13.780  65.422  1.00  0.00     0.000 HD 
HETATM   13  O   UNL     1     -11.921  11.728  65.688  1.00  0.00    -0.352 OA 
HETATM   14  O   UNL     1      -9.433  15.832  66.159  1.00  0.00    -0.284 OA 
HETATM   15  H1  UNL     1      -9.334  13.185  66.904  1.00  0.00     0.000 HD 
ENDROOT
BRANCH   6  16
HETATM   16  C   UNL     2     -10.119   8.103  67.300  1.00  0.00    -0.309 C  
BRANCH  16  17
HETATM   17  C   UNL     2     -10.813   9.441  67.574  1.00  0.00    -0.208 C  
BRANCH  17  18
HETATM   18  C   UNL     2      -9.951  10.476  68.334  1.00  0.00    -0.177 C  
HETATM   19  C   UNL     2      -8.502  10.091  68.712  1.00  0.00    -0.126 C  
HETATM   20  C   UNL     2      -7.668  11.241  69.295  1.00  0.00     0.010 C  
HETATM   21  O   UNL     2      -7.846   9.682  67.506  1.00  0.00    -0.095 OA 
HETATM   22  C   UNL     2      -8.506   8.933  69.669  1.00  0.00    -0.129 C  
HETATM   23  H   UNL     2      -6.956   9.445  67.739  1.00  0.00     0.000 HD 
HETATM   24  C   UNL     2      -8.844   8.947  70.969  1.00  0.00    -0.285 C  
BRANCH  24  25
HETATM   25  C   UNL     2      -8.859   7.741  71.882  1.00  0.00    -0.155 C  
HETATM   26  C   UNL     2      -9.831   7.810  73.083  1.00  0.00    -0.298 C  
HETATM   27  C   UNL     2      -9.815   6.387  73.587  1.00  0.00    -0.213 C  
HETATM   28  O   UNL     2     -11.189   8.081  72.749  1.00  0.00    -0.384 OA 
HETATM   29  H   UNL     2     -11.786   8.124  73.486  1.00  0.00     0.000 HD 
HETATM   30  C   UNL     2      -9.881   5.554  72.308  1.00  0.00    -0.161 C  
HETATM   31  C   UNL     2      -9.192   6.383  71.192  1.00  0.00    -0.159 C  
HETATM   32  O   UNL     2      -9.281   4.297  72.581  1.00  0.00    -0.112 OA 
HETATM   33  H   UNL     2      -9.323   3.779  71.786  1.00  0.00     0.000 HD 
BRANCH  31  34
HETATM   34  C   UNL     2      -7.962   5.714  70.538  1.00  0.00    -0.104 C  
BRANCH  34  35
HETATM   35  C   UNL     2      -8.241   5.111  69.180  1.00  0.00    -0.084 C  
HETATM   36  C   UNL     2      -7.441   5.068  68.103  1.00  0.00    -0.075 C  
BRANCH  36  37
HETATM   37  C   UNL     2      -6.048   5.613  67.972  1.00  0.00    -0.018 C  
BRANCH  37  38
HETATM   38  C   UNL     2      -5.822   6.392  66.675  1.00  0.00    -0.020 C  
BRANCH  38  39
HETATM   39  C   UNL     2      -7.094   6.872  65.993  1.00  0.00    -0.073 C  
HETATM   40  C   UNL     2      -6.961   7.848  64.823  1.00  0.00    -0.062 C  
HETATM   41  O   UNL     2      -7.975   8.576  64.633  1.00  0.00    -0.127 OA 
HETATM   42  O   UNL     2      -5.912   7.828  64.100  1.00  0.00    -0.051 OA 
ENDBRANCH  38  39
ENDBRANCH  37  38
ENDBRANCH  36  37
ENDBRANCH  34  35
ENDBRANCH  31  34
ENDBRANCH  24  25
ENDBRANCH  17  18
ENDBRANCH  16  17
ENDBRANCH   6  16
TORSDOF 9
ENDMDL
MODEL      216
REMARK 921   NORMALIZED FREE ENERGY PREDICTED BY IDOCK:   -4.50 KCAL/MOL
REMARK 922        TOTAL FREE ENERGY PREDICTED BY IDOCK:   -8.79 KCAL/MOL
REMARK 923 INTER-LIGAND FREE ENERGY PREDICTED BY IDOCK:   -7.79 KCAL/MOL
REMARK 924 INTRA-LIGAND FREE ENERGY PREDICTED BY IDOCK:   -0.99 KCAL/MOL
REMARK 927      BINDING AFFINITY PREDICTED BY RF-SCORE:    0.00 PKD
ROOT
HETATM    1  O   UNL     1     -12.182   9.668  70.154  1.00  0.00    -0.469 OA 
HETATM    2  C   UNL     1     -10.780   9.764  69.924  1.00  0.00    -0.268 C  
HETATM    3  H   UNL     1     -12.627  10.485  69.960  1.00  0.00     0.000 HD 
HETATM    4  C   UNL     2      -8.037   6.030  62.672  1.00  0.00    -0.103 C  
HETATM    5  C   UNL     1     -10.051   8.426  70.242  1.00  0.00    -0.189 C  
HETATM    6  C   UNL     2      -8.297   5.265  63.960  1.00  0.00    -0.125 C  
HETATM    7  C   UNL     1     -10.695   7.285  69.405  1.00  0.00    -0.225 C  
HETATM    8  N   UNL     1      -8.628   8.615  69.818  1.00  0.00    -0.128 NA 
HETATM    9  C   UNL     1      -9.956   8.083  71.720  1.00  0.00    -0.187 C  
HETATM   10  H   UNL     1      -8.949   8.764  73.252  1.00  0.00     0.000 HD 
HETATM   11  H   UNL     1     -11.034   6.893  67.497  1.00  0.00     0.000 HD 
HETATM   12  H2  UNL     1      -8.183   9.429  70.242  1.00  0.00     0.000 HD 
HETATM   13  O   UNL     1     -10.640   7.589  68.008  1.00  0.00    -0.201 OA 
HETATM   14  O   UNL     1      -9.008   8.977  72.328  1.00  0.00    -0.360 OA 
HETATM   15  H1  UNL     1      -8.150   7.738  70.026  1.00  0.00     0.000 HD 
ENDROOT
BRANCH   6  16
HETATM   16  C   UNL     2      -7.734   5.949  65.207  1.00  0.00    -0.095 C  
BRANCH  16  17
HETATM   17  C   UNL     2      -7.484   7.454  65.065  1.00  0.00    -0.085 C  
BRANCH  17  18
HETATM   18  C   UNL     2      -8.706   8.272  64.587  1.00  0.00     0.079 C  
HETATM   19  C   UNL     2      -8.496   9.757  64.211  1.00  0.00    -0.178 C  
HETATM   20  C   UNL     2      -9.719  10.434  63.575  1.00  0.00    -0.333 C  
HETATM   21  O   UNL     2      -7.451   9.801  63.233  1.00  0.00    -0.113 OA 
HETATM   22  C   UNL     2      -8.054  10.540  65.415  1.00  0.00    -0.141 C  
HETATM   23  H   UNL     2      -7.321  10.713  63.002  1.00  0.00     0.000 HD 
HETATM   24  C   UNL     2      -8.801  10.909  66.469  1.00  0.00    -0.169 C  
BRANCH  24  25
HETATM   25  C   UNL     2      -8.296  11.673  67.673  1.00  0.00    -0.142 C  
HETATM   26  C   UNL     2      -6.763  11.854  67.770  1.00  0.00    -0.087 C  
HETATM   27  C   UNL     2      -6.632  12.874  68.875  1.00  0.00    -0.095 C  
HETATM   28  O   UNL     2      -6.151  12.447  66.628  1.00  0.00    -0.493 OA 
HETATM   29  H   UNL     2      -5.209  12.558  66.687  1.00  0.00     0.000 HD 
HETATM   30  C   UNL     2      -7.730  13.889  68.557  1.00  0.00    -0.139 C  
HETATM   31  C   UNL     2      -8.867  13.114  67.840  1.00  0.00    -0.196 C  
HETATM   32  O   UNL     2      -8.103  14.515  69.774  1.00  0.00    -0.384 OA 
HETATM   33  H   UNL     2      -8.785  15.146  69.577  1.00  0.00     0.000 HD 
BRANCH  31  34
HETATM   34  C   UNL     2     -10.238  13.148  68.552  1.00  0.00    -0.218 C  
BRANCH  34  35
HETATM   35  C   UNL     2     -11.412  13.323  67.616  1.00  0.00    -0.360 C  
HETATM   36  C   UNL     2     -11.718  14.379  66.845  1.00  0.00    -0.422 C  
BRANCH  36  37
HETATM   37  C   UNL     2     -10.961  15.669  66.713  1.00  0.00    -0.230 C  
BRANCH  37  38
HETATM   38  C   UNL     2     -10.847  16.442  68.028  1.00  0.00    -0.342 C  
BRANCH  38  39
HETATM   39  C   UNL     2     -10.656  17.943  67.868  1.00  0.00    -0.387 C  
HETATM   40  C   UNL     2      -9.413  18.581  68.489  1.00  0.00    -0.347 C  
HETATM   41  O   UNL     2      -9.540  19.806  68.768  1.00  0.00    -0.361 OA 
HETATM   42  O   UNL     2      -8.349  17.892  68.625  1.00  0.00    -0.299 OA 
ENDBRANCH  38  39
ENDBRANCH  37  38
ENDBRANCH  36  37
ENDBRANCH  34  35
ENDBRANCH  31  34
ENDBRANCH  24  25
ENDBRANCH  17  18
ENDBRANCH  16  17
ENDBRANCH   6  16
TORSDOF 9
ENDMDL
MODEL      217
REMARK 921   NORMALIZED FREE ENERGY PREDICTED BY IDOCK:   -4.48 KCAL/MOL
REMARK 922        TOTAL FREE ENERGY PREDICTED BY IDOCK:   -8.76 KCAL/MOL
REMARK 923 INTER-LIGAND FREE ENERGY PREDICTED BY IDOCK:   -8.11 KCAL/MOL
REMARK 924 INTRA-LIGAND FREE ENERGY PREDICTED BY IDOCK:   -0.65 KCAL/MOL
REMARK 927      BINDING AFFINITY PREDICTED BY RF-SCORE:    0.00 PKD
ROOT
HETATM    1  O   UNL     1     -10.271  19.772  69.135  1.00  0.00    -0.615 OA 
HETATM    2  C   UNL     1     -10.580  18.783  68.158  1.00  0.00    -0.233 C  
HETATM    3  H   UNL     1     -10.963  19.857  69.780  1.00  0.00     0.000 HD 
HETATM    4  C   UNL     2      -6.443  11.302  69.144  1.00  0.00    -0.081 C  
HETATM    5  C   UNL     1      -9.446  18.643  67.100  1.00  0.00    -0.295 C  
HETATM    6  C   UNL     2      -5.825  12.518  68.470  1.00  0.00    -0.055 C  
HETATM    7  C   UNL     1      -8.108  18.336  67.827  1.00  0.00    -0.250 C  
HETATM    8  N   UNL     1      -9.824  17.482  66.234  1.00  0.00    -0.389 NA 
HETATM    9  C   UNL     1      -9.329  19.808  66.129  1.00  0.00    -0.363 C  
HETATM   10  H   UNL     1     -10.377  20.485  64.623  1.00  0.00     0.000 HD 
HETATM   11  H   UNL     1      -7.408  16.966  69.068  1.00  0.00     0.000 HD 
HETATM   12  H2  UNL     1     -10.754  17.568  65.823  1.00  0.00     0.000 HD 
HETATM   13  O   UNL     1      -8.225  17.153  68.624  1.00  0.00    -0.245 OA 
HETATM   14  O   UNL     1     -10.450  19.758  65.230  1.00  0.00    -0.336 OA 
HETATM   15  H1  UNL     1      -9.082  17.390  65.541  1.00  0.00     0.000 HD 
ENDROOT
BRANCH   6  16
HETATM   16  C   UNL     2      -6.760  13.213  67.479  1.00  0.00    -0.159 C  
BRANCH  16  17
HETATM   17  C   UNL     2      -8.049  13.773  68.087  1.00  0.00    -0.155 C  
BRANCH  17  18
HETATM   18  C   UNL     2      -9.340  13.417  67.314  1.00  0.00    -0.233 C  
HETATM   19  C   UNL     2     -10.696  13.557  68.042  1.00  0.00    -0.251 C  
HETATM   20  C   UNL     2     -11.926  13.361  67.144  1.00  0.00    -0.415 C  
HETATM   21  O   UNL     2     -10.768  14.895  68.547  1.00  0.00    -0.234 OA 
HETATM   22  C   UNL     2     -10.762  12.606  69.204  1.00  0.00    -0.061 C  
HETATM   23  H   UNL     2     -11.601  14.981  68.994  1.00  0.00     0.000 HD 
HETATM   24  C   UNL     2     -10.919  11.272  69.161  1.00  0.00    -0.292 C  
BRANCH  24  25
HETATM   25  C   UNL     2     -10.948  10.357  70.365  1.00  0.00    -0.320 C  
HETATM   26  C   UNL     2     -12.306  10.237  71.095  1.00  0.00    -0.395 C  
HETATM   27  C   UNL     2     -12.069   9.066  72.018  1.00  0.00    -0.440 C  
HETATM   28  O   UNL     2     -13.405   9.859  70.272  1.00  0.00    -0.538 OA 
HETATM   29  H   UNL     2     -14.239   9.785  70.720  1.00  0.00     0.000 HD 
HETATM   30  C   UNL     2     -11.328   8.061  71.137  1.00  0.00    -0.266 C  
HETATM   31  C   UNL     2     -10.523   8.881  70.094  1.00  0.00    -0.236 C  
HETATM   32  O   UNL     2     -10.547   7.236  71.987  1.00  0.00    -0.204 OA 
HETATM   33  H   UNL     2     -10.086   6.611  71.439  1.00  0.00     0.000 HD 
BRANCH  31  34
HETATM   34  C   UNL     2      -8.992   8.672  70.130  1.00  0.00    -0.157 C  
BRANCH  34  35
HETATM   35  C   UNL     2      -8.574   7.234  70.338  1.00  0.00    -0.144 C  
HETATM   36  C   UNL     2      -8.565   6.228  69.450  1.00  0.00    -0.125 C  
BRANCH  36  37
HETATM   37  C   UNL     2      -8.970   6.276  68.005  1.00  0.00    -0.114 C  
BRANCH  37  38
HETATM   38  C   UNL     2      -9.205   4.892  67.395  1.00  0.00    -0.136 C  
BRANCH  38  39
HETATM   39  C   UNL     2      -8.190   4.484  66.338  1.00  0.00    -0.106 C  
HETATM   40  C   UNL     2      -8.522   3.288  65.445  1.00  0.00    -0.101 C  
HETATM   41  O   UNL     2      -7.512   2.698  64.967  1.00  0.00    -0.068 OA 
HETATM   42  O   UNL     2      -9.738   3.005  65.192  1.00  0.00    -0.097 OA 
ENDBRANCH  38  39
ENDBRANCH  37  38
ENDBRANCH  36  37
ENDBRANCH  34  35
ENDBRANCH  31  34
ENDBRANCH  24  25
ENDBRANCH  17  18
ENDBRANCH  16  17
ENDBRANCH   6  16
TORSDOF 9
ENDMDL
MODEL      218
REMARK 921   NORMALIZED FREE ENERGY PREDICTED BY IDOCK:   -4.47 KCAL/MOL
REMARK 922        TOTAL FREE ENERGY PREDICTED BY IDOCK:   -8.74 KCAL/MOL
REMARK 923 INTER-LIGAND FREE ENERGY PREDICTED BY IDOCK:   -7.55 KCAL/MOL
REMARK 924 INTRA-LIGAND FREE ENERGY PREDICTED BY IDOCK:   -1.19 KCAL/MOL
REMARK 927      BINDING AFFINITY PREDICTED BY RF-SCORE:    0.00 PKD
ROOT
HETATM    1  O   UNL     1      -8.737   6.008  68.968  1.00  0.00    -0.121 OA 
HETATM    2  C   UNL     1      -7.984   6.531  67.879  1.00  0.00    -0.109 C  
HETATM    3  H   UNL     1      -8.364   6.256  69.806  1.00  0.00     0.000 HD 
HETATM    4  C   UNL     2     -11.492  13.366  64.002  1.00  0.00    -0.392 C  
HETATM    5  C   UNL     1      -8.595   6.125  66.507  1.00  0.00    -0.126 C  
HETATM    6  C   UNL     2     -11.903  11.932  63.703  1.00  0.00    -0.573 C  
HETATM    7  C   UNL     1     -10.078   6.586  66.455  1.00  0.00    -0.079 C  
HETATM    8  N   UNL     1      -7.807   6.856  65.466  1.00  0.00    -0.105 NA 
HETATM    9  C   UNL     1      -8.426   4.659  66.139  1.00  0.00    -0.114 C  
HETATM   10  H   UNL     1      -6.937   3.517  65.587  1.00  0.00     0.000 HD 
HETATM   11  H   UNL     1     -11.083   8.279  66.641  1.00  0.00     0.000 HD 
HETATM   12  H2  UNL     1      -6.802   6.691  65.527  1.00  0.00     0.000 HD 
HETATM   13  O   UNL     1     -10.177   7.997  66.672  1.00  0.00    -0.285 OA 
HETATM   14  O   UNL     1      -7.043   4.433  65.817  1.00  0.00    -0.067 OA 
HETATM   15  H1  UNL     1      -8.208   6.590  64.566  1.00  0.00     0.000 HD 
ENDROOT
BRANCH   6  16
HETATM   16  C   UNL     2     -10.720  10.975  63.539  1.00  0.00    -0.230 C  
BRANCH  16  17
HETATM   17  C   UNL     2     -10.095  10.485  64.848  1.00  0.00    -0.403 C  
BRANCH  17  18
HETATM   18  C   UNL     2      -8.659  10.994  65.112  1.00  0.00    -0.015 C  
HETATM   19  C   UNL     2      -8.226  11.251  66.574  1.00  0.00    -0.165 C  
HETATM   20  C   UNL     2      -6.735  11.573  66.752  1.00  0.00    -0.121 C  
HETATM   21  O   UNL     2      -8.473  10.045  67.305  1.00  0.00    -0.121 OA 
HETATM   22  C   UNL     2      -9.056  12.350  67.175  1.00  0.00    -0.199 C  
HETATM   23  H   UNL     2      -8.208  10.203  68.203  1.00  0.00     0.000 HD 
HETATM   24  C   UNL     2      -8.980  13.667  66.918  1.00  0.00    -0.229 C  
BRANCH  24  25
HETATM   25  C   UNL     2      -9.863  14.730  67.531  1.00  0.00    -0.218 C  
HETATM   26  C   UNL     2     -11.387  14.496  67.417  1.00  0.00    -0.356 C  
HETATM   27  C   UNL     2     -11.941  15.541  68.355  1.00  0.00    -0.123 C  
HETATM   28  O   UNL     2     -11.848  13.246  67.922  1.00  0.00    -0.337 OA 
HETATM   29  H   UNL     2     -12.784  13.102  67.852  1.00  0.00     0.000 HD 
HETATM   30  C   UNL     2     -11.017  15.457  69.569  1.00  0.00    -0.275 C  
HETATM   31  C   UNL     2      -9.627  15.005  69.047  1.00  0.00    -0.225 C  
HETATM   32  O   UNL     2     -11.035  16.722  70.212  1.00  0.00    -0.403 OA 
HETATM   33  H   UNL     2     -10.460  16.670  70.966  1.00  0.00     0.000 HD 
BRANCH  31  34
HETATM   34  C   UNL     2      -8.469  15.993  69.314  1.00  0.00    -0.224 C  
BRANCH  34  35
HETATM   35  C   UNL     2      -7.104  15.451  68.954  1.00  0.00    -0.131 C  
HETATM   36  C   UNL     2      -6.082  16.085  68.359  1.00  0.00    -0.104 C  
BRANCH  36  37
HETATM   37  C   UNL     2      -6.032  17.513  67.895  1.00  0.00    -0.151 C  
BRANCH  37  38
HETATM   38  C   UNL     2      -7.120  18.390  68.517  1.00  0.00    -0.285 C  
BRANCH  38  39
HETATM   39  C   UNL     2      -7.672  19.466  67.595  1.00  0.00    -0.299 C  
HETATM   40  C   UNL     2      -8.982  19.183  66.858  1.00  0.00    -0.305 C  
HETATM   41  O   UNL     2      -9.128  19.831  65.784  1.00  0.00    -0.369 OA 
HETATM   42  O   UNL     2      -9.840  18.395  67.375  1.00  0.00    -0.295 OA 
ENDBRANCH  38  39
ENDBRANCH  37  38
ENDBRANCH  36  37
ENDBRANCH  34  35
ENDBRANCH  31  34
ENDBRANCH  24  25
ENDBRANCH  17  18
ENDBRANCH  16  17
ENDBRANCH   6  16
TORSDOF 9
ENDMDL
MODEL      219
REMARK 921   NORMALIZED FREE ENERGY PREDICTED BY IDOCK:   -4.46 KCAL/MOL
REMARK 922        TOTAL FREE ENERGY PREDICTED BY IDOCK:   -8.74 KCAL/MOL
REMARK 923 INTER-LIGAND FREE ENERGY PREDICTED BY IDOCK:   -7.19 KCAL/MOL
REMARK 924 INTRA-LIGAND FREE ENERGY PREDICTED BY IDOCK:   -1.55 KCAL/MOL
REMARK 927      BINDING AFFINITY PREDICTED BY RF-SCORE:    0.00 PKD
ROOT
HETATM    1  O   UNL     1      -9.781  10.058  67.136  1.00  0.00    -0.163 OA 
HETATM    2  C   UNL     1      -9.212  10.795  68.214  1.00  0.00    -0.157 C  
HETATM    3  H   UNL     1     -10.726   9.995  67.213  1.00  0.00     0.000 HD 
HETATM    4  C   UNL     2      -6.884  18.847  66.266  1.00  0.00    -0.248 C  
HETATM    5  C   UNL     1      -7.664  10.899  68.087  1.00  0.00    -0.103 C  
HETATM    6  C   UNL     2      -6.023  17.631  65.962  1.00  0.00    -0.223 C  
HETATM    7  C   UNL     1      -7.308  11.526  66.711  1.00  0.00    -0.111 C  
HETATM    8  N   UNL     1      -7.217  11.814  69.185  1.00  0.00    -0.261 NA 
HETATM    9  C   UNL     1      -6.911   9.605  68.353  1.00  0.00    -0.061 C  
HETATM   10  H   UNL     1      -6.508   8.517  69.927  1.00  0.00     0.000 HD 
HETATM   11  H   UNL     1      -7.713  13.188  65.720  1.00  0.00     0.000 HD 
HETATM   12  H2  UNL     1      -7.529  11.520  70.111  1.00  0.00     0.000 HD 
HETATM   13  O   UNL     1      -7.930  12.805  66.561  1.00  0.00     0.197 OA 
HETATM   14  O   UNL     1      -6.979   9.326  69.761  1.00  0.00    -0.051 OA 
HETATM   15  H1  UNL     1      -6.202  11.882  69.102  1.00  0.00     0.000 HD 
ENDROOT
BRANCH   6  16
HETATM   16  C   UNL     2      -5.932  16.636  67.121  1.00  0.00    -0.198 C  
BRANCH  16  17
HETATM   17  C   UNL     2      -5.141  17.128  68.337  1.00  0.00    -0.127 C  
BRANCH  17  18
HETATM   18  C   UNL     2      -5.668  16.625  69.701  1.00  0.00    -0.190 C  
HETATM   19  C   UNL     2      -6.317  15.224  69.768  1.00  0.00    -0.162 C  
HETATM   20  C   UNL     2      -6.640  14.736  71.188  1.00  0.00     0.555 C  
HETATM   21  O   UNL     2      -5.372  14.296  69.223  1.00  0.00    -0.082 OA 
HETATM   22  C   UNL     2      -7.561  15.187  68.926  1.00  0.00    -0.148 C  
HETATM   23  H   UNL     2      -5.771  13.435  69.264  1.00  0.00     0.000 HD 
HETATM   24  C   UNL     2      -8.749  15.752  69.197  1.00  0.00    -0.253 C  
BRANCH  24  25
HETATM   25  C   UNL     2      -9.963  15.710  68.296  1.00  0.00    -0.213 C  
HETATM   26  C   UNL     2      -9.733  16.122  66.824  1.00  0.00    -0.242 C  
HETATM   27  C   UNL     2     -11.022  15.692  66.167  1.00  0.00    -0.206 C  
HETATM   28  O   UNL     2      -8.702  15.407  66.149  1.00  0.00    -0.425 OA 
HETATM   29  H   UNL     2      -8.560  15.661  65.244  1.00  0.00     0.000 HD 
HETATM   30  C   UNL     2     -11.293  14.318  66.777  1.00  0.00    -0.348 C  
HETATM   31  C   UNL     2     -10.679  14.328  68.203  1.00  0.00    -0.249 C  
HETATM   32  O   UNL     2     -12.693  14.093  66.726  1.00  0.00    -0.510 OA 
HETATM   33  H   UNL     2     -12.861  13.238  67.106  1.00  0.00     0.000 HD 
BRANCH  31  34
HETATM   34  C   UNL     2     -11.681  14.081  69.353  1.00  0.00    -0.365 C  
BRANCH  34  35
HETATM   35  C   UNL     2     -12.087  15.336  70.093  1.00  0.00    -0.394 C  
HETATM   36  C   UNL     2     -13.005  15.476  71.062  1.00  0.00    -0.550 C  
BRANCH  36  37
HETATM   37  C   UNL     2     -13.872  14.409  71.667  1.00  0.00    -0.492 C  
BRANCH  37  38
HETATM   38  C   UNL     2     -13.075  13.281  72.325  1.00  0.00    -0.474 C  
BRANCH  38  39
HETATM   39  C   UNL     2     -13.640  11.888  72.094  1.00  0.00    -0.188 C  
HETATM   40  C   UNL     2     -12.866  10.939  71.177  1.00  0.00    -0.409 C  
HETATM   41  O   UNL     2     -13.575  10.047  70.632  1.00  0.00    -0.194 OA 
HETATM   42  O   UNL     2     -11.602  11.057  71.068  1.00  0.00    -0.139 OA 
ENDBRANCH  38  39
ENDBRANCH  37  38
ENDBRANCH  36  37
ENDBRANCH  34  35
ENDBRANCH  31  34
ENDBRANCH  24  25
ENDBRANCH  17  18
ENDBRANCH  16  17
ENDBRANCH   6  16
TORSDOF 9
ENDMDL
MODEL      220
REMARK 921   NORMALIZED FREE ENERGY PREDICTED BY IDOCK:   -4.45 KCAL/MOL
REMARK 922        TOTAL FREE ENERGY PREDICTED BY IDOCK:   -8.71 KCAL/MOL
REMARK 923 INTER-LIGAND FREE ENERGY PREDICTED BY IDOCK:   -7.69 KCAL/MOL
REMARK 924 INTRA-LIGAND FREE ENERGY PREDICTED BY IDOCK:   -1.02 KCAL/MOL
REMARK 927      BINDING AFFINITY PREDICTED BY RF-SCORE:    0.00 PKD
ROOT
HETATM    1  O   UNL     1     -11.788  13.245  63.356  1.00  0.00    -0.712 OA 
HETATM    2  C   UNL     1     -10.729  13.190  64.306  1.00  0.00    -0.409 C  
HETATM    3  H   UNL     1     -11.599  12.719  62.588  1.00  0.00     0.000 HD 
HETATM    4  C   UNL     2     -12.229   8.144  71.114  1.00  0.00    -0.257 C  
HETATM    5  C   UNL     1     -11.038  14.051  65.566  1.00  0.00    -0.309 C  
HETATM    6  C   UNL     2     -12.745   9.570  70.999  1.00  0.00    -0.314 C  
HETATM    7  C   UNL     1     -12.387  13.586  66.180  1.00  0.00    -0.407 C  
HETATM    8  N   UNL     1      -9.928  13.786  66.535  1.00  0.00    -0.281 NA 
HETATM    9  C   UNL     1     -10.985  15.554  65.343  1.00  0.00    -0.357 C  
HETATM   10  H   UNL     1      -9.576  16.875  65.032  1.00  0.00     0.000 HD 
HETATM   11  H   UNL     1     -13.168  11.908  66.876  1.00  0.00     0.000 HD 
HETATM   12  H2  UNL     1      -9.000  13.956  66.146  1.00  0.00     0.000 HD 
HETATM   13  O   UNL     1     -12.344  12.192  66.500  1.00  0.00    -0.474 OA 
HETATM   14  O   UNL     1      -9.609  15.935  65.172  1.00  0.00    -0.284 OA 
HETATM   15  H1  UNL     1     -10.131  14.350  67.360  1.00  0.00     0.000 HD 
ENDROOT
BRANCH   6  16
HETATM   16  C   UNL     2     -11.699  10.564  70.490  1.00  0.00    -0.443 C  
BRANCH  16  17
HETATM   17  C   UNL     2     -10.298   9.982  70.282  1.00  0.00    -0.301 C  
BRANCH  17  18
HETATM   18  C   UNL     2      -9.627  10.368  68.944  1.00  0.00    -0.197 C  
HETATM   19  C   UNL     2     -10.159   9.727  67.641  1.00  0.00    -0.190 C  
HETATM   20  C   UNL     2      -9.558  10.307  66.353  1.00  0.00    -0.233 C  
HETATM   21  O   UNL     2     -11.566   9.986  67.588  1.00  0.00    -0.535 OA 
HETATM   22  C   UNL     2      -9.949   8.239  67.672  1.00  0.00    -0.245 C  
HETATM   23  H   UNL     2     -11.893   9.592  66.789  1.00  0.00     0.000 HD 
HETATM   24  C   UNL     2      -8.791   7.573  67.530  1.00  0.00    -0.127 C  
BRANCH  24  25
HETATM   25  C   UNL     2      -8.632   6.071  67.599  1.00  0.00    -0.106 C  
HETATM   26  C   UNL     2      -9.942   5.249  67.626  1.00  0.00    -0.165 C  
HETATM   27  C   UNL     2      -9.441   3.844  67.399  1.00  0.00    -0.236 C  
HETATM   28  O   UNL     2     -10.844   5.512  66.555  1.00  0.00    -0.486 OA 
HETATM   29  H   UNL     2     -11.648   5.008  66.571  1.00  0.00     0.000 HD 
HETATM   30  C   UNL     2      -8.401   4.010  66.292  1.00  0.00    -0.105 C  
HETATM   31  C   UNL     2      -7.798   5.431  66.448  1.00  0.00    -0.100 C  
HETATM   32  O   UNL     2      -7.470   2.945  66.412  1.00  0.00    -0.073 OA 
HETATM   33  H   UNL     2      -6.824   3.049  65.723  1.00  0.00     0.000 HD 
BRANCH  31  34
HETATM   34  C   UNL     2      -6.274   5.477  66.701  1.00  0.00    -0.034 C  
BRANCH  34  35
HETATM   35  C   UNL     2      -5.812   6.709  67.446  1.00  0.00    -0.013 C  
HETATM   36  C   UNL     2      -5.500   6.834  68.745  1.00  0.00    -0.017 C  
BRANCH  36  37
HETATM   37  C   UNL     2      -5.528   5.768  69.802  1.00  0.00    -0.005 C  
BRANCH  37  38
HETATM   38  C   UNL     2      -5.710   6.321  71.217  1.00  0.00    -0.027 C  
BRANCH  38  39
HETATM   39  C   UNL     2      -5.671   7.839  71.313  1.00  0.00    -0.034 C  
HETATM   40  C   UNL     2      -6.359   8.503  72.507  1.00  0.00    -0.085 C  
HETATM   41  O   UNL     2      -6.732   9.691  72.300  1.00  0.00    -0.054 OA 
HETATM   42  O   UNL     2      -6.456   7.873  73.611  1.00  0.00    -0.081 OA 
ENDBRANCH  38  39
ENDBRANCH  37  38
ENDBRANCH  36  37
ENDBRANCH  34  35
ENDBRANCH  31  34
ENDBRANCH  24  25
ENDBRANCH  17  18
ENDBRANCH  16  17
ENDBRANCH   6  16
TORSDOF 9
ENDMDL
MODEL      221
REMARK 921   NORMALIZED FREE ENERGY PREDICTED BY IDOCK:   -4.44 KCAL/MOL
REMARK 922        TOTAL FREE ENERGY PREDICTED BY IDOCK:   -8.70 KCAL/MOL
REMARK 923 INTER-LIGAND FREE ENERGY PREDICTED BY IDOCK:   -8.25 KCAL/MOL
REMARK 924 INTRA-LIGAND FREE ENERGY PREDICTED BY IDOCK:   -0.45 KCAL/MOL
REMARK 927      BINDING AFFINITY PREDICTED BY RF-SCORE:    0.00 PKD
ROOT
HETATM    1  O   UNL     1      -8.214   6.465  71.079  1.00  0.00    -0.119 OA 
HETATM    2  C   UNL     1      -8.388   7.849  70.795  1.00  0.00    -0.115 C  
HETATM    3  H   UNL     1      -9.005   6.076  71.433  1.00  0.00     0.000 HD 
HETATM    4  C   UNL     2      -9.431   9.735  62.463  1.00  0.00    -0.060 C  
HETATM    5  C   UNL     1      -7.092   8.486  70.214  1.00  0.00    -0.043 C  
HETATM    6  C   UNL     2      -8.071   9.507  63.106  1.00  0.00    -0.149 C  
HETATM    7  C   UNL     1      -6.656   7.690  68.952  1.00  0.00    -0.049 C  
HETATM    8  N   UNL     1      -7.453   9.885  69.823  1.00  0.00    -0.121 NA 
HETATM    9  C   UNL     1      -5.959   8.661  71.214  1.00  0.00    -0.044 C  
HETATM   10  H   UNL     1      -5.610   9.831  72.742  1.00  0.00     0.000 HD 
HETATM   11  H   UNL     1      -7.440   7.181  67.210  1.00  0.00     0.000 HD 
HETATM   12  H2  UNL     1      -7.864  10.426  70.584  1.00  0.00     0.000 HD 
HETATM   13  O   UNL     1      -7.706   7.668  67.981  1.00  0.00    -0.114 OA 
HETATM   14  O   UNL     1      -6.317   9.721  72.117  1.00  0.00    -0.243 OA 
HETATM   15  H1  UNL     1      -6.604  10.303  69.442  1.00  0.00     0.000 HD 
ENDROOT
BRANCH   6  16
HETATM   16  C   UNL     2      -7.900  10.215  64.451  1.00  0.00    -0.138 C  
BRANCH  16  17
HETATM   17  C   UNL     2      -8.702   9.613  65.608  1.00  0.00    -0.163 C  
BRANCH  17  18
HETATM   18  C   UNL     2     -10.001  10.373  65.963  1.00  0.00    -0.301 C  
HETATM   19  C   UNL     2     -10.061  11.894  65.693  1.00  0.00    -0.243 C  
HETATM   20  C   UNL     2     -11.445  12.526  65.901  1.00  0.00    -0.417 C  
HETATM   21  O   UNL     2      -9.725  12.092  64.315  1.00  0.00    -0.441 OA 
HETATM   22  C   UNL     2      -9.045  12.611  66.537  1.00  0.00    -0.163 C  
HETATM   23  H   UNL     2      -9.761  13.026  64.149  1.00  0.00     0.000 HD 
HETATM   24  C   UNL     2      -9.097  12.841  67.860  1.00  0.00    -0.204 C  
BRANCH  24  25
HETATM   25  C   UNL     2      -8.029  13.544  68.668  1.00  0.00    -0.073 C  
HETATM   26  C   UNL     2      -6.574  13.091  68.410  1.00  0.00    -0.090 C  
HETATM   27  C   UNL     2      -5.778  14.157  69.122  1.00  0.00    -0.085 C  
HETATM   28  O   UNL     2      -6.154  13.146  67.049  1.00  0.00    -0.460 OA 
HETATM   29  H   UNL     2      -5.260  12.868  66.890  1.00  0.00     0.000 HD 
HETATM   30  C   UNL     2      -6.492  15.452  68.741  1.00  0.00    -0.105 C  
HETATM   31  C   UNL     2      -7.985  15.095  68.514  1.00  0.00    -0.142 C  
HETATM   32  O   UNL     2      -6.250  16.398  69.771  1.00  0.00    -0.207 OA 
HETATM   33  H   UNL     2      -6.694  17.203  69.533  1.00  0.00     0.000 HD 
BRANCH  31  34
HETATM   34  C   UNL     2      -8.986  15.827  69.436  1.00  0.00    -0.247 C  
BRANCH  34  35
HETATM   35  C   UNL     2     -10.227  16.319  68.727  1.00  0.00    -0.249 C  
HETATM   36  C   UNL     2     -11.496  15.912  68.881  1.00  0.00    -0.386 C  
BRANCH  36  37
HETATM   37  C   UNL     2     -12.014  14.851  69.810  1.00  0.00    -0.366 C  
BRANCH  37  38
HETATM   38  C   UNL     2     -13.008  15.384  70.844  1.00  0.00    -0.539 C  
BRANCH  38  39
HETATM   39  C   UNL     2     -12.377  15.853  72.147  1.00  0.00    -0.557 C  
HETATM   40  C   UNL     2     -12.806  15.164  73.443  1.00  0.00    -0.537 C  
HETATM   41  O   UNL     2     -12.668  15.872  74.480  1.00  0.00    -0.643 OA 
HETATM   42  O   UNL     2     -13.197  13.952  73.415  1.00  0.00    -0.432 OA 
ENDBRANCH  38  39
ENDBRANCH  37  38
ENDBRANCH  36  37
ENDBRANCH  34  35
ENDBRANCH  31  34
ENDBRANCH  24  25
ENDBRANCH  17  18
ENDBRANCH  16  17
ENDBRANCH   6  16
TORSDOF 9
ENDMDL
MODEL      222
REMARK 921   NORMALIZED FREE ENERGY PREDICTED BY IDOCK:   -4.43 KCAL/MOL
REMARK 922        TOTAL FREE ENERGY PREDICTED BY IDOCK:   -8.68 KCAL/MOL
REMARK 923 INTER-LIGAND FREE ENERGY PREDICTED BY IDOCK:   -7.76 KCAL/MOL
REMARK 924 INTRA-LIGAND FREE ENERGY PREDICTED BY IDOCK:   -0.93 KCAL/MOL
REMARK 927      BINDING AFFINITY PREDICTED BY RF-SCORE:    0.00 PKD
ROOT
HETATM    1  O   UNL     1      -7.898  21.109  67.559  1.00  0.00    -0.412 OA 
HETATM    2  C   UNL     1      -8.587  20.135  66.781  1.00  0.00    -0.305 C  
HETATM    3  H   UNL     1      -8.244  21.982  67.417  1.00  0.00     0.000 HD 
HETATM    4  C   UNL     2     -14.237  15.338  71.152  1.00  0.00    -0.410 C  
HETATM    5  C   UNL     1      -8.021  18.704  67.015  1.00  0.00    -0.246 C  
HETATM    6  C   UNL     2     -12.743  15.055  71.127  1.00  0.00    -0.431 C  
HETATM    7  C   UNL     1      -8.082  18.376  68.532  1.00  0.00    -0.319 C  
HETATM    8  N   UNL     1      -8.920  17.772  66.264  1.00  0.00    -0.447 NA 
HETATM    9  C   UNL     1      -6.645  18.454  66.418  1.00  0.00    -0.205 C  
HETATM   10  H   UNL     1      -5.922  18.229  64.614  1.00  0.00     0.000 HD 
HETATM   11  H   UNL     1      -9.459  18.292  69.949  1.00  0.00     0.000 HD 
HETATM   12  H2  UNL     1      -9.021  18.012  65.277  1.00  0.00     0.000 HD 
HETATM   13  O   UNL     1      -9.421  18.493  69.022  1.00  0.00    -0.271 OA 
HETATM   14  O   UNL     1      -6.781  18.385  64.988  1.00  0.00    -0.473 OA 
HETATM   15  H1  UNL     1      -8.550  16.834  66.417  1.00  0.00     0.000 HD 
ENDROOT
BRANCH   6  16
HETATM   16  C   UNL     2     -12.123  15.148  69.731  1.00  0.00    -0.354 C  
BRANCH  16  17
HETATM   17  C   UNL     2     -10.763  14.461  69.578  1.00  0.00    -0.133 C  
BRANCH  17  18
HETATM   18  C   UNL     2     -10.298  14.260  68.117  1.00  0.00    -0.233 C  
HETATM   19  C   UNL     2     -10.886  13.077  67.313  1.00  0.00    -0.252 C  
HETATM   20  C   UNL     2     -10.510  13.067  65.825  1.00  0.00    -0.292 C  
HETATM   21  O   UNL     2     -12.312  13.194  67.374  1.00  0.00    -0.225 OA 
HETATM   22  C   UNL     2     -10.489  11.773  67.945  1.00  0.00    -0.219 C  
HETATM   23  H   UNL     2     -12.673  12.468  66.881  1.00  0.00     0.000 HD 
HETATM   24  C   UNL     2      -9.278  11.189  67.923  1.00  0.00    -0.154 C  
BRANCH  24  25
HETATM   25  C   UNL     2      -8.925   9.885  68.603  1.00  0.00    -0.128 C  
HETATM   26  C   UNL     2     -10.045   9.233  69.447  1.00  0.00    -0.197 C  
HETATM   27  C   UNL     2      -9.479   7.861  69.721  1.00  0.00    -0.163 C  
HETATM   28  O   UNL     2     -11.271   9.010  68.757  1.00  0.00    -0.440 OA 
HETATM   29  H   UNL     2     -11.959   8.610  69.275  1.00  0.00     0.000 HD 
HETATM   30  C   UNL     2      -8.884   7.444  68.376  1.00  0.00    -0.121 C  
HETATM   31  C   UNL     2      -8.441   8.745  67.656  1.00  0.00    -0.125 C  
HETATM   32  O   UNL     2      -7.844   6.515  68.634  1.00  0.00    -0.106 OA 
HETATM   33  H   UNL     2      -7.474   6.256  67.798  1.00  0.00     0.000 HD 
BRANCH  31  34
HETATM   34  C   UNL     2      -6.935   8.832  67.319  1.00  0.00    -0.075 C  
BRANCH  34  35
HETATM   35  C   UNL     2      -6.639   8.879  65.837  1.00  0.00    -0.057 C  
HETATM   36  C   UNL     2      -6.581   7.863  64.962  1.00  0.00    -0.051 C  
BRANCH  36  37
HETATM   37  C   UNL     2      -6.800   6.403  65.235  1.00  0.00    -0.048 C  
BRANCH  37  38
HETATM   38  C   UNL     2      -8.122   5.874  64.675  1.00  0.00    -0.132 C  
BRANCH  38  39
HETATM   39  C   UNL     2      -8.336   4.379  64.860  1.00  0.00    -0.118 C  
HETATM   40  C   UNL     2      -9.425   3.921  65.831  1.00  0.00    -0.181 C  
HETATM   41  O   UNL     2      -9.240   2.771  66.318  1.00  0.00    -0.141 OA 
HETATM   42  O   UNL     2     -10.442   4.661  66.034  1.00  0.00    -0.290 OA 
ENDBRANCH  38  39
ENDBRANCH  37  38
ENDBRANCH  36  37
ENDBRANCH  34  35
ENDBRANCH  31  34
ENDBRANCH  24  25
ENDBRANCH  17  18
ENDBRANCH  16  17
ENDBRANCH   6  16
TORSDOF 9
ENDMDL
MODEL      223
REMARK 921   NORMALIZED FREE ENERGY PREDICTED BY IDOCK:   -4.37 KCAL/MOL
REMARK 922        TOTAL FREE ENERGY PREDICTED BY IDOCK:   -8.60 KCAL/MOL
REMARK 923 INTER-LIGAND FREE ENERGY PREDICTED BY IDOCK:   -6.56 KCAL/MOL
REMARK 924 INTRA-LIGAND FREE ENERGY PREDICTED BY IDOCK:   -2.04 KCAL/MOL
REMARK 927      BINDING AFFINITY PREDICTED BY RF-SCORE:    0.00 PKD
ROOT
HETATM    1  O   UNL     1     -14.137   8.921  73.188  1.00  0.00    -1.125 OA 
HETATM    2  C   UNL     1     -12.736   8.985  72.938  1.00  0.00     0.208 C  
HETATM    3  H   UNL     1     -14.348   9.172  74.080  1.00  0.00     0.000 HD 
HETATM    4  C   UNL     2     -10.172  15.837  68.408  1.00  0.00    -0.223 C  
HETATM    5  C   UNL     1     -12.392   8.574  71.477  1.00  0.00    -0.314 C  
HETATM    6  C   UNL     2     -10.752  14.583  67.772  1.00  0.00    -0.256 C  
HETATM    7  C   UNL     1     -13.193   9.473  70.495  1.00  0.00     0.295 C  
HETATM    8  N   UNL     1     -10.926   8.828  71.307  1.00  0.00    -0.254 NA 
HETATM    9  C   UNL     1     -12.549   7.093  71.174  1.00  0.00    -0.341 C  
HETATM   10  H   UNL     1     -11.588   5.457  71.648  1.00  0.00     0.000 HD 
HETATM   11  H   UNL     1     -13.398  11.405  70.128  1.00  0.00     0.000 HD 
HETATM   12  H2  UNL     1     -10.349   8.360  72.006  1.00  0.00     0.000 HD 
HETATM   13  O   UNL     1     -12.909  10.856  70.728  1.00  0.00    -0.331 OA 
HETATM   14  O   UNL     1     -11.489   6.383  71.837  1.00  0.00    -0.275 OA 
HETATM   15  H1  UNL     1     -10.700   8.559  70.349  1.00  0.00     0.000 HD 
ENDROOT
BRANCH   6  16
HETATM   16  C   UNL     2     -10.185  13.284  68.346  1.00  0.00    -0.249 C  
BRANCH  16  17
HETATM   17  C   UNL     2      -9.210  12.541  67.428  1.00  0.00    -0.186 C  
BRANCH  17  18
HETATM   18  C   UNL     2      -7.923  12.035  68.122  1.00  0.00    -0.152 C  
HETATM   19  C   UNL     2      -7.122  10.898  67.447  1.00  0.00    -0.093 C  
HETATM   20  C   UNL     2      -5.770  10.591  68.107  1.00  0.00    -0.043 C  
HETATM   21  O   UNL     2      -6.836  11.321  66.108  1.00  0.00    -0.329 OA 
HETATM   22  C   UNL     2      -7.950   9.646  67.384  1.00  0.00    -0.106 C  
HETATM   23  H   UNL     2      -6.345  10.622  65.694  1.00  0.00     0.000 HD 
HETATM   24  C   UNL     2      -8.267   8.823  68.398  1.00  0.00    -0.118 C  
BRANCH  24  25
HETATM   25  C   UNL     2      -9.133   7.588  68.284  1.00  0.00    -0.132 C  
HETATM   26  C   UNL     2     -10.644   7.835  68.073  1.00  0.00    -0.139 C  
HETATM   27  C   UNL     2     -11.144   6.457  67.713  1.00  0.00    -0.376 C  
HETATM   28  O   UNL     2     -10.974   8.664  66.963  1.00  0.00    -0.332 OA 
HETATM   29  H   UNL     2     -11.902   8.815  66.833  1.00  0.00     0.000 HD 
HETATM   30  C   UNL     2     -10.084   5.934  66.745  1.00  0.00    -0.192 C  
HETATM   31  C   UNL     2      -8.739   6.598  67.146  1.00  0.00    -0.111 C  
HETATM   32  O   UNL     2     -10.099   4.517  66.815  1.00  0.00    -0.220 OA 
HETATM   33  H   UNL     2      -9.439   4.191  66.213  1.00  0.00     0.000 HD 
BRANCH  31  34
HETATM   34  C   UNL     2      -7.615   5.618  67.552  1.00  0.00    -0.089 C  
BRANCH  34  35
HETATM   35  C   UNL     2      -7.292   5.632  69.029  1.00  0.00    -0.082 C  
HETATM   36  C   UNL     2      -7.804   4.866  70.005  1.00  0.00    -0.066 C  
BRANCH  36  37
HETATM   37  C   UNL     2      -8.839   3.785  69.876  1.00  0.00    -0.147 C  
BRANCH  37  38
HETATM   38  C   UNL     2      -8.817   2.784  71.032  1.00  0.00    -0.141 C  
BRANCH  38  39
HETATM   39  C   UNL     2     -10.033   2.842  71.945  1.00  0.00    -0.210 C  
HETATM   40  C   UNL     2      -9.912   3.617  73.258  1.00  0.00    -0.129 C  
HETATM   41  O   UNL     2     -10.706   3.236  74.163  1.00  0.00    -0.187 OA 
HETATM   42  O   UNL     2      -9.102   4.597  73.341  1.00  0.00    -0.114 OA 
ENDBRANCH  38  39
ENDBRANCH  37  38
ENDBRANCH  36  37
ENDBRANCH  34  35
ENDBRANCH  31  34
ENDBRANCH  24  25
ENDBRANCH  17  18
ENDBRANCH  16  17
ENDBRANCH   6  16
TORSDOF 9
ENDMDL
MODEL      224
REMARK 921   NORMALIZED FREE ENERGY PREDICTED BY IDOCK:   -4.34 KCAL/MOL
REMARK 922        TOTAL FREE ENERGY PREDICTED BY IDOCK:   -8.55 KCAL/MOL
REMARK 923 INTER-LIGAND FREE ENERGY PREDICTED BY IDOCK:   -6.97 KCAL/MOL
REMARK 924 INTRA-LIGAND FREE ENERGY PREDICTED BY IDOCK:   -1.58 KCAL/MOL
REMARK 927      BINDING AFFINITY PREDICTED BY RF-SCORE:    0.00 PKD
ROOT
HETATM    1  O   UNL     1      -5.331   9.129  65.085  1.00  0.00    -0.040 OA 
HETATM    2  C   UNL     1      -6.416   8.989  64.174  1.00  0.00    -0.083 C  
HETATM    3  H   UNL     1      -4.521   9.345  64.638  1.00  0.00     0.000 HD 
HETATM    4  C   UNL     2     -11.850  15.658  63.957  1.00  0.00     0.058 C  
HETATM    5  C   UNL     1      -7.743   8.635  64.906  1.00  0.00    -0.106 C  
HETATM    6  C   UNL     2     -11.914  14.560  65.008  1.00  0.00    -0.399 C  
HETATM    7  C   UNL     1      -8.032   9.716  65.984  1.00  0.00    -0.108 C  
HETATM    8  N   UNL     1      -8.816   8.666  63.864  1.00  0.00    -0.399 NA 
HETATM    9  C   UNL     1      -7.809   7.222  65.465  1.00  0.00    -0.115 C  
HETATM   10  H   UNL     1      -7.980   5.425  64.711  1.00  0.00     0.000 HD 
HETATM   11  H   UNL     1      -8.272  11.678  66.048  1.00  0.00     0.000 HD 
HETATM   12  H2  UNL     1      -8.623   8.064  63.063  1.00  0.00     0.000 HD 
HETATM   13  O   UNL     1      -8.096  11.017  65.390  1.00  0.00    -0.050 OA 
HETATM   14  O   UNL     1      -7.938   6.308  64.363  1.00  0.00    -0.114 OA 
HETATM   15  H1  UNL     1      -9.686   8.434  64.344  1.00  0.00     0.000 HD 
ENDROOT
BRANCH   6  16
HETATM   16  C   UNL     2     -11.773  13.149  64.434  1.00  0.00    -0.429 C  
BRANCH  16  17
HETATM   17  C   UNL     2     -12.118  12.016  65.404  1.00  0.00    -0.095 C  
BRANCH  17  18
HETATM   18  C   UNL     2     -10.965  11.593  66.344  1.00  0.00    -0.345 C  
HETATM   19  C   UNL     2     -10.996  12.078  67.812  1.00  0.00    -0.232 C  
HETATM   20  C   UNL     2      -9.917  11.459  68.712  1.00  0.00    -0.188 C  
HETATM   21  O   UNL     2     -12.260  11.684  68.359  1.00  0.00    -0.498 OA 
HETATM   22  C   UNL     2     -10.901  13.577  67.865  1.00  0.00    -0.262 C  
HETATM   23  H   UNL     2     -12.279  11.983  69.261  1.00  0.00     0.000 HD 
HETATM   24  C   UNL     2      -9.817  14.336  67.634  1.00  0.00    -0.224 C  
BRANCH  24  25
HETATM   25  C   UNL     2      -9.784  15.847  67.671  1.00  0.00    -0.223 C  
HETATM   26  C   UNL     2     -10.743  16.523  68.679  1.00  0.00    -0.334 C  
HETATM   27  C   UNL     2     -10.256  17.952  68.672  1.00  0.00    -0.387 C  
HETATM   28  O   UNL     2     -10.614  16.082  70.027  1.00  0.00    -0.301 OA 
HETATM   29  H   UNL     2     -11.202  16.497  70.647  1.00  0.00     0.000 HD 
HETATM   30  C   UNL     2      -8.735  17.812  68.697  1.00  0.00    -0.258 C  
HETATM   31  C   UNL     2      -8.392  16.480  67.978  1.00  0.00    -0.180 C  
HETATM   32  O   UNL     2      -8.185  18.976  68.100  1.00  0.00    -0.292 OA 
HETATM   33  H   UNL     2      -7.239  18.888  68.115  1.00  0.00     0.000 HD 
BRANCH  31  34
HETATM   34  C   UNL     2      -7.497  16.618  66.726  1.00  0.00    -0.289 C  
BRANCH  34  35
HETATM   35  C   UNL     2      -6.015  16.613  67.027  1.00  0.00    -0.188 C  
HETATM   36  C   UNL     2      -5.329  15.796  67.840  1.00  0.00    -0.142 C  
BRANCH  36  37
HETATM   37  C   UNL     2      -5.864  14.662  68.668  1.00  0.00    -0.090 C  
BRANCH  37  38
HETATM   38  C   UNL     2      -5.286  13.301  68.277  1.00  0.00    -0.092 C  
BRANCH  38  39
HETATM   39  C   UNL     2      -6.278  12.150  68.333  1.00  0.00    -0.052 C  
HETATM   40  C   UNL     2      -6.332  11.307  69.608  1.00  0.00    -0.124 C  
HETATM   41  O   UNL     2      -6.760  10.131  69.439  1.00  0.00    -0.053 OA 
HETATM   42  O   UNL     2      -6.018  11.831  70.726  1.00  0.00    -0.333 OA 
ENDBRANCH  38  39
ENDBRANCH  37  38
ENDBRANCH  36  37
ENDBRANCH  34  35
ENDBRANCH  31  34
ENDBRANCH  24  25
ENDBRANCH  17  18
ENDBRANCH  16  17
ENDBRANCH   6  16
TORSDOF 9
ENDMDL
MODEL      225
REMARK 921   NORMALIZED FREE ENERGY PREDICTED BY IDOCK:   -4.33 KCAL/MOL
REMARK 922        TOTAL FREE ENERGY PREDICTED BY IDOCK:   -8.53 KCAL/MOL
REMARK 923 INTER-LIGAND FREE ENERGY PREDICTED BY IDOCK:   -6.18 KCAL/MOL
REMARK 924 INTRA-LIGAND FREE ENERGY PREDICTED BY IDOCK:   -2.36 KCAL/MOL
REMARK 927      BINDING AFFINITY PREDICTED BY RF-SCORE:    0.00 PKD
ROOT
HETATM    1  O   UNL     1      -6.525   8.604  64.784  1.00  0.00    -0.065 OA 
HETATM    2  C   UNL     1      -7.053   9.906  64.549  1.00  0.00    -0.137 C  
HETATM    3  H   UNL     1      -5.762   8.431  64.245  1.00  0.00     0.000 HD 
HETATM    4  C   UNL     2      -5.198  15.716  70.620  1.00  0.00    -0.161 C  
HETATM    5  C   UNL     1      -8.303  10.189  65.433  1.00  0.00    -0.157 C  
HETATM    6  C   UNL     2      -6.335  14.713  70.741  1.00  0.00     0.002 C  
HETATM    7  C   UNL     1      -7.927   9.981  66.926  1.00  0.00    -0.113 C  
HETATM    8  N   UNL     1      -8.661  11.624  65.201  1.00  0.00    -0.319 NA 
HETATM    9  C   UNL     1      -9.556   9.425  65.034  1.00  0.00    -0.056 C  
HETATM   10  H   UNL     1     -10.833   9.504  63.554  1.00  0.00     0.000 HD 
HETATM   11  H   UNL     1      -6.599  10.694  68.205  1.00  0.00     0.000 HD 
HETATM   12  H2  UNL     1      -8.800  11.854  64.217  1.00  0.00     0.000 HD 
HETATM   13  O   UNL     1      -6.829  10.821  67.293  1.00  0.00    -0.075 OA 
HETATM   14  O   UNL     1     -10.050   9.982  63.804  1.00  0.00     0.074 OA 
HETATM   15  H1  UNL     1      -9.480  11.810  65.780  1.00  0.00     0.000 HD 
ENDROOT
BRANCH   6  16
HETATM   16  C   UNL     2      -7.176  14.579  69.471  1.00  0.00    -0.095 C  
BRANCH  16  17
HETATM   17  C   UNL     2      -8.617  15.083  69.591  1.00  0.00     0.005 C  
BRANCH  17  18
HETATM   18  C   UNL     2      -8.872  16.476  68.969  1.00  0.00    -0.223 C  
HETATM   19  C   UNL     2     -10.328  16.990  68.886  1.00  0.00    -0.337 C  
HETATM   20  C   UNL     2     -10.465  18.449  68.428  1.00  0.00    -0.280 C  
HETATM   21  O   UNL     2     -10.874  16.924  70.208  1.00  0.00    -0.317 OA 
HETATM   22  C   UNL     2     -11.142  16.100  67.990  1.00  0.00    -0.317 C  
HETATM   23  H   UNL     2     -11.769  17.239  70.157  1.00  0.00     0.000 HD 
HETATM   24  C   UNL     2     -11.090  16.022  66.649  1.00  0.00     0.006 C  
BRANCH  24  25
HETATM   25  C   UNL     2     -11.913  15.083  65.796  1.00  0.00     0.051 C  
HETATM   26  C   UNL     2     -12.275  15.592  64.381  1.00  0.00    -0.079 C  
HETATM   27  C   UNL     2     -12.813  14.345  63.722  1.00  0.00     0.812 C  
HETATM   28  O   UNL     2     -11.168  15.999  63.583  1.00  0.00    -0.802 OA 
HETATM   29  H   UNL     2     -11.389  16.312  62.713  1.00  0.00     0.000 HD 
HETATM   30  C   UNL     2     -11.833  13.258  64.161  1.00  0.00    -0.443 C  
HETATM   31  C   UNL     2     -11.288  13.676  65.553  1.00  0.00    -0.308 C  
HETATM   32  O   UNL     2     -12.523  12.018  64.134  1.00  0.00    -0.387 OA 
HETATM   33  H   UNL     2     -11.914  11.343  64.407  1.00  0.00     0.000 HD 
BRANCH  31  34
HETATM   34  C   UNL     2     -11.569  12.678  66.699  1.00  0.00    -0.443 C  
BRANCH  34  35
HETATM   35  C   UNL     2     -10.443  12.558  67.700  1.00  0.00    -0.228 C  
HETATM   36  C   UNL     2     -10.436  11.921  68.881  1.00  0.00    -0.164 C  
BRANCH  36  37
HETATM   37  C   UNL     2     -11.560  11.154  69.516  1.00  0.00    -0.392 C  
BRANCH  37  38
HETATM   38  C   UNL     2     -11.086  10.123  70.543  1.00  0.00    -0.400 C  
BRANCH  38  39
HETATM   39  C   UNL     2      -9.697   9.561  70.282  1.00  0.00    -0.314 C  
HETATM   40  C   UNL     2      -9.589   8.175  69.644  1.00  0.00    -0.168 C  
HETATM   41  O   UNL     2      -8.514   7.564  69.901  1.00  0.00    -0.135 OA 
HETATM   42  O   UNL     2     -10.515   7.761  68.873  1.00  0.00    -0.213 OA 
ENDBRANCH  38  39
ENDBRANCH  37  38
ENDBRANCH  36  37
ENDBRANCH  34  35
ENDBRANCH  31  34
ENDBRANCH  24  25
ENDBRANCH  17  18
ENDBRANCH  16  17
ENDBRANCH   6  16
TORSDOF 9
ENDMDL
MODEL      226
REMARK 921   NORMALIZED FREE ENERGY PREDICTED BY IDOCK:   -4.32 KCAL/MOL
REMARK 922        TOTAL FREE ENERGY PREDICTED BY IDOCK:   -8.52 KCAL/MOL
REMARK 923 INTER-LIGAND FREE ENERGY PREDICTED BY IDOCK:   -6.47 KCAL/MOL
REMARK 924 INTRA-LIGAND FREE ENERGY PREDICTED BY IDOCK:   -2.05 KCAL/MOL
REMARK 927      BINDING AFFINITY PREDICTED BY RF-SCORE:    0.00 PKD
ROOT
HETATM    1  O   UNL     1      -9.919  19.656  69.378  1.00  0.00    -0.518 OA 
HETATM    2  C   UNL     1     -10.360  18.648  68.474  1.00  0.00    -0.265 C  
HETATM    3  H   UNL     1     -10.569  19.838  70.047  1.00  0.00     0.000 HD 
HETATM    4  C   UNL     2      -6.855  10.887  69.710  1.00  0.00    -0.134 C  
HETATM    5  C   UNL     1      -9.296  18.350  67.378  1.00  0.00    -0.272 C  
HETATM    6  C   UNL     2      -6.166  12.003  68.941  1.00  0.00    -0.072 C  
HETATM    7  C   UNL     1      -7.957  17.962  68.063  1.00  0.00    -0.250 C  
HETATM    8  N   UNL     1      -9.816  17.183  66.598  1.00  0.00    -0.276 NA 
HETATM    9  C   UNL     1      -9.124  19.445  66.337  1.00  0.00    -0.360 C  
HETATM   10  H   UNL     1     -10.180  20.133  64.842  1.00  0.00     0.000 HD 
HETATM   11  H   UNL     1      -7.320  16.602  69.350  1.00  0.00     0.000 HD 
HETATM   12  H2  UNL     1     -10.754  17.330  66.223  1.00  0.00     0.000 HD 
HETATM   13  O   UNL     1      -8.139  16.839  68.931  1.00  0.00    -0.243 OA 
HETATM   14  O   UNL     1     -10.287  19.449  65.492  1.00  0.00    -0.454 OA 
HETATM   15  H1  UNL     1      -9.119  16.987  65.880  1.00  0.00     0.000 HD 
ENDROOT
BRANCH   6  16
HETATM   16  C   UNL     2      -7.082  12.727  67.953  1.00  0.00    -0.118 C  
BRANCH  16  17
HETATM   17  C   UNL     2      -8.580  12.478  68.156  1.00  0.00    -0.189 C  
BRANCH  17  18
HETATM   18  C   UNL     2      -9.378  12.222  66.856  1.00  0.00    -0.210 C  
HETATM   19  C   UNL     2     -10.690  11.410  66.945  1.00  0.00    -0.265 C  
HETATM   20  C   UNL     2     -11.504  11.366  65.644  1.00  0.00     0.039 C  
HETATM   21  O   UNL     2     -11.517  12.051  67.923  1.00  0.00    -0.284 OA 
HETATM   22  C   UNL     2     -10.402  10.010  67.410  1.00  0.00    -0.292 C  
HETATM   23  H   UNL     2     -12.323  11.551  67.979  1.00  0.00     0.000 HD 
HETATM   24  C   UNL     2      -9.832   9.016  66.708  1.00  0.00    -0.300 C  
BRANCH  24  25
HETATM   25  C   UNL     2      -9.537   7.630  67.235  1.00  0.00    -0.201 C  
HETATM   26  C   UNL     2     -10.763   6.793  67.668  1.00  0.00    -0.288 C  
HETATM   27  C   UNL     2     -10.164   5.419  67.847  1.00  0.00    -0.219 C  
HETATM   28  O   UNL     2     -11.774   6.642  66.676  1.00  0.00    -0.492 OA 
HETATM   29  H   UNL     2     -12.528   6.128  66.941  1.00  0.00     0.000 HD 
HETATM   30  C   UNL     2      -9.242   5.271  66.637  1.00  0.00    -0.130 C  
HETATM   31  C   UNL     2      -8.754   6.695  66.263  1.00  0.00    -0.150 C  
HETATM   32  O   UNL     2      -8.216   4.356  66.987  1.00  0.00    -0.101 OA 
HETATM   33  H   UNL     2      -7.643   4.263  66.235  1.00  0.00     0.000 HD 
BRANCH  31  34
HETATM   34  C   UNL     2      -7.224   6.904  66.318  1.00  0.00    -0.071 C  
BRANCH  34  35
HETATM   35  C   UNL     2      -6.778   7.909  67.356  1.00  0.00    -0.069 C  
HETATM   36  C   UNL     2      -6.330   7.684  68.601  1.00  0.00    -0.036 C  
BRANCH  36  37
HETATM   37  C   UNL     2      -6.154   6.361  69.288  1.00  0.00    -0.026 C  
BRANCH  37  38
HETATM   38  C   UNL     2      -7.438   5.838  69.935  1.00  0.00    -0.079 C  
BRANCH  38  39
HETATM   39  C   UNL     2      -7.234   4.683  70.905  1.00  0.00    -0.048 C  
HETATM   40  C   UNL     2      -7.010   3.286  70.324  1.00  0.00    -0.034 C  
HETATM   41  O   UNL     2      -7.342   2.342  71.094  1.00  0.00    -0.032 OA 
HETATM   42  O   UNL     2      -6.467   3.158  69.179  1.00  0.00    -0.029 OA 
ENDBRANCH  38  39
ENDBRANCH  37  38
ENDBRANCH  36  37
ENDBRANCH  34  35
ENDBRANCH  31  34
ENDBRANCH  24  25
ENDBRANCH  17  18
ENDBRANCH  16  17
ENDBRANCH   6  16
TORSDOF 9
ENDMDL
MODEL      227
REMARK 921   NORMALIZED FREE ENERGY PREDICTED BY IDOCK:   -4.25 KCAL/MOL
REMARK 922        TOTAL FREE ENERGY PREDICTED BY IDOCK:   -8.42 KCAL/MOL
REMARK 923 INTER-LIGAND FREE ENERGY PREDICTED BY IDOCK:   -7.27 KCAL/MOL
REMARK 924 INTRA-LIGAND FREE ENERGY PREDICTED BY IDOCK:   -1.15 KCAL/MOL
REMARK 927      BINDING AFFINITY PREDICTED BY RF-SCORE:    0.00 PKD
ROOT
HETATM    1  O   UNL     1      -9.926  17.536  68.227  1.00  0.00    -0.292 OA 
HETATM    2  C   UNL     1      -9.691  16.384  69.031  1.00  0.00    -0.262 C  
HETATM    3  H   UNL     1      -9.171  18.112  68.208  1.00  0.00     0.000 HD 
HETATM    4  C   UNL     2      -8.082   9.163  64.636  1.00  0.00    -0.136 C  
HETATM    5  C   UNL     1     -10.928  15.440  69.062  1.00  0.00    -0.252 C  
HETATM    6  C   UNL     2      -9.485   9.693  64.891  1.00  0.00    -0.288 C  
HETATM    7  C   UNL     1     -11.311  15.057  67.606  1.00  0.00    -0.334 C  
HETATM    8  N   UNL     1     -10.499  14.215  69.807  1.00  0.00    -0.396 NA 
HETATM    9  C   UNL     1     -12.113  15.963  69.859  1.00  0.00    -0.227 C  
HETATM   10  H   UNL     1     -12.518  16.227  71.755  1.00  0.00     0.000 HD 
HETATM   11  H   UNL     1     -10.439  14.209  66.047  1.00  0.00     0.000 HD 
HETATM   12  H2  UNL     1     -10.118  14.414  70.732  1.00  0.00     0.000 HD 
HETATM   13  O   UNL     1     -10.205  14.444  66.937  1.00  0.00    -0.260 OA 
HETATM   14  O   UNL     1     -11.778  15.901  71.256  1.00  0.00    -0.379 OA 
HETATM   15  H1  UNL     1     -11.310  13.596  69.827  1.00  0.00     0.000 HD 
ENDROOT
BRANCH   6  16
HETATM   16  C   UNL     2      -9.715  10.157  66.330  1.00  0.00    -0.259 C  
BRANCH  16  17
HETATM   17  C   UNL     2     -10.801  11.224  66.502  1.00  0.00    -0.319 C  
BRANCH  17  18
HETATM   18  C   UNL     2     -11.600  11.130  67.823  1.00  0.00    -0.303 C  
HETATM   19  C   UNL     2     -10.866  10.645  69.094  1.00  0.00    -0.237 C  
HETATM   20  C   UNL     2     -11.685  10.761  70.388  1.00  0.00    -0.445 C  
HETATM   21  O   UNL     2      -9.715  11.480  69.262  1.00  0.00    -0.407 OA 
HETATM   22  C   UNL     2     -10.402   9.227  68.915  1.00  0.00    -0.231 C  
HETATM   23  H   UNL     2      -9.264  11.182  70.043  1.00  0.00     0.000 HD 
HETATM   24  C   UNL     2     -11.154   8.113  68.920  1.00  0.00     0.259 C  
BRANCH  24  25
HETATM   25  C   UNL     2     -10.637   6.708  68.705  1.00  0.00    -0.274 C  
HETATM   26  C   UNL     2     -10.878   6.103  67.302  1.00  0.00    -0.352 C  
HETATM   27  C   UNL     2     -10.009   4.870  67.334  1.00  0.00    -0.209 C  
HETATM   28  O   UNL     2     -10.394   6.884  66.214  1.00  0.00    -0.458 OA 
HETATM   29  H   UNL     2     -10.542   6.513  65.352  1.00  0.00     0.000 HD 
HETATM   30  C   UNL     2      -8.719   5.358  67.991  1.00  0.00    -0.106 C  
HETATM   31  C   UNL     2      -9.111   6.510  68.954  1.00  0.00    -0.131 C  
HETATM   32  O   UNL     2      -8.101   4.241  68.610  1.00  0.00    -0.076 OA 
HETATM   33  H   UNL     2      -7.299   4.544  69.019  1.00  0.00     0.000 HD 
BRANCH  31  34
HETATM   34  C   UNL     2      -8.762   6.274  70.441  1.00  0.00    -0.146 C  
BRANCH  34  35
HETATM   35  C   UNL     2      -7.425   6.845  70.856  1.00  0.00    -0.083 C  
HETATM   36  C   UNL     2      -6.549   6.360  71.750  1.00  0.00    -0.058 C  
BRANCH  36  37
HETATM   37  C   UNL     2      -6.675   5.110  72.573  1.00  0.00    -0.069 C  
BRANCH  37  38
HETATM   38  C   UNL     2      -7.220   5.364  73.980  1.00  0.00    -0.086 C  
BRANCH  38  39
HETATM   39  C   UNL     2      -8.734   5.282  74.098  1.00  0.00    -0.116 C  
HETATM   40  C   UNL     2      -9.388   3.900  74.035  1.00  0.00    -0.095 C  
HETATM   41  O   UNL     2     -10.587   3.908  73.640  1.00  0.00    -0.166 OA 
HETATM   42  O   UNL     2      -8.739   2.876  74.427  1.00  0.00    -0.077 OA 
ENDBRANCH  38  39
ENDBRANCH  37  38
ENDBRANCH  36  37
ENDBRANCH  34  35
ENDBRANCH  31  34
ENDBRANCH  24  25
ENDBRANCH  17  18
ENDBRANCH  16  17
ENDBRANCH   6  16
TORSDOF 9
ENDMDL
MODEL      228
REMARK 921   NORMALIZED FREE ENERGY PREDICTED BY IDOCK:   -4.25 KCAL/MOL
REMARK 922        TOTAL FREE ENERGY PREDICTED BY IDOCK:   -8.41 KCAL/MOL
REMARK 923 INTER-LIGAND FREE ENERGY PREDICTED BY IDOCK:   -6.99 KCAL/MOL
REMARK 924 INTRA-LIGAND FREE ENERGY PREDICTED BY IDOCK:   -1.43 KCAL/MOL
REMARK 927      BINDING AFFINITY PREDICTED BY RF-SCORE:    0.00 PKD
ROOT
HETATM    1  O   UNL     1      -9.714  14.633  64.927  1.00  0.00    -0.405 OA 
HETATM    2  C   UNL     1     -11.096  14.432  65.204  1.00  0.00    -0.362 C  
HETATM    3  H   UNL     1      -9.439  15.519  65.131  1.00  0.00     0.000 HD 
HETATM    4  C   UNL     2     -12.745  10.056  72.427  1.00  0.00    -0.054 C  
HETATM    5  C   UNL     1     -11.546  12.980  64.870  1.00  0.00    -0.326 C  
HETATM    6  C   UNL     2     -12.381   9.389  71.110  1.00  0.00    -0.386 C  
HETATM    7  C   UNL     1     -10.651  11.979  65.652  1.00  0.00    -0.265 C  
HETATM    8  N   UNL     1     -12.961  12.862  65.344  1.00  0.00    -0.586 NA 
HETATM    9  C   UNL     1     -11.623  12.657  63.386  1.00  0.00    -0.469 C  
HETATM   10  H   UNL     1     -12.805  13.149  61.907  1.00  0.00     0.000 HD 
HETATM   11  H   UNL     1     -10.169  11.622  67.537  1.00  0.00     0.000 HD 
HETATM   12  H2  UNL     1     -13.579  13.577  64.958  1.00  0.00     0.000 HD 
HETATM   13  O   UNL     1     -10.716  12.234  67.059  1.00  0.00    -0.223 OA 
HETATM   14  O   UNL     1     -12.756  13.350  62.834  1.00  0.00    -0.535 OA 
HETATM   15  H1  UNL     1     -13.256  11.910  65.126  1.00  0.00     0.000 HD 
ENDROOT
BRANCH   6  16
HETATM   16  C   UNL     2     -13.119   9.969  69.902  1.00  0.00     0.669 C  
BRANCH  16  17
HETATM   17  C   UNL     2     -12.770  11.422  69.566  1.00  0.00     0.264 C  
BRANCH  17  18
HETATM   18  C   UNL     2     -12.260  12.261  70.761  1.00  0.00    -0.354 C  
HETATM   19  C   UNL     2     -12.624  13.762  70.816  1.00  0.00    -0.340 C  
HETATM   20  C   UNL     2     -12.234  14.467  72.123  1.00  0.00    -0.238 C  
HETATM   21  O   UNL     2     -14.049  13.855  70.711  1.00  0.00     0.123 OA 
HETATM   22  C   UNL     2     -12.013  14.487  69.649  1.00  0.00    -0.375 C  
HETATM   23  H   UNL     2     -14.273  14.777  70.744  1.00  0.00     0.000 HD 
HETATM   24  C   UNL     2     -10.720  14.804  69.469  1.00  0.00    -0.229 C  
BRANCH  24  25
HETATM   25  C   UNL     2     -10.154  15.510  68.257  1.00  0.00    -0.218 C  
HETATM   26  C   UNL     2     -10.659  16.950  68.011  1.00  0.00    -0.367 C  
HETATM   27  C   UNL     2      -9.708  17.445  66.949  1.00  0.00    -0.286 C  
HETATM   28  O   UNL     2     -10.503  17.843  69.110  1.00  0.00    -0.437 OA 
HETATM   29  H   UNL     2     -10.813  18.728  68.960  1.00  0.00     0.000 HD 
HETATM   30  C   UNL     2      -8.346  16.943  67.427  1.00  0.00    -0.186 C  
HETATM   31  C   UNL     2      -8.600  15.634  68.220  1.00  0.00    -0.158 C  
HETATM   32  O   UNL     2      -7.514  16.804  66.286  1.00  0.00    -0.284 OA 
HETATM   33  H   UNL     2      -6.667  16.492  66.583  1.00  0.00     0.000 HD 
BRANCH  31  34
HETATM   34  C   UNL     2      -7.902  14.376  67.656  1.00  0.00    -0.194 C  
BRANCH  34  35
HETATM   35  C   UNL     2      -7.040  13.649  68.663  1.00  0.00    -0.105 C  
HETATM   36  C   UNL     2      -6.944  12.329  68.885  1.00  0.00    -0.098 C  
BRANCH  36  37
HETATM   37  C   UNL     2      -7.677  11.224  68.179  1.00  0.00    -0.112 C  
BRANCH  37  38
HETATM   38  C   UNL     2      -6.851  10.558  67.076  1.00  0.00    -0.087 C  
BRANCH  38  39
HETATM   39  C   UNL     2      -7.349  10.825  65.664  1.00  0.00    -0.026 C  
HETATM   40  C   UNL     2      -7.200   9.712  64.625  1.00  0.00    -0.123 C  
HETATM   41  O   UNL     2      -7.146  10.117  63.430  1.00  0.00    -0.133 OA 
HETATM   42  O   UNL     2      -7.203   8.494  65.000  1.00  0.00    -0.081 OA 
ENDBRANCH  38  39
ENDBRANCH  37  38
ENDBRANCH  36  37
ENDBRANCH  34  35
ENDBRANCH  31  34
ENDBRANCH  24  25
ENDBRANCH  17  18
ENDBRANCH  16  17
ENDBRANCH   6  16
TORSDOF 9
ENDMDL
MODEL      229
REMARK 921   NORMALIZED FREE ENERGY PREDICTED BY IDOCK:   -4.23 KCAL/MOL
REMARK 922        TOTAL FREE ENERGY PREDICTED BY IDOCK:   -8.38 KCAL/MOL
REMARK 923 INTER-LIGAND FREE ENERGY PREDICTED BY IDOCK:   -5.96 KCAL/MOL
REMARK 924 INTRA-LIGAND FREE ENERGY PREDICTED BY IDOCK:   -2.42 KCAL/MOL
REMARK 927      BINDING AFFINITY PREDICTED BY RF-SCORE:    0.00 PKD
ROOT
HETATM    1  O   UNL     1      -6.814  15.788  69.454  1.00  0.00    -0.167 OA 
HETATM    2  C   UNL     1      -8.037  15.068  69.564  1.00  0.00    -0.122 C  
HETATM    3  H   UNL     1      -6.747  16.471  70.111  1.00  0.00     0.000 HD 
HETATM    4  C   UNL     2      -7.355   7.303  73.210  1.00  0.00    -0.082 C  
HETATM    5  C   UNL     1      -8.146  13.949  68.488  1.00  0.00    -0.133 C  
HETATM    6  C   UNL     2      -7.044   7.570  71.746  1.00  0.00    -0.063 C  
HETATM    7  C   UNL     1      -6.914  13.010  68.604  1.00  0.00    -0.102 C  
HETATM    8  N   UNL     1      -9.392  13.182  68.808  1.00  0.00    -0.401 NA 
HETATM    9  C   UNL     1      -8.371  14.445  67.068  1.00  0.00    -0.145 C  
HETATM   10  H   UNL     1      -9.855  15.256  66.087  1.00  0.00     0.000 HD 
HETATM   11  H   UNL     1      -6.067  11.885  69.992  1.00  0.00     0.000 HD 
HETATM   12  H2  UNL     1     -10.225  13.768  68.869  1.00  0.00     0.000 HD 
HETATM   13  O   UNL     1      -6.820  12.459  69.921  1.00  0.00     0.113 OA 
HETATM   14  O   UNL     1      -9.715  14.946  66.974  1.00  0.00    -0.226 OA 
HETATM   15  H1  UNL     1      -9.463  12.449  68.102  1.00  0.00     0.000 HD 
ENDROOT
BRANCH   6  16
HETATM   16  C   UNL     2      -8.086   8.443  71.044  1.00  0.00    -0.132 C  
BRANCH  16  17
HETATM   17  C   UNL     2      -9.282   8.849  71.911  1.00  0.00    -0.240 C  
BRANCH  17  18
HETATM   18  C   UNL     2     -10.657   8.383  71.377  1.00  0.00    -0.296 C  
HETATM   19  C   UNL     2     -11.207   7.019  71.852  1.00  0.00    -0.249 C  
HETATM   20  C   UNL     2     -12.651   6.727  71.420  1.00  0.00    -0.348 C  
HETATM   21  O   UNL     2     -11.205   7.038  73.284  1.00  0.00    -0.520 OA 
HETATM   22  C   UNL     2     -10.307   5.908  71.390  1.00  0.00    -0.271 C  
HETATM   23  H   UNL     2     -11.543   6.200  73.575  1.00  0.00     0.000 HD 
HETATM   24  C   UNL     2     -10.177   5.425  70.143  1.00  0.00    -0.342 C  
BRANCH  24  25
HETATM   25  C   UNL     2      -9.230   4.321  69.727  1.00  0.00    -0.207 C  
HETATM   26  C   UNL     2      -8.894   3.270  70.809  1.00  0.00    -0.082 C  
HETATM   27  C   UNL     2      -8.201   2.197  70.006  1.00  0.00    -0.062 C  
HETATM   28  O   UNL     2     -10.020   2.633  71.406  1.00  0.00    -0.141 OA 
HETATM   29  H   UNL     2      -9.814   1.987  72.071  1.00  0.00     0.000 HD 
HETATM   30  C   UNL     2      -9.060   2.080  68.748  1.00  0.00    -0.144 C  
HETATM   31  C   UNL     2      -9.684   3.478  68.496  1.00  0.00    -0.040 C  
HETATM   32  O   UNL     2      -8.231   1.594  67.704  1.00  0.00    -0.063 OA 
HETATM   33  H   UNL     2      -8.766   1.522  66.921  1.00  0.00     0.000 HD 
BRANCH  31  34
HETATM   34  C   UNL     2      -9.319   4.129  67.143  1.00  0.00    -0.198 C  
BRANCH  34  35
HETATM   35  C   UNL     2     -10.473   4.836  66.470  1.00  0.00    -0.251 C  
HETATM   36  C   UNL     2     -10.856   6.116  66.590  1.00  0.00    -0.279 C  
BRANCH  36  37
HETATM   37  C   UNL     2     -10.226   7.188  67.432  1.00  0.00    -0.291 C  
BRANCH  37  38
HETATM   38  C   UNL     2      -9.117   7.954  66.708  1.00  0.00    -0.189 C  
BRANCH  38  39
HETATM   39  C   UNL     2      -7.704   7.546  67.099  1.00  0.00    -0.112 C  
HETATM   40  C   UNL     2      -6.729   8.645  67.524  1.00  0.00    -0.066 C  
HETATM   41  O   UNL     2      -5.512   8.357  67.351  1.00  0.00    -0.036 OA 
HETATM   42  O   UNL     2      -7.173   9.711  68.061  1.00  0.00    -0.079 OA 
ENDBRANCH  38  39
ENDBRANCH  37  38
ENDBRANCH  36  37
ENDBRANCH  34  35
ENDBRANCH  31  34
ENDBRANCH  24  25
ENDBRANCH  17  18
ENDBRANCH  16  17
ENDBRANCH   6  16
TORSDOF 9
ENDMDL
MODEL      230
REMARK 921   NORMALIZED FREE ENERGY PREDICTED BY IDOCK:   -4.19 KCAL/MOL
REMARK 922        TOTAL FREE ENERGY PREDICTED BY IDOCK:   -8.33 KCAL/MOL
REMARK 923 INTER-LIGAND FREE ENERGY PREDICTED BY IDOCK:   -6.87 KCAL/MOL
REMARK 924 INTRA-LIGAND FREE ENERGY PREDICTED BY IDOCK:   -1.46 KCAL/MOL
REMARK 927      BINDING AFFINITY PREDICTED BY RF-SCORE:    0.00 PKD
ROOT
HETATM    1  O   UNL     1      -6.348   2.975  72.067  1.00  0.00    -0.014 OA 
HETATM    2  C   UNL     1      -7.515   3.617  71.565  1.00  0.00    -0.051 C  
HETATM    3  H   UNL     1      -6.316   2.058  71.820  1.00  0.00     0.000 HD 
HETATM    4  C   UNL     2      -6.222   8.630  64.691  1.00  0.00    -0.066 C  
HETATM    5  C   UNL     1      -7.566   5.119  71.969  1.00  0.00    -0.097 C  
HETATM    6  C   UNL     2      -5.958   9.083  66.119  1.00  0.00    -0.055 C  
HETATM    7  C   UNL     1      -6.268   5.820  71.480  1.00  0.00    -0.043 C  
HETATM    8  N   UNL     1      -8.748   5.702  71.260  1.00  0.00    -0.131 NA 
HETATM    9  C   UNL     1      -7.851   5.378  73.440  1.00  0.00    -0.107 C  
HETATM   10  H   UNL     1      -9.407   5.217  74.614  1.00  0.00     0.000 HD 
HETATM   11  H   UNL     1      -5.319   6.095  69.767  1.00  0.00     0.000 HD 
HETATM   12  H2  UNL     1      -9.619   5.203  71.444  1.00  0.00     0.000 HD 
HETATM   13  O   UNL     1      -6.112   5.666  70.066  1.00  0.00    -0.023 OA 
HETATM   14  O   UNL     1      -9.229   5.055  73.694  1.00  0.00    -0.123 OA 
HETATM   15  H1  UNL     1      -8.782   6.687  71.524  1.00  0.00     0.000 HD 
ENDROOT
BRANCH   6  16
HETATM   16  C   UNL     2      -7.071   8.709  67.099  1.00  0.00    -0.075 C  
BRANCH  16  17
HETATM   17  C   UNL     2      -7.972   9.870  67.531  1.00  0.00    -0.106 C  
BRANCH  17  18
HETATM   18  C   UNL     2      -8.657   9.684  68.904  1.00  0.00    -0.127 C  
HETATM   19  C   UNL     2     -10.200   9.765  68.974  1.00  0.00    -0.203 C  
HETATM   20  C   UNL     2     -10.798   9.386  70.337  1.00  0.00    -0.321 C  
HETATM   21  O   UNL     2     -10.715   8.823  68.026  1.00  0.00    -0.408 OA 
HETATM   22  C   UNL     2     -10.666  11.139  68.582  1.00  0.00    -0.234 C  
HETATM   23  H   UNL     2     -11.662   8.873  68.068  1.00  0.00     0.000 HD 
HETATM   24  C   UNL     2     -10.572  12.270  69.300  1.00  0.00     0.064 C  
BRANCH  24  25
HETATM   25  C   UNL     2     -11.031  13.637  68.843  1.00  0.00    -0.281 C  
HETATM   26  C   UNL     2     -12.282  14.205  69.552  1.00  0.00    -0.305 C  
HETATM   27  C   UNL     2     -12.284  15.642  69.091  1.00  0.00    -0.149 C  
HETATM   28  O   UNL     2     -12.200  14.260  70.973  1.00  0.00    -0.321 OA 
HETATM   29  H   UNL     2     -12.968  14.610  71.410  1.00  0.00     0.000 HD 
HETATM   30  C   UNL     2     -10.816  16.053  69.195  1.00  0.00    -0.281 C  
HETATM   31  C   UNL     2      -9.971  14.774  68.958  1.00  0.00    -0.218 C  
HETATM   32  O   UNL     2     -10.595  17.101  68.264  1.00  0.00    -0.348 OA 
HETATM   33  H   UNL     2      -9.682  17.357  68.329  1.00  0.00     0.000 HD 
BRANCH  31  34
HETATM   34  C   UNL     2      -9.008  14.833  67.751  1.00  0.00    -0.182 C  
BRANCH  34  35
HETATM   35  C   UNL     2      -9.699  15.045  66.424  1.00  0.00    -0.305 C  
HETATM   36  C   UNL     2      -9.895  14.163  65.432  1.00  0.00    -0.233 C  
BRANCH  36  37
HETATM   37  C   UNL     2      -9.474  12.722  65.388  1.00  0.00     0.158 C  
BRANCH  37  38
HETATM   38  C   UNL     2     -10.644  11.754  65.198  1.00  0.00    -0.332 C  
BRANCH  38  39
HETATM   39  C   UNL     2     -11.997  12.304  65.622  1.00  0.00    -0.373 C  
HETATM   40  C   UNL     2     -12.703  13.285  64.684  1.00  0.00    -0.218 C  
HETATM   41  O   UNL     2     -13.513  14.065  65.258  1.00  0.00    -0.622 OA 
HETATM   42  O   UNL     2     -12.492  13.222  63.429  1.00  0.00    -0.741 OA 
ENDBRANCH  38  39
ENDBRANCH  37  38
ENDBRANCH  36  37
ENDBRANCH  34  35
ENDBRANCH  31  34
ENDBRANCH  24  25
ENDBRANCH  17  18
ENDBRANCH  16  17
ENDBRANCH   6  16
TORSDOF 9
ENDMDL
MODEL      231
REMARK 921   NORMALIZED FREE ENERGY PREDICTED BY IDOCK:   -4.19 KCAL/MOL
REMARK 922        TOTAL FREE ENERGY PREDICTED BY IDOCK:   -8.31 KCAL/MOL
REMARK 923 INTER-LIGAND FREE ENERGY PREDICTED BY IDOCK:   -6.66 KCAL/MOL
REMARK 924 INTRA-LIGAND FREE ENERGY PREDICTED BY IDOCK:   -1.65 KCAL/MOL
REMARK 927      BINDING AFFINITY PREDICTED BY RF-SCORE:    0.00 PKD
ROOT
HETATM    1  O   UNL     1      -7.813   4.560  67.232  1.00  0.00    -0.095 OA 
HETATM    2  C   UNL     1      -6.978   5.544  66.631  1.00  0.00    -0.064 C  
HETATM    3  H   UNL     1      -7.709   4.539  68.177  1.00  0.00     0.000 HD 
HETATM    4  C   UNL     2     -11.025  12.740  64.204  1.00  0.00    -0.435 C  
HETATM    5  C   UNL     1      -7.149   5.578  65.084  1.00  0.00    -0.065 C  
HETATM    6  C   UNL     2     -11.007  11.468  63.370  1.00  0.00    -0.397 C  
HETATM    7  C   UNL     1      -8.647   5.809  64.744  1.00  0.00    -0.038 C  
HETATM    8  N   UNL     1      -6.340   6.740  64.600  1.00  0.00    -0.038 NA 
HETATM    9  C   UNL     1      -6.560   4.384  64.348  1.00  0.00    -0.043 C  
HETATM   10  H   UNL     1      -4.759   3.744  63.934  1.00  0.00     0.000 HD 
HETATM   11  H   UNL     1     -10.038   7.157  65.139  1.00  0.00     0.000 HD 
HETATM   12  H2  UNL     1      -5.365   6.710  64.900  1.00  0.00     0.000 HD 
HETATM   13  O   UNL     1      -9.123   7.016  65.347  1.00  0.00     0.111 OA 
HETATM   14  O   UNL     1      -5.127   4.490  64.394  1.00  0.00    -0.011 OA 
HETATM   15  H1  UNL     1      -6.452   6.763  63.587  1.00  0.00     0.000 HD 
ENDROOT
BRANCH   6  16
HETATM   16  C   UNL     2      -9.627  10.815  63.273  1.00  0.00    -0.384 C  
BRANCH  16  17
HETATM   17  C   UNL     2      -9.179  10.056  64.526  1.00  0.00    -0.313 C  
BRANCH  17  18
HETATM   18  C   UNL     2      -7.673  10.179  64.856  1.00  0.00    -0.143 C  
HETATM   19  C   UNL     2      -7.236  10.113  66.337  1.00  0.00    -0.108 C  
HETATM   20  C   UNL     2      -5.717  10.057  66.553  1.00  0.00    -0.054 C  
HETATM   21  O   UNL     2      -7.772   8.901  66.881  1.00  0.00    -0.096 OA 
HETATM   22  C   UNL     2      -7.813  11.272  67.100  1.00  0.00    -0.151 C  
HETATM   23  H   UNL     2      -7.504   8.861  67.792  1.00  0.00     0.000 HD 
HETATM   24  C   UNL     2      -7.433  12.560  67.042  1.00  0.00    -0.009 C  
BRANCH  24  25
HETATM   25  C   UNL     2      -8.070  13.695  67.811  1.00  0.00    -0.173 C  
HETATM   26  C   UNL     2      -7.339  14.137  69.101  1.00  0.00    -0.067 C  
HETATM   27  C   UNL     2      -8.043  15.428  69.439  1.00  0.00    -0.249 C  
HETATM   28  O   UNL     2      -5.968  14.482  68.932  1.00  0.00    -0.083 OA 
HETATM   29  H   UNL     2      -5.519  14.753  69.723  1.00  0.00     0.000 HD 
HETATM   30  C   UNL     2      -8.174  16.129  68.087  1.00  0.00    -0.157 C  
HETATM   31  C   UNL     2      -8.273  15.017  67.010  1.00  0.00    -0.246 C  
HETATM   32  O   UNL     2      -9.293  16.999  68.159  1.00  0.00    -0.241 OA 
HETATM   33  H   UNL     2      -9.374  17.434  67.319  1.00  0.00     0.000 HD 
BRANCH  31  34
HETATM   34  C   UNL     2      -9.570  15.027  66.169  1.00  0.00    -0.345 C  
BRANCH  34  35
HETATM   35  C   UNL     2     -10.789  15.498  66.927  1.00  0.00    -0.301 C  
HETATM   36  C   UNL     2     -11.723  14.763  67.551  1.00  0.00    -0.370 C  
BRANCH  36  37
HETATM   37  C   UNL     2     -11.793  13.267  67.659  1.00  0.00    -0.400 C  
BRANCH  37  38
HETATM   38  C   UNL     2     -11.639  12.754  69.092  1.00  0.00    -0.373 C  
BRANCH  38  39
HETATM   39  C   UNL     2     -11.255  11.286  69.203  1.00  0.00    -0.337 C  
HETATM   40  C   UNL     2     -11.643  10.534  70.477  1.00  0.00    -0.350 C  
HETATM   41  O   UNL     2     -10.910   9.540  70.740  1.00  0.00    -0.266 OA 
HETATM   42  O   UNL     2     -12.673  10.895  71.135  1.00  0.00    -0.370 OA 
ENDBRANCH  38  39
ENDBRANCH  37  38
ENDBRANCH  36  37
ENDBRANCH  34  35
ENDBRANCH  31  34
ENDBRANCH  24  25
ENDBRANCH  17  18
ENDBRANCH  16  17
ENDBRANCH   6  16
TORSDOF 9
ENDMDL
MODEL      232
REMARK 921   NORMALIZED FREE ENERGY PREDICTED BY IDOCK:   -4.18 KCAL/MOL
REMARK 922        TOTAL FREE ENERGY PREDICTED BY IDOCK:   -8.31 KCAL/MOL
REMARK 923 INTER-LIGAND FREE ENERGY PREDICTED BY IDOCK:   -6.42 KCAL/MOL
REMARK 924 INTRA-LIGAND FREE ENERGY PREDICTED BY IDOCK:   -1.89 KCAL/MOL
REMARK 927      BINDING AFFINITY PREDICTED BY RF-SCORE:    0.00 PKD
ROOT
HETATM    1  O   UNL     1     -14.314   8.816  73.448  1.00  0.00    -1.155 OA 
HETATM    2  C   UNL     1     -14.101   8.658  72.049  1.00  0.00    -0.453 C  
HETATM    3  H   UNL     1     -15.187   8.541  73.704  1.00  0.00     0.000 HD 
HETATM    4  C   UNL     2      -9.322   1.845  69.859  1.00  0.00    -0.164 C  
HETATM    5  C   UNL     1     -12.671   9.108  71.629  1.00  0.00    -0.358 C  
HETATM    6  C   UNL     2      -8.731   3.167  70.325  1.00  0.00    -0.127 C  
HETATM    7  C   UNL     1     -11.625   8.318  72.463  1.00  0.00    -0.385 C  
HETATM    8  N   UNL     1     -12.530   8.752  70.182  1.00  0.00     0.119 NA 
HETATM    9  C   UNL     1     -12.435  10.609  71.666  1.00  0.00    -0.311 C  
HETATM   10  H   UNL     1     -13.013  12.144  70.601  1.00  0.00     0.000 HD 
HETATM   11  H   UNL     1     -11.161   6.426  72.800  1.00  0.00     0.000 HD 
HETATM   12  H2  UNL     1     -13.267   9.142  69.594  1.00  0.00     0.000 HD 
HETATM   13  O   UNL     1     -11.800   6.908  72.290  1.00  0.00    -0.279 OA 
HETATM   14  O   UNL     1     -13.160  11.206  70.578  1.00  0.00    -0.122 OA 
HETATM   15  H1  UNL     1     -11.593   9.046  69.907  1.00  0.00     0.000 HD 
ENDROOT
BRANCH   6  16
HETATM   16  C   UNL     2      -9.381   4.393  69.681  1.00  0.00    -0.228 C  
BRANCH  16  17
HETATM   17  C   UNL     2      -9.550   5.600  70.608  1.00  0.00    -0.213 C  
BRANCH  17  18
HETATM   18  C   UNL     2      -8.245   6.370  70.916  1.00  0.00    -0.125 C  
HETATM   19  C   UNL     2      -8.055   7.773  70.295  1.00  0.00    -0.113 C  
HETATM   20  C   UNL     2      -6.821   8.534  70.802  1.00  0.00    -0.044 C  
HETATM   21  O   UNL     2      -9.197   8.555  70.662  1.00  0.00    -0.148 OA 
HETATM   22  C   UNL     2      -8.007   7.674  68.796  1.00  0.00    -0.126 C  
HETATM   23  H   UNL     2      -9.080   9.417  70.280  1.00  0.00     0.000 HD 
HETATM   24  C   UNL     2      -7.003   7.200  68.039  1.00  0.00    -0.079 C  
BRANCH  24  25
HETATM   25  C   UNL     2      -7.020   7.095  66.531  1.00  0.00    -0.076 C  
HETATM   26  C   UNL     2      -8.111   6.182  65.925  1.00  0.00    -0.121 C  
HETATM   27  C   UNL     2      -8.039   6.531  64.458  1.00  0.00    -0.079 C  
HETATM   28  O   UNL     2      -9.445   6.485  66.325  1.00  0.00    -0.259 OA 
HETATM   29  H   UNL     2     -10.115   5.925  65.953  1.00  0.00     0.000 HD 
HETATM   30  C   UNL     2      -7.912   8.053  64.458  1.00  0.00    -0.151 C  
HETATM   31  C   UNL     2      -7.177   8.445  65.767  1.00  0.00    -0.072 C  
HETATM   32  O   UNL     2      -7.250   8.430  63.261  1.00  0.00    -0.089 OA 
HETATM   33  H   UNL     2      -7.171   9.377  63.261  1.00  0.00     0.000 HD 
BRANCH  31  34
HETATM   34  C   UNL     2      -5.840   9.195  65.574  1.00  0.00    -0.054 C  
BRANCH  34  35
HETATM   35  C   UNL     2      -5.967  10.701  65.624  1.00  0.00    -0.128 C  
HETATM   36  C   UNL     2      -6.222  11.484  66.684  1.00  0.00    -0.113 C  
BRANCH  36  37
HETATM   37  C   UNL     2      -6.445  11.060  68.107  1.00  0.00    -0.057 C  
BRANCH  37  38
HETATM   38  C   UNL     2      -7.262  12.067  68.918  1.00  0.00    -0.089 C  
BRANCH  38  39
HETATM   39  C   UNL     2      -7.622  13.342  68.170  1.00  0.00    -0.138 C  
HETATM   40  C   UNL     2      -9.086  13.565  67.789  1.00  0.00    -0.207 C  
HETATM   41  O   UNL     2      -9.256  14.319  66.790  1.00  0.00    -0.248 OA 
HETATM   42  O   UNL     2     -10.010  13.056  68.504  1.00  0.00    -0.227 OA 
ENDBRANCH  38  39
ENDBRANCH  37  38
ENDBRANCH  36  37
ENDBRANCH  34  35
ENDBRANCH  31  34
ENDBRANCH  24  25
ENDBRANCH  17  18
ENDBRANCH  16  17
ENDBRANCH   6  16
TORSDOF 9
ENDMDL
MODEL      233
REMARK 921   NORMALIZED FREE ENERGY PREDICTED BY IDOCK:   -4.18 KCAL/MOL
REMARK 922        TOTAL FREE ENERGY PREDICTED BY IDOCK:   -8.31 KCAL/MOL
REMARK 923 INTER-LIGAND FREE ENERGY PREDICTED BY IDOCK:   -5.97 KCAL/MOL
REMARK 924 INTRA-LIGAND FREE ENERGY PREDICTED BY IDOCK:   -2.34 KCAL/MOL
REMARK 927      BINDING AFFINITY PREDICTED BY RF-SCORE:    0.00 PKD
ROOT
HETATM    1  O   UNL     1     -10.545  14.588  65.566  1.00  0.00    -0.310 OA 
HETATM    2  C   UNL     1      -9.700  13.994  66.546  1.00  0.00    -0.295 C  
HETATM    3  H   UNL     1     -10.056  14.867  64.801  1.00  0.00     0.000 HD 
HETATM    4  C   UNL     2     -10.065   5.405  66.920  1.00  0.00    -0.240 C  
HETATM    5  C   UNL     1     -10.502  13.537  67.799  1.00  0.00    -0.240 C  
HETATM    6  C   UNL     2     -11.078   6.316  67.597  1.00  0.00    -0.368 C  
HETATM    7  C   UNL     1     -11.633  12.570  67.353  1.00  0.00    -0.370 C  
HETATM    8  N   UNL     1      -9.531  12.804  68.671  1.00  0.00    -0.408 NA 
HETATM    9  C   UNL     1     -11.013  14.666  68.680  1.00  0.00    -0.256 C  
HETATM   10  H   UNL     1     -10.207  15.953  69.913  1.00  0.00     0.000 HD 
HETATM   11  H   UNL     1     -11.783  10.860  66.372  1.00  0.00     0.000 HD 
HETATM   12  H2  UNL     1      -8.698  13.348  68.899  1.00  0.00     0.000 HD 
HETATM   13  O   UNL     1     -11.092  11.451  66.644  1.00  0.00    -0.295 OA 
HETATM   14  O   UNL     1      -9.888  15.248  69.362  1.00  0.00    -0.236 OA 
HETATM   15  H1  UNL     1     -10.056  12.504  69.493  1.00  0.00     0.000 HD 
ENDROOT
BRANCH   6  16
HETATM   16  C   UNL     2     -10.446   7.491  68.344  1.00  0.00    -0.212 C  
BRANCH  16  17
HETATM   17  C   UNL     2      -9.978   7.179  69.768  1.00  0.00    -0.180 C  
BRANCH  17  18
HETATM   18  C   UNL     2      -8.672   7.891  70.194  1.00  0.00    -0.136 C  
HETATM   19  C   UNL     2      -8.432   9.338  69.708  1.00  0.00    -0.149 C  
HETATM   20  C   UNL     2      -7.206  10.025  70.329  1.00  0.00    -0.155 C  
HETATM   21  O   UNL     2      -9.573  10.110  70.099  1.00  0.00    -0.391 OA 
HETATM   22  C   UNL     2      -8.325   9.372  68.210  1.00  0.00    -0.119 C  
HETATM   23  H   UNL     2      -9.426  10.999  69.801  1.00  0.00     0.000 HD 
HETATM   24  C   UNL     2      -7.301   8.945  67.453  1.00  0.00    -0.081 C  
BRANCH  24  25
HETATM   25  C   UNL     2      -7.259   8.975  65.941  1.00  0.00    -0.093 C  
HETATM   26  C   UNL     2      -7.952  10.181  65.266  1.00  0.00    -0.145 C  
HETATM   27  C   UNL     2      -7.479  10.061  63.837  1.00  0.00    -0.134 C  
HETATM   28  O   UNL     2      -7.508  11.461  65.709  1.00  0.00    -0.359 OA 
HETATM   29  H   UNL     2      -7.934  12.202  65.294  1.00  0.00     0.000 HD 
HETATM   30  C   UNL     2      -5.995   9.726  63.979  1.00  0.00    -0.111 C  
HETATM   31  C   UNL     2      -5.833   8.945  65.310  1.00  0.00    -0.051 C  
HETATM   32  O   UNL     2      -5.601   9.017  62.814  1.00  0.00    -0.077 OA 
HETATM   33  H   UNL     2      -4.678   8.809  62.902  1.00  0.00     0.000 HD 
BRANCH  31  34
HETATM   34  C   UNL     2      -5.259   7.517  65.172  1.00  0.00    -0.029 C  
BRANCH  34  35
HETATM   35  C   UNL     2      -6.312   6.440  65.050  1.00  0.00    -0.034 C  
HETATM   36  C   UNL     2      -6.738   5.576  65.984  1.00  0.00    -0.056 C  
BRANCH  36  37
HETATM   37  C   UNL     2      -6.272   5.459  67.407  1.00  0.00    -0.034 C  
BRANCH  37  38
HETATM   38  C   UNL     2      -6.736   4.172  68.093  1.00  0.00    -0.047 C  
BRANCH  38  39
HETATM   39  C   UNL     2      -7.532   4.387  69.371  1.00  0.00    -0.055 C  
HETATM   40  C   UNL     2      -8.684   3.427  69.673  1.00  0.00    -0.075 C  
HETATM   41  O   UNL     2      -9.584   3.909  70.415  1.00  0.00    -0.171 OA 
HETATM   42  O   UNL     2      -8.641   2.232  69.234  1.00  0.00    -0.059 OA 
ENDBRANCH  38  39
ENDBRANCH  37  38
ENDBRANCH  36  37
ENDBRANCH  34  35
ENDBRANCH  31  34
ENDBRANCH  24  25
ENDBRANCH  17  18
ENDBRANCH  16  17
ENDBRANCH   6  16
TORSDOF 9
ENDMDL
MODEL      234
REMARK 921   NORMALIZED FREE ENERGY PREDICTED BY IDOCK:   -4.18 KCAL/MOL
REMARK 922        TOTAL FREE ENERGY PREDICTED BY IDOCK:   -8.30 KCAL/MOL
REMARK 923 INTER-LIGAND FREE ENERGY PREDICTED BY IDOCK:   -6.40 KCAL/MOL
REMARK 924 INTRA-LIGAND FREE ENERGY PREDICTED BY IDOCK:   -1.90 KCAL/MOL
REMARK 927      BINDING AFFINITY PREDICTED BY RF-SCORE:    0.00 PKD
ROOT
HETATM    1  O   UNL     1      -7.465   5.798  70.749  1.00  0.00    -0.085 OA 
HETATM    2  C   UNL     1      -8.195   6.873  71.333  1.00  0.00    -0.110 C  
HETATM    3  H   UNL     1      -7.957   4.986  70.771  1.00  0.00     0.000 HD 
HETATM    4  C   UNL     2     -11.691  12.359  65.699  1.00  0.00    -0.468 C  
HETATM    5  C   UNL     1      -7.389   8.204  71.296  1.00  0.00    -0.072 C  
HETATM    6  C   UNL     2     -10.236  12.424  66.138  1.00  0.00    -0.262 C  
HETATM    7  C   UNL     1      -6.985   8.513  69.828  1.00  0.00    -0.047 C  
HETATM    8  N   UNL     1      -8.317   9.268  71.795  1.00  0.00    -0.207 NA 
HETATM    9  C   UNL     1      -6.208   8.265  72.252  1.00  0.00    -0.062 C  
HETATM   10  H   UNL     1      -5.981   8.413  74.189  1.00  0.00     0.000 HD 
HETATM   11  H   UNL     1      -7.895   8.770  68.092  1.00  0.00     0.000 HD 
HETATM   12  H2  UNL     1      -8.717   9.061  72.711  1.00  0.00     0.000 HD 
HETATM   13  O   UNL     1      -8.142   8.581  68.989  1.00  0.00    -0.111 OA 
HETATM   14  O   UNL     1      -6.719   8.376  73.592  1.00  0.00    -0.119 OA 
HETATM   15  H1  UNL     1      -7.789  10.140  71.771  1.00  0.00     0.000 HD 
ENDROOT
BRANCH   6  16
HETATM   16  C   UNL     2     -10.041  12.266  67.648  1.00  0.00    -0.204 C  
BRANCH  16  17
HETATM   17  C   UNL     2      -8.866  13.052  68.236  1.00  0.00    -0.172 C  
BRANCH  17  18
HETATM   18  C   UNL     2      -7.632  12.195  68.605  1.00  0.00    -0.097 C  
HETATM   19  C   UNL     2      -6.540  11.977  67.532  1.00  0.00    -0.123 C  
HETATM   20  C   UNL     2      -5.274  11.275  68.043  1.00  0.00    -0.043 C  
HETATM   21  O   UNL     2      -6.133  13.272  67.075  1.00  0.00    -0.438 OA 
HETATM   22  C   UNL     2      -7.105  11.216  66.365  1.00  0.00    -0.091 C  
HETATM   23  H   UNL     2      -5.463  13.138  66.416  1.00  0.00     0.000 HD 
HETATM   24  C   UNL     2      -7.419   9.911  66.315  1.00  0.00    -0.102 C  
BRANCH  24  25
HETATM   25  C   UNL     2      -8.015   9.201  65.120  1.00  0.00    -0.117 C  
HETATM   26  C   UNL     2      -7.579   9.724  63.731  1.00  0.00    -0.131 C  
HETATM   27  C   UNL     2      -8.095   8.647  62.809  1.00  0.00    -0.178 C  
HETATM   28  O   UNL     2      -6.171   9.770  63.516  1.00  0.00    -0.102 OA 
HETATM   29  H   UNL     2      -5.903  10.091  62.663  1.00  0.00     0.000 HD 
HETATM   30  C   UNL     2      -7.735   7.351  63.534  1.00  0.00    -0.125 C  
HETATM   31  C   UNL     2      -7.752   7.665  65.054  1.00  0.00    -0.109 C  
HETATM   32  O   UNL     2      -8.653   6.354  63.116  1.00  0.00    -0.332 OA 
HETATM   33  H   UNL     2      -8.429   5.548  63.567  1.00  0.00     0.000 HD 
BRANCH  31  34
HETATM   34  C   UNL     2      -8.758   6.839  65.887  1.00  0.00    -0.147 C  
BRANCH  34  35
HETATM   35  C   UNL     2      -9.961   7.626  66.355  1.00  0.00    -0.142 C  
HETATM   36  C   UNL     2     -10.860   7.300  67.296  1.00  0.00    -0.354 C  
BRANCH  36  37
HETATM   37  C   UNL     2     -10.900   6.056  68.136  1.00  0.00    -0.365 C  
BRANCH  37  38
HETATM   38  C   UNL     2     -11.282   6.321  69.593  1.00  0.00    -0.506 C  
BRANCH  38  39
HETATM   39  C   UNL     2     -11.166   7.774  70.025  1.00  0.00    -0.126 C  
HETATM   40  C   UNL     2     -12.109   8.280  71.117  1.00  0.00    -0.252 C  
HETATM   41  O   UNL     2     -12.326   9.523  71.086  1.00  0.00    -0.308 OA 
HETATM   42  O   UNL     2     -12.553   7.469  71.995  1.00  0.00    -0.294 OA 
ENDBRANCH  38  39
ENDBRANCH  37  38
ENDBRANCH  36  37
ENDBRANCH  34  35
ENDBRANCH  31  34
ENDBRANCH  24  25
ENDBRANCH  17  18
ENDBRANCH  16  17
ENDBRANCH   6  16
TORSDOF 9
ENDMDL
MODEL      235
REMARK 921   NORMALIZED FREE ENERGY PREDICTED BY IDOCK:   -4.16 KCAL/MOL
REMARK 922        TOTAL FREE ENERGY PREDICTED BY IDOCK:   -8.28 KCAL/MOL
REMARK 923 INTER-LIGAND FREE ENERGY PREDICTED BY IDOCK:   -6.41 KCAL/MOL
REMARK 924 INTRA-LIGAND FREE ENERGY PREDICTED BY IDOCK:   -1.87 KCAL/MOL
REMARK 927      BINDING AFFINITY PREDICTED BY RF-SCORE:    0.00 PKD
ROOT
HETATM    1  O   UNL     1     -14.403  10.131  72.491  1.00  0.00    -0.217 OA 
HETATM    2  C   UNL     1     -13.558   9.081  72.953  1.00  0.00    -0.031 C  
HETATM    3  H   UNL     1     -14.714  10.673  73.207  1.00  0.00     0.000 HD 
HETATM    4  C   UNL     2      -5.150  10.356  71.639  1.00  0.00    -0.068 C  
HETATM    5  C   UNL     1     -13.049   8.193  71.781  1.00  0.00    -0.345 C  
HETATM    6  C   UNL     2      -6.093   9.826  70.570  1.00  0.00    -0.078 C  
HETATM    7  C   UNL     1     -12.331   9.092  70.737  1.00  0.00    -0.053 C  
HETATM    8  N   UNL     1     -12.065   7.236  72.379  1.00  0.00    -0.491 NA 
HETATM    9  C   UNL     1     -14.103   7.295  71.152  1.00  0.00    -0.089 C  
HETATM   10  H   UNL     1     -15.070   5.682  71.690  1.00  0.00     0.000 HD 
HETATM   11  H   UNL     1     -10.819  10.366  70.708  1.00  0.00     0.000 HD 
HETATM   12  H2  UNL     1     -12.444   6.700  73.160  1.00  0.00     0.000 HD 
HETATM   13  O   UNL     1     -11.258   9.817  71.346  1.00  0.00    -0.366 OA 
HETATM   14  O   UNL     1     -14.411   6.243  72.083  1.00  0.00    -0.113 OA 
HETATM   15  H1  UNL     1     -11.731   6.654  71.611  1.00  0.00     0.000 HD 
ENDROOT
BRANCH   6  16
HETATM   16  C   UNL     2      -7.045   8.739  71.073  1.00  0.00    -0.084 C  
BRANCH  16  17
HETATM   17  C   UNL     2      -6.450   7.329  71.123  1.00  0.00    -0.043 C  
BRANCH  17  18
HETATM   18  C   UNL     2      -7.399   6.244  71.684  1.00  0.00    -0.089 C  
HETATM   19  C   UNL     2      -7.121   4.766  71.326  1.00  0.00    -0.051 C  
HETATM   20  C   UNL     2      -7.997   3.752  72.075  1.00  0.00    -0.071 C  
HETATM   21  O   UNL     2      -5.766   4.490  71.700  1.00  0.00    -0.011 OA 
HETATM   22  C   UNL     2      -7.258   4.557  69.845  1.00  0.00    -0.050 C  
HETATM   23  H   UNL     2      -5.595   3.582  71.480  1.00  0.00     0.000 HD 
HETATM   24  C   UNL     2      -8.392   4.520  69.125  1.00  0.00    -0.086 C  
BRANCH  24  25
HETATM   25  C   UNL     2      -8.471   4.336  67.626  1.00  0.00    -0.101 C  
HETATM   26  C   UNL     2      -8.484   2.874  67.121  1.00  0.00    -0.097 C  
HETATM   27  C   UNL     2      -8.859   3.043  65.669  1.00  0.00    -0.138 C  
HETATM   28  O   UNL     2      -9.498   2.048  67.684  1.00  0.00    -0.341 OA 
HETATM   29  H   UNL     2      -9.507   1.150  67.374  1.00  0.00     0.000 HD 
HETATM   30  C   UNL     2      -9.975   4.086  65.707  1.00  0.00    -0.145 C  
HETATM   31  C   UNL     2      -9.702   4.996  66.934  1.00  0.00    -0.182 C  
HETATM   32  O   UNL     2      -9.985   4.753  64.454  1.00  0.00    -0.369 OA 
HETATM   33  H   UNL     2     -10.679   5.401  64.478  1.00  0.00     0.000 HD 
BRANCH  31  34
HETATM   34  C   UNL     2      -9.490   6.492  66.612  1.00  0.00    -0.193 C  
BRANCH  34  35
HETATM   35  C   UNL     2     -10.626   7.383  67.060  1.00  0.00    -0.414 C  
HETATM   36  C   UNL     2     -10.570   8.642  67.524  1.00  0.00    -0.292 C  
BRANCH  36  37
HETATM   37  C   UNL     2      -9.349   9.496  67.714  1.00  0.00    -0.143 C  
BRANCH  37  38
HETATM   38  C   UNL     2      -9.195  10.579  66.644  1.00  0.00    -0.177 C  
BRANCH  38  39
HETATM   39  C   UNL     2     -10.494  10.996  65.971  1.00  0.00    -0.304 C  
HETATM   40  C   UNL     2     -11.037  12.396  66.258  1.00  0.00    -0.303 C  
HETATM   41  O   UNL     2     -12.286  12.512  66.112  1.00  0.00    -0.609 OA 
HETATM   42  O   UNL     2     -10.231  13.338  66.552  1.00  0.00    -0.271 OA 
ENDBRANCH  38  39
ENDBRANCH  37  38
ENDBRANCH  36  37
ENDBRANCH  34  35
ENDBRANCH  31  34
ENDBRANCH  24  25
ENDBRANCH  17  18
ENDBRANCH  16  17
ENDBRANCH   6  16
TORSDOF 9
ENDMDL
MODEL      236
REMARK 921   NORMALIZED FREE ENERGY PREDICTED BY IDOCK:   -4.14 KCAL/MOL
REMARK 922        TOTAL FREE ENERGY PREDICTED BY IDOCK:   -8.24 KCAL/MOL
REMARK 923 INTER-LIGAND FREE ENERGY PREDICTED BY IDOCK:   -7.06 KCAL/MOL
REMARK 924 INTRA-LIGAND FREE ENERGY PREDICTED BY IDOCK:   -1.18 KCAL/MOL
REMARK 927      BINDING AFFINITY PREDICTED BY RF-SCORE:    0.00 PKD
ROOT
HETATM    1  O   UNL     1     -12.529  14.454  63.480  1.00  0.00    -1.102 OA 
HETATM    2  C   UNL     1     -11.376  14.424  64.314  1.00  0.00    -0.151 C  
HETATM    3  H   UNL     1     -12.485  15.158  62.844  1.00  0.00     0.000 HD 
HETATM    4  C   UNL     2      -5.674   8.272  62.392  1.00  0.00    -0.075 C  
HETATM    5  C   UNL     1     -11.447  13.269  65.356  1.00  0.00    -0.304 C  
HETATM    6  C   UNL     2      -6.921   8.025  63.227  1.00  0.00    -0.085 C  
HETATM    7  C   UNL     1     -11.652  11.923  64.608  1.00  0.00    -0.250 C  
HETATM    8  N   UNL     1     -10.125  13.257  66.057  1.00  0.00    -0.294 NA 
HETATM    9  C   UNL     1     -12.458  13.476  66.473  1.00  0.00    -0.253 C  
HETATM   10  H   UNL     1     -12.590  14.633  68.045  1.00  0.00     0.000 HD 
HETATM   11  H   UNL     1     -10.727  10.882  63.204  1.00  0.00     0.000 HD 
HETATM   12  H2  UNL     1      -9.874  14.157  66.466  1.00  0.00     0.000 HD 
HETATM   13  O   UNL     1     -10.602  11.705  63.661  1.00  0.00    -0.353 OA 
HETATM   14  O   UNL     1     -11.958  14.503  67.346  1.00  0.00    -0.394 OA 
HETATM   15  H1  UNL     1     -10.172  12.500  66.740  1.00  0.00     0.000 HD 
ENDROOT
BRANCH   6  16
HETATM   16  C   UNL     2      -7.170   9.095  64.291  1.00  0.00    -0.099 C  
BRANCH  16  17
HETATM   17  C   UNL     2      -8.038   8.647  65.471  1.00  0.00    -0.114 C  
BRANCH  17  18
HETATM   18  C   UNL     2      -8.628   9.799  66.317  1.00  0.00    -0.137 C  
HETATM   19  C   UNL     2      -8.016  10.077  67.710  1.00  0.00    -0.105 C  
HETATM   20  C   UNL     2      -8.539  11.349  68.395  1.00  0.00    -0.156 C  
HETATM   21  O   UNL     2      -6.609  10.263  67.523  1.00  0.00    -0.066 OA 
HETATM   22  C   UNL     2      -8.224   8.895  68.613  1.00  0.00    -0.116 C  
HETATM   23  H   UNL     2      -6.233  10.434  68.378  1.00  0.00     0.000 HD 
HETATM   24  C   UNL     2      -9.370   8.499  69.193  1.00  0.00    -0.153 C  
BRANCH  24  25
HETATM   25  C   UNL     2      -9.529   7.279  70.072  1.00  0.00    -0.161 C  
HETATM   26  C   UNL     2     -10.888   7.136  70.797  1.00  0.00    -0.244 C  
HETATM   27  C   UNL     2     -10.823   5.722  71.320  1.00  0.00    -0.313 C  
HETATM   28  O   UNL     2     -12.033   7.178  69.951  1.00  0.00    -0.558 OA 
HETATM   29  H   UNL     2     -12.868   7.091  70.396  1.00  0.00     0.000 HD 
HETATM   30  C   UNL     2     -10.240   4.934  70.148  1.00  0.00    -0.240 C  
HETATM   31  C   UNL     2      -9.326   5.908  69.358  1.00  0.00    -0.150 C  
HETATM   32  O   UNL     2      -9.586   3.792  70.680  1.00  0.00    -0.167 OA 
HETATM   33  H   UNL     2      -9.223   3.302  69.951  1.00  0.00     0.000 HD 
BRANCH  31  34
HETATM   34  C   UNL     2      -7.843   5.486  69.259  1.00  0.00    -0.091 C  
BRANCH  34  35
HETATM   35  C   UNL     2      -6.922   6.263  70.172  1.00  0.00    -0.066 C  
HETATM   36  C   UNL     2      -6.722   6.107  71.490  1.00  0.00    -0.056 C  
BRANCH  36  37
HETATM   37  C   UNL     2      -7.368   5.106  72.404  1.00  0.00    -0.093 C  
BRANCH  37  38
HETATM   38  C   UNL     2      -7.906   5.724  73.696  1.00  0.00    -0.104 C  
BRANCH  38  39
HETATM   39  C   UNL     2      -6.859   6.425  74.548  1.00  0.00    -0.089 C  
HETATM   40  C   UNL     2      -6.482   7.863  74.189  1.00  0.00    -0.103 C  
HETATM   41  O   UNL     2      -5.325   8.207  74.560  1.00  0.00    -0.074 OA 
HETATM   42  O   UNL     2      -7.338   8.617  73.620  1.00  0.00    -0.347 OA 
ENDBRANCH  38  39
ENDBRANCH  37  38
ENDBRANCH  36  37
ENDBRANCH  34  35
ENDBRANCH  31  34
ENDBRANCH  24  25
ENDBRANCH  17  18
ENDBRANCH  16  17
ENDBRANCH   6  16
TORSDOF 9
ENDMDL
MODEL      237
REMARK 921   NORMALIZED FREE ENERGY PREDICTED BY IDOCK:   -4.09 KCAL/MOL
REMARK 922        TOTAL FREE ENERGY PREDICTED BY IDOCK:   -8.17 KCAL/MOL
REMARK 923 INTER-LIGAND FREE ENERGY PREDICTED BY IDOCK:   -6.69 KCAL/MOL
REMARK 924 INTRA-LIGAND FREE ENERGY PREDICTED BY IDOCK:   -1.48 KCAL/MOL
REMARK 927      BINDING AFFINITY PREDICTED BY RF-SCORE:    0.00 PKD
ROOT
HETATM    1  O   UNL     1      -5.631   6.825  69.707  1.00  0.00    -0.014 OA 
HETATM    2  C   UNL     1      -6.962   7.132  70.109  1.00  0.00    -0.061 C  
HETATM    3  H   UNL     1      -5.583   5.990  69.256  1.00  0.00     0.000 HD 
HETATM    4  C   UNL     2     -10.972  12.965  65.215  1.00  0.00    -0.310 C  
HETATM    5  C   UNL     1      -7.041   8.500  70.846  1.00  0.00    -0.063 C  
HETATM    6  C   UNL     2      -9.999  13.331  66.327  1.00  0.00    -0.291 C  
HETATM    7  C   UNL     1      -6.447   9.606  69.930  1.00  0.00    -0.057 C  
HETATM    8  N   UNL     1      -8.495   8.768  71.076  1.00  0.00    -0.162 NA 
HETATM    9  C   UNL     1      -6.436   8.512  72.242  1.00  0.00    -0.080 C  
HETATM   10  H   UNL     1      -6.925   7.771  73.985  1.00  0.00     0.000 HD 
HETATM   11  H   UNL     1      -6.774  10.324  68.117  1.00  0.00     0.000 HD 
HETATM   12  H2  UNL     1      -8.974   8.013  71.569  1.00  0.00     0.000 HD 
HETATM   13  O   UNL     1      -7.137   9.649  68.677  1.00  0.00    -0.070 OA 
HETATM   14  O   UNL     1      -7.303   7.764  73.113  1.00  0.00    -0.091 OA 
HETATM   15  H1  UNL     1      -8.547   9.665  71.559  1.00  0.00     0.000 HD 
ENDROOT
BRANCH   6  16
HETATM   16  C   UNL     2     -10.218  12.543  67.619  1.00  0.00    -0.220 C  
BRANCH  16  17
HETATM   17  C   UNL     2     -11.622  12.656  68.219  1.00  0.00    -0.377 C  
BRANCH  17  18
HETATM   18  C   UNL     2     -11.671  13.228  69.655  1.00  0.00    -0.369 C  
HETATM   19  C   UNL     2     -11.452  14.745  69.851  1.00  0.00    -0.281 C  
HETATM   20  C   UNL     2     -11.702  15.247  71.281  1.00  0.00    -0.425 C  
HETATM   21  O   UNL     2     -12.396  15.419  69.011  1.00  0.00    -0.598 OA 
HETATM   22  C   UNL     2     -10.067  15.130  69.414  1.00  0.00    -0.245 C  
HETATM   23  H   UNL     2     -12.262  16.352  69.131  1.00  0.00     0.000 HD 
HETATM   24  C   UNL     2      -8.910  14.879  70.049  1.00  0.00     0.523 C  
BRANCH  24  25
HETATM   25  C   UNL     2      -7.536  15.264  69.548  1.00  0.00    -0.219 C  
HETATM   26  C   UNL     2      -6.411  14.231  69.786  1.00  0.00    -0.144 C  
HETATM   27  C   UNL     2      -5.292  14.776  68.932  1.00  0.00    -0.088 C  
HETATM   28  O   UNL     2      -6.673  12.923  69.285  1.00  0.00    -0.157 OA 
HETATM   29  H   UNL     2      -5.982  12.288  69.431  1.00  0.00     0.000 HD 
HETATM   30  C   UNL     2      -5.996  15.189  67.641  1.00  0.00    -0.080 C  
HETATM   31  C   UNL     2      -7.446  15.590  68.026  1.00  0.00    -0.136 C  
HETATM   32  O   UNL     2      -5.227  16.219  67.041  1.00  0.00    -0.319 OA 
HETATM   33  H   UNL     2      -5.665  16.476  66.238  1.00  0.00     0.000 HD 
BRANCH  31  34
HETATM   34  C   UNL     2      -7.838  17.047  67.690  1.00  0.00    -0.183 C  
BRANCH  34  35
HETATM   35  C   UNL     2      -7.263  18.072  68.641  1.00  0.00    -0.276 C  
HETATM   36  C   UNL     2      -7.664  19.335  68.852  1.00  0.00    -0.376 C  
BRANCH  36  37
HETATM   37  C   UNL     2      -8.802  20.060  68.192  1.00  0.00    -0.243 C  
BRANCH  37  38
HETATM   38  C   UNL     2     -10.073  19.216  68.078  1.00  0.00    -0.482 C  
BRANCH  38  39
HETATM   39  C   UNL     2     -10.997  19.612  66.937  1.00  0.00    -0.389 C  
HETATM   40  C   UNL     2     -10.706  19.049  65.545  1.00  0.00    -0.039 C  
HETATM   41  O   UNL     2     -11.143  19.756  64.594  1.00  0.00     0.039 OA 
HETATM   42  O   UNL     2     -10.125  17.922  65.429  1.00  0.00    -0.412 OA 
ENDBRANCH  38  39
ENDBRANCH  37  38
ENDBRANCH  36  37
ENDBRANCH  34  35
ENDBRANCH  31  34
ENDBRANCH  24  25
ENDBRANCH  17  18
ENDBRANCH  16  17
ENDBRANCH   6  16
TORSDOF 9
ENDMDL
MODEL      238
REMARK 921   NORMALIZED FREE ENERGY PREDICTED BY IDOCK:   -4.09 KCAL/MOL
REMARK 922        TOTAL FREE ENERGY PREDICTED BY IDOCK:   -8.16 KCAL/MOL
REMARK 923 INTER-LIGAND FREE ENERGY PREDICTED BY IDOCK:   -6.29 KCAL/MOL
REMARK 924 INTRA-LIGAND FREE ENERGY PREDICTED BY IDOCK:   -1.87 KCAL/MOL
REMARK 927      BINDING AFFINITY PREDICTED BY RF-SCORE:    0.00 PKD
ROOT
HETATM    1  O   UNL     1      -9.217   7.182  71.893  1.00  0.00    -0.139 OA 
HETATM    2  C   UNL     1      -9.617   7.951  70.764  1.00  0.00    -0.165 C  
HETATM    3  H   UNL     1      -8.273   7.181  72.002  1.00  0.00     0.000 HD 
HETATM    4  C   UNL     2     -12.850  15.707  72.622  1.00  0.00    -0.541 C  
HETATM    5  C   UNL     1     -11.164   7.954  70.586  1.00  0.00    -0.263 C  
HETATM    6  C   UNL     2     -13.664  14.423  72.687  1.00  0.00    -0.546 C  
HETATM    7  C   UNL     1     -11.824   8.468  71.895  1.00  0.00    -0.341 C  
HETATM    8  N   UNL     1     -11.454   8.908  69.470  1.00  0.00    -0.362 NA 
HETATM    9  C   UNL     1     -11.757   6.637  70.111  1.00  0.00    -0.351 C  
HETATM   10  H   UNL     1     -11.767   5.630  68.434  1.00  0.00     0.000 HD 
HETATM   11  H   UNL     1     -11.740  10.084  73.030  1.00  0.00     0.000 HD 
HETATM   12  H2  UNL     1     -10.948   8.695  68.610  1.00  0.00     0.000 HD 
HETATM   13  O   UNL     1     -11.336   9.770  72.231  1.00  0.00     0.412 OA 
HETATM   14  O   UNL     1     -11.396   6.453  68.731  1.00  0.00    -0.327 OA 
HETATM   15  H1  UNL     1     -12.467   8.911  69.354  1.00  0.00     0.000 HD 
ENDROOT
BRANCH   6  16
HETATM   16  C   UNL     2     -13.457  13.502  71.483  1.00  0.00    -0.315 C  
BRANCH  16  17
HETATM   17  C   UNL     2     -12.045  13.515  70.892  1.00  0.00    -0.301 C  
BRANCH  17  18
HETATM   18  C   UNL     2     -11.801  14.596  69.813  1.00  0.00    -0.366 C  
HETATM   19  C   UNL     2     -11.497  14.140  68.368  1.00  0.00    -0.302 C  
HETATM   20  C   UNL     2     -11.455  15.275  67.335  1.00  0.00    -0.246 C  
HETATM   21  O   UNL     2     -12.559  13.265  67.970  1.00  0.00     0.077 OA 
HETATM   22  C   UNL     2     -10.207  13.370  68.328  1.00  0.00    -0.250 C  
HETATM   23  H   UNL     2     -12.373  12.984  67.082  1.00  0.00     0.000 HD 
HETATM   24  C   UNL     2      -8.960  13.858  68.439  1.00  0.00    -0.178 C  
BRANCH  24  25
HETATM   25  C   UNL     2      -7.694  13.032  68.421  1.00  0.00    -0.137 C  
HETATM   26  C   UNL     2      -6.493  13.612  69.204  1.00  0.00    -0.107 C  
HETATM   27  C   UNL     2      -5.537  12.445  69.231  1.00  0.00    -0.075 C  
HETATM   28  O   UNL     2      -6.754  13.925  70.569  1.00  0.00    -0.402 OA 
HETATM   29  H   UNL     2      -6.017  14.281  71.051  1.00  0.00     0.000 HD 
HETATM   30  C   UNL     2      -6.438  11.251  69.546  1.00  0.00    -0.119 C  
HETATM   31  C   UNL     2      -7.837  11.575  68.957  1.00  0.00    -0.005 C  
HETATM   32  O   UNL     2      -5.816  10.091  69.017  1.00  0.00    -0.035 OA 
HETATM   33  H   UNL     2      -6.377   9.349  69.212  1.00  0.00     0.000 HD 
BRANCH  31  34
HETATM   34  C   UNL     2      -8.349  10.581  67.890  1.00  0.00    -0.115 C  
BRANCH  34  35
HETATM   35  C   UNL     2      -8.051  10.999  66.468  1.00  0.00    -0.161 C  
HETATM   36  C   UNL     2      -8.205  10.291  65.338  1.00  0.00    -0.156 C  
BRANCH  36  37
HETATM   37  C   UNL     2      -8.720   8.888  65.197  1.00  0.00    -0.213 C  
BRANCH  37  38
HETATM   38  C   UNL     2      -7.617   7.829  65.258  1.00  0.00    -0.091 C  
BRANCH  38  39
HETATM   39  C   UNL     2      -7.392   7.225  66.636  1.00  0.00    -0.080 C  
HETATM   40  C   UNL     2      -6.029   7.429  67.298  1.00  0.00    -0.045 C  
HETATM   41  O   UNL     2      -5.722   6.543  68.144  1.00  0.00    -0.011 OA 
HETATM   42  O   UNL     2      -5.340   8.464  67.020  1.00  0.00    -0.035 OA 
ENDBRANCH  38  39
ENDBRANCH  37  38
ENDBRANCH  36  37
ENDBRANCH  34  35
ENDBRANCH  31  34
ENDBRANCH  24  25
ENDBRANCH  17  18
ENDBRANCH  16  17
ENDBRANCH   6  16
TORSDOF 9
ENDMDL
MODEL      239
REMARK 921   NORMALIZED FREE ENERGY PREDICTED BY IDOCK:   -4.08 KCAL/MOL
REMARK 922        TOTAL FREE ENERGY PREDICTED BY IDOCK:   -8.15 KCAL/MOL
REMARK 923 INTER-LIGAND FREE ENERGY PREDICTED BY IDOCK:   -7.30 KCAL/MOL
REMARK 924 INTRA-LIGAND FREE ENERGY PREDICTED BY IDOCK:   -0.84 KCAL/MOL
REMARK 927      BINDING AFFINITY PREDICTED BY RF-SCORE:    0.00 PKD
ROOT
HETATM    1  O   UNL     1      -5.156  10.672  67.404  1.00  0.00    -0.037 OA 
HETATM    2  C   UNL     1      -5.489   9.589  68.267  1.00  0.00    -0.037 C  
HETATM    3  H   UNL     1      -4.263  10.607  67.086  1.00  0.00     0.000 HD 
HETATM    4  C   UNL     2     -10.409   3.497  64.700  1.00  0.00    -0.052 C  
HETATM    5  C   UNL     1      -6.952   9.696  68.788  1.00  0.00    -0.066 C  
HETATM    6  C   UNL     2     -10.964   4.796  65.265  1.00  0.00     0.067 C  
HETATM    7  C   UNL     1      -7.918   9.783  67.574  1.00  0.00    -0.106 C  
HETATM    8  N   UNL     1      -7.217   8.435  69.550  1.00  0.00    -0.060 NA 
HETATM    9  C   UNL     1      -7.191  10.801  69.805  1.00  0.00    -0.101 C  
HETATM   10  H   UNL     1      -6.714  11.108  71.677  1.00  0.00     0.000 HD 
HETATM   11  H   UNL     1      -8.343   8.705  65.972  1.00  0.00     0.000 HD 
HETATM   12  H2  UNL     1      -6.536   8.256  70.288  1.00  0.00     0.000 HD 
HETATM   13  O   UNL     1      -7.753   8.652  66.714  1.00  0.00    -0.092 OA 
HETATM   14  O   UNL     1      -6.565  10.418  71.041  1.00  0.00    -0.337 OA 
HETATM   15  H1  UNL     1      -8.175   8.505  69.891  1.00  0.00     0.000 HD 
ENDROOT
BRANCH   6  16
HETATM   16  C   UNL     2     -10.377   5.175  66.626  1.00  0.00    -0.325 C  
BRANCH  16  17
HETATM   17  C   UNL     2      -8.905   5.594  66.604  1.00  0.00    -0.119 C  
BRANCH  17  18
HETATM   18  C   UNL     2      -8.176   5.478  67.963  1.00  0.00    -0.100 C  
HETATM   19  C   UNL     2      -8.929   4.834  69.150  1.00  0.00    -0.096 C  
HETATM   20  C   UNL     2      -8.068   4.594  70.398  1.00  0.00    -0.071 C  
HETATM   21  O   UNL     2      -9.383   3.548  68.713  1.00  0.00    -0.152 OA 
HETATM   22  C   UNL     2     -10.128   5.663  69.514  1.00  0.00    -0.292 C  
HETATM   23  H   UNL     2      -9.846   3.153  69.441  1.00  0.00     0.000 HD 
HETATM   24  C   UNL     2     -10.141   6.849  70.146  1.00  0.00    -0.196 C  
BRANCH  24  25
HETATM   25  C   UNL     2     -11.379   7.658  70.462  1.00  0.00    -0.266 C  
HETATM   26  C   UNL     2     -12.540   6.889  71.134  1.00  0.00    -0.314 C  
HETATM   27  C   UNL     2     -13.455   8.008  71.567  1.00  0.00    -0.327 C  
HETATM   28  O   UNL     2     -12.194   6.194  72.329  1.00  0.00    -0.472 OA 
HETATM   29  H   UNL     2     -12.907   5.721  72.742  1.00  0.00     0.000 HD 
HETATM   30  C   UNL     2     -12.497   9.051  72.141  1.00  0.00    -0.380 C  
HETATM   31  C   UNL     2     -11.153   8.897  71.380  1.00  0.00    -0.376 C  
HETATM   32  O   UNL     2     -13.118  10.321  72.016  1.00  0.00    -0.447 OA 
HETATM   33  H   UNL     2     -12.522  10.970  72.372  1.00  0.00     0.000 HD 
BRANCH  31  34
HETATM   34  C   UNL     2     -10.686  10.151  70.607  1.00  0.00    -0.243 C  
BRANCH  34  35
HETATM   35  C   UNL     2     -11.393  10.358  69.287  1.00  0.00    -0.296 C  
HETATM   36  C   UNL     2     -11.878  11.495  68.766  1.00  0.00    -0.394 C  
BRANCH  36  37
HETATM   37  C   UNL     2     -11.840  12.870  69.369  1.00  0.00    -0.371 C  
BRANCH  37  38
HETATM   38  C   UNL     2     -10.611  13.680  68.952  1.00  0.00    -0.211 C  
BRANCH  38  39
HETATM   39  C   UNL     2     -10.878  14.740  67.894  1.00  0.00    -0.269 C  
HETATM   40  C   UNL     2     -10.234  16.116  68.073  1.00  0.00    -0.252 C  
HETATM   41  O   UNL     2     -10.849  17.058  67.500  1.00  0.00    -0.305 OA 
HETATM   42  O   UNL     2      -9.133  16.220  68.705  1.00  0.00    -0.208 OA 
ENDBRANCH  38  39
ENDBRANCH  37  38
ENDBRANCH  36  37
ENDBRANCH  34  35
ENDBRANCH  31  34
ENDBRANCH  24  25
ENDBRANCH  17  18
ENDBRANCH  16  17
ENDBRANCH   6  16
TORSDOF 9
ENDMDL
MODEL      240
REMARK 921   NORMALIZED FREE ENERGY PREDICTED BY IDOCK:   -4.07 KCAL/MOL
REMARK 922        TOTAL FREE ENERGY PREDICTED BY IDOCK:   -8.14 KCAL/MOL
REMARK 923 INTER-LIGAND FREE ENERGY PREDICTED BY IDOCK:   -6.85 KCAL/MOL
REMARK 924 INTRA-LIGAND FREE ENERGY PREDICTED BY IDOCK:   -1.29 KCAL/MOL
REMARK 927      BINDING AFFINITY PREDICTED BY RF-SCORE:    0.00 PKD
ROOT
HETATM    1  O   UNL     1      -5.914   3.337  71.404  1.00  0.00    -0.013 OA 
HETATM    2  C   UNL     1      -7.300   3.118  71.158  1.00  0.00    -0.033 C  
HETATM    3  H   UNL     1      -5.479   2.545  71.698  1.00  0.00     0.000 HD 
HETATM    4  C   UNL     2      -9.450   2.469  62.851  1.00  0.00    -0.089 C  
HETATM    5  C   UNL     1      -8.012   4.416  70.677  1.00  0.00    -0.060 C  
HETATM    6  C   UNL     2      -9.256   3.799  63.564  1.00  0.00    -0.119 C  
HETATM    7  C   UNL     1      -7.283   4.957  69.416  1.00  0.00    -0.056 C  
HETATM    8  N   UNL     1      -9.409   4.016  70.315  1.00  0.00    -0.145 NA 
HETATM    9  C   UNL     1      -8.197   5.480  71.747  1.00  0.00    -0.119 C  
HETATM   10  H   UNL     1      -9.323   5.690  73.333  1.00  0.00     0.000 HD 
HETATM   11  H   UNL     1      -6.807   4.297  67.614  1.00  0.00     0.000 HD 
HETATM   12  H2  UNL     1      -9.903   3.538  71.069  1.00  0.00     0.000 HD 
HETATM   13  O   UNL     1      -7.253   3.966  68.384  1.00  0.00    -0.054 OA 
HETATM   14  O   UNL     1      -9.207   5.025  72.664  1.00  0.00    -0.130 OA 
HETATM   15  H1  UNL     1      -9.875   4.866  69.999  1.00  0.00     0.000 HD 
ENDROOT
BRANCH   6  16
HETATM   16  C   UNL     2      -9.920   3.861  64.941  1.00  0.00    -0.198 C  
BRANCH  16  17
HETATM   17  C   UNL     2      -9.699   5.168  65.709  1.00  0.00    -0.124 C  
BRANCH  17  18
HETATM   18  C   UNL     2      -8.962   6.271  64.914  1.00  0.00     0.364 C  
HETATM   19  C   UNL     2      -8.065   7.263  65.691  1.00  0.00    -0.133 C  
HETATM   20  C   UNL     2      -7.233   8.200  64.804  1.00  0.00    -0.082 C  
HETATM   21  O   UNL     2      -7.132   6.483  66.448  1.00  0.00    -0.065 OA 
HETATM   22  C   UNL     2      -8.894   8.074  66.647  1.00  0.00    -0.166 C  
HETATM   23  H   UNL     2      -6.581   7.091  66.925  1.00  0.00     0.000 HD 
HETATM   24  C   UNL     2      -9.743   9.071  66.349  1.00  0.00    -0.337 C  
BRANCH  24  25
HETATM   25  C   UNL     2     -10.578   9.836  67.352  1.00  0.00    -0.330 C  
HETATM   26  C   UNL     2     -10.319   9.512  68.841  1.00  0.00    -0.208 C  
HETATM   27  C   UNL     2     -11.066  10.619  69.543  1.00  0.00    -0.328 C  
HETATM   28  O   UNL     2      -8.963   9.639  69.262  1.00  0.00    -0.151 OA 
HETATM   29  H   UNL     2      -8.804   9.440  70.177  1.00  0.00     0.000 HD 
HETATM   30  C   UNL     2     -10.715  11.862  68.727  1.00  0.00    -0.224 C  
HETATM   31  C   UNL     2     -10.467  11.389  67.269  1.00  0.00    -0.241 C  
HETATM   32  O   UNL     2     -11.772  12.795  68.885  1.00  0.00    -0.290 OA 
HETATM   33  H   UNL     2     -11.553  13.567  68.377  1.00  0.00     0.000 HD 
BRANCH  31  34
HETATM   34  C   UNL     2     -11.401  12.011  66.207  1.00  0.00    -0.415 C  
BRANCH  34  35
HETATM   35  C   UNL     2     -10.675  12.770  65.119  1.00  0.00    -0.319 C  
HETATM   36  C   UNL     2     -10.183  14.018  65.155  1.00  0.00    -0.396 C  
BRANCH  36  37
HETATM   37  C   UNL     2     -10.228  14.991  66.298  1.00  0.00    -0.306 C  
BRANCH  37  38
HETATM   38  C   UNL     2      -9.258  16.163  66.135  1.00  0.00    -0.382 C  
BRANCH  38  39
HETATM   39  C   UNL     2      -9.757  17.482  66.705  1.00  0.00    -0.303 C  
HETATM   40  C   UNL     2     -10.473  18.450  65.761  1.00  0.00    -0.227 C  
HETATM   41  O   UNL     2     -10.413  19.661  66.112  1.00  0.00    -0.464 OA 
HETATM   42  O   UNL     2     -11.112  17.996  64.756  1.00  0.00    -0.708 OA 
ENDBRANCH  38  39
ENDBRANCH  37  38
ENDBRANCH  36  37
ENDBRANCH  34  35
ENDBRANCH  31  34
ENDBRANCH  24  25
ENDBRANCH  17  18
ENDBRANCH  16  17
ENDBRANCH   6  16
TORSDOF 9
ENDMDL
MODEL      241
REMARK 921   NORMALIZED FREE ENERGY PREDICTED BY IDOCK:   -4.07 KCAL/MOL
REMARK 922        TOTAL FREE ENERGY PREDICTED BY IDOCK:   -8.13 KCAL/MOL
REMARK 923 INTER-LIGAND FREE ENERGY PREDICTED BY IDOCK:   -6.52 KCAL/MOL
REMARK 924 INTRA-LIGAND FREE ENERGY PREDICTED BY IDOCK:   -1.61 KCAL/MOL
REMARK 927      BINDING AFFINITY PREDICTED BY RF-SCORE:    0.00 PKD
ROOT
HETATM    1  O   UNL     1     -13.882  12.529  71.607  1.00  0.00     0.117 OA 
HETATM    2  C   UNL     1     -12.791  11.737  72.065  1.00  0.00    -0.142 C  
HETATM    3  H   UNL     1     -14.016  13.294  72.154  1.00  0.00     0.000 HD 
HETATM    4  C   UNL     2      -5.553  12.544  67.481  1.00  0.00    -0.131 C  
HETATM    5  C   UNL     1     -12.572  10.484  71.168  1.00  0.00    -0.417 C  
HETATM    6  C   UNL     2      -6.708  11.643  67.070  1.00  0.00    -0.145 C  
HETATM    7  C   UNL     1     -12.373  10.942  69.696  1.00  0.00    -0.221 C  
HETATM    8  N   UNL     1     -11.319   9.831  71.663  1.00  0.00    -0.290 NA 
HETATM    9  C   UNL     1     -13.633   9.404  71.305  1.00  0.00    -0.231 C  
HETATM   10  H   UNL     1     -14.127   8.092  72.669  1.00  0.00     0.000 HD 
HETATM   11  H   UNL     1     -11.154  12.134  68.695  1.00  0.00     0.000 HD 
HETATM   12  H2  UNL     1     -11.340   9.616  72.660  1.00  0.00     0.000 HD 
HETATM   13  O   UNL     1     -11.276  11.854  69.594  1.00  0.00    -0.207 OA 
HETATM   14  O   UNL     1     -13.464   8.768  72.583  1.00  0.00    -0.391 OA 
HETATM   15  H1  UNL     1     -11.175   9.010  71.075  1.00  0.00     0.000 HD 
ENDROOT
BRANCH   6  16
HETATM   16  C   UNL     2      -7.276  10.808  68.219  1.00  0.00    -0.084 C  
BRANCH  16  17
HETATM   17  C   UNL     2      -6.712   9.388  68.329  1.00  0.00    -0.059 C  
BRANCH  17  18
HETATM   18  C   UNL     2      -7.447   8.474  69.336  1.00  0.00    -0.088 C  
HETATM   19  C   UNL     2      -6.909   7.042  69.560  1.00  0.00    -0.051 C  
HETATM   20  C   UNL     2      -7.585   6.277  70.706  1.00  0.00    -0.096 C  
HETATM   21  O   UNL     2      -5.525   7.162  69.909  1.00  0.00    -0.022 OA 
HETATM   22  C   UNL     2      -7.012   6.245  68.290  1.00  0.00    -0.080 C  
HETATM   23  H   UNL     2      -5.194   6.282  70.046  1.00  0.00     0.000 HD 
HETATM   24  C   UNL     2      -8.124   5.742  67.728  1.00  0.00    -0.102 C  
BRANCH  24  25
HETATM   25  C   UNL     2      -8.175   4.971  66.428  1.00  0.00    -0.108 C  
HETATM   26  C   UNL     2      -8.575   3.481  66.537  1.00  0.00    -0.116 C  
HETATM   27  C   UNL     2      -8.812   3.109  65.094  1.00  0.00    -0.129 C  
HETATM   28  O   UNL     2      -9.810   3.233  67.204  1.00  0.00    -0.358 OA 
HETATM   29  H   UNL     2     -10.056   2.318  67.271  1.00  0.00     0.000 HD 
HETATM   30  C   UNL     2      -9.588   4.303  64.539  1.00  0.00    -0.146 C  
HETATM   31  C   UNL     2      -9.132   5.550  65.342  1.00  0.00    -0.064 C  
HETATM   32  O   UNL     2      -9.344   4.364  63.143  1.00  0.00    -0.147 OA 
HETATM   33  H   UNL     2      -9.826   5.106  62.798  1.00  0.00     0.000 HD 
BRANCH  31  34
HETATM   34  C   UNL     2      -8.488   6.676  64.502  1.00  0.00     0.152 C  
BRANCH  34  35
HETATM   35  C   UNL     2      -8.018   7.859  65.317  1.00  0.00    -0.126 C  
HETATM   36  C   UNL     2      -8.345   9.153  65.182  1.00  0.00    -0.160 C  
BRANCH  36  37
HETATM   37  C   UNL     2      -9.277   9.763  64.174  1.00  0.00    -0.277 C  
BRANCH  37  38
HETATM   38  C   UNL     2      -9.610  11.228  64.466  1.00  0.00    -0.260 C  
BRANCH  38  39
HETATM   39  C   UNL     2     -10.674  11.829  63.561  1.00  0.00    -0.501 C  
HETATM   40  C   UNL     2     -12.063  12.080  64.150  1.00  0.00    -0.362 C  
HETATM   41  O   UNL     2     -12.997  12.089  63.299  1.00  0.00    -0.736 OA 
HETATM   42  O   UNL     2     -12.188  12.318  65.395  1.00  0.00    -0.546 OA 
ENDBRANCH  38  39
ENDBRANCH  37  38
ENDBRANCH  36  37
ENDBRANCH  34  35
ENDBRANCH  31  34
ENDBRANCH  24  25
ENDBRANCH  17  18
ENDBRANCH  16  17
ENDBRANCH   6  16
TORSDOF 9
ENDMDL
MODEL      242
REMARK 921   NORMALIZED FREE ENERGY PREDICTED BY IDOCK:   -4.03 KCAL/MOL
REMARK 922        TOTAL FREE ENERGY PREDICTED BY IDOCK:   -8.08 KCAL/MOL
REMARK 923 INTER-LIGAND FREE ENERGY PREDICTED BY IDOCK:   -6.85 KCAL/MOL
REMARK 924 INTRA-LIGAND FREE ENERGY PREDICTED BY IDOCK:   -1.23 KCAL/MOL
REMARK 927      BINDING AFFINITY PREDICTED BY RF-SCORE:    0.00 PKD
ROOT
HETATM    1  O   UNL     1      -7.528  18.427  65.749  1.00  0.00    -0.484 OA 
HETATM    2  C   UNL     1      -7.687  18.006  67.100  1.00  0.00    -0.218 C  
HETATM    3  H   UNL     1      -6.753  18.966  65.638  1.00  0.00     0.000 HD 
HETATM    4  C   UNL     2      -5.475   9.832  68.631  1.00  0.00    -0.036 C  
HETATM    5  C   UNL     1      -8.956  17.123  67.283  1.00  0.00    -0.221 C  
HETATM    6  C   UNL     2      -6.822  10.241  68.056  1.00  0.00    -0.070 C  
HETATM    7  C   UNL     1      -8.879  15.915  66.308  1.00  0.00    -0.351 C  
HETATM    8  N   UNL     1      -8.922  16.630  68.696  1.00  0.00    -0.238 NA 
HETATM    9  C   UNL     1     -10.277  17.870  67.182  1.00  0.00    -0.353 C  
HETATM   10  H   UNL     1     -11.250  19.148  68.298  1.00  0.00     0.000 HD 
HETATM   11  H   UNL     1      -7.636  14.423  65.936  1.00  0.00     0.000 HD 
HETATM   12  H2  UNL     1      -8.846  17.378  69.385  1.00  0.00     0.000 HD 
HETATM   13  O   UNL     1      -7.683  15.161  66.531  1.00  0.00     0.136 OA 
HETATM   14  O   UNL     1     -10.425  18.681  68.361  1.00  0.00    -0.337 OA 
HETATM   15  H1  UNL     1      -9.753  16.051  68.815  1.00  0.00     0.000 HD 
ENDROOT
BRANCH   6  16
HETATM   16  C   UNL     2      -7.462  11.431  68.772  1.00  0.00    -0.124 C  
BRANCH  16  17
HETATM   17  C   UNL     2      -8.884  11.774  68.319  1.00  0.00    -0.172 C  
BRANCH  17  18
HETATM   18  C   UNL     2      -9.025  12.096  66.813  1.00  0.00    -0.203 C  
HETATM   19  C   UNL     2     -10.109  11.352  65.999  1.00  0.00    -0.234 C  
HETATM   20  C   UNL     2     -10.298  11.869  64.565  1.00  0.00    -0.334 C  
HETATM   21  O   UNL     2     -11.356  11.555  66.674  1.00  0.00    -0.344 OA 
HETATM   22  C   UNL     2      -9.817   9.879  65.971  1.00  0.00    -0.330 C  
HETATM   23  H   UNL     2     -12.022  11.097  66.174  1.00  0.00     0.000 HD 
HETATM   24  C   UNL     2      -8.856   9.248  65.274  1.00  0.00    -0.237 C  
BRANCH  24  25
HETATM   25  C   UNL     2      -8.586   7.761  65.306  1.00  0.00    -0.065 C  
HETATM   26  C   UNL     2      -7.844   7.178  64.081  1.00  0.00    -0.113 C  
HETATM   27  C   UNL     2      -7.484   5.792  64.556  1.00  0.00    -0.074 C  
HETATM   28  O   UNL     2      -6.605   7.808  63.767  1.00  0.00    -0.060 OA 
HETATM   29  H   UNL     2      -6.149   7.451  63.014  1.00  0.00     0.000 HD 
HETATM   30  C   UNL     2      -7.001   6.019  65.988  1.00  0.00    -0.062 C  
HETATM   31  C   UNL     2      -7.765   7.256  66.531  1.00  0.00    -0.093 C  
HETATM   32  O   UNL     2      -7.214   4.816  66.710  1.00  0.00    -0.077 OA 
HETATM   33  H   UNL     2      -6.913   4.957  67.601  1.00  0.00     0.000 HD 
BRANCH  31  34
HETATM   34  C   UNL     2      -8.635   6.997  67.782  1.00  0.00    -0.122 C  
BRANCH  34  35
HETATM   35  C   UNL     2      -9.831   7.914  67.899  1.00  0.00    -0.201 C  
HETATM   36  C   UNL     2     -10.411   8.396  69.009  1.00  0.00    -0.216 C  
BRANCH  36  37
HETATM   37  C   UNL     2     -10.013   8.146  70.436  1.00  0.00    -0.190 C  
BRANCH  37  38
HETATM   38  C   UNL     2     -11.188   7.753  71.333  1.00  0.00    -0.276 C  
BRANCH  38  39
HETATM   39  C   UNL     2     -11.704   8.871  72.227  1.00  0.00    -0.351 C  
HETATM   40  C   UNL     2     -12.819   9.768  71.689  1.00  0.00    -0.421 C  
HETATM   41  O   UNL     2     -12.858  10.919  72.207  1.00  0.00    -0.242 OA 
HETATM   42  O   UNL     2     -13.646   9.306  70.836  1.00  0.00    -0.140 OA 
ENDBRANCH  38  39
ENDBRANCH  37  38
ENDBRANCH  36  37
ENDBRANCH  34  35
ENDBRANCH  31  34
ENDBRANCH  24  25
ENDBRANCH  17  18
ENDBRANCH  16  17
ENDBRANCH   6  16
TORSDOF 9
ENDMDL
MODEL      243
REMARK 921   NORMALIZED FREE ENERGY PREDICTED BY IDOCK:   -4.03 KCAL/MOL
REMARK 922        TOTAL FREE ENERGY PREDICTED BY IDOCK:   -8.07 KCAL/MOL
REMARK 923 INTER-LIGAND FREE ENERGY PREDICTED BY IDOCK:   -6.80 KCAL/MOL
REMARK 924 INTRA-LIGAND FREE ENERGY PREDICTED BY IDOCK:   -1.27 KCAL/MOL
REMARK 927      BINDING AFFINITY PREDICTED BY RF-SCORE:    0.00 PKD
ROOT
HETATM    1  O   UNL     1      -7.905  21.229  67.332  1.00  0.00    -0.600 OA 
HETATM    2  C   UNL     1      -8.470  20.195  66.532  1.00  0.00    -0.258 C  
HETATM    3  H   UNL     1      -8.285  22.077  67.131  1.00  0.00     0.000 HD 
HETATM    4  C   UNL     2     -14.202  15.210  70.576  1.00  0.00     0.601 C  
HETATM    5  C   UNL     1      -7.848  18.807  66.862  1.00  0.00    -0.242 C  
HETATM    6  C   UNL     2     -12.697  15.014  70.685  1.00  0.00    -0.428 C  
HETATM    7  C   UNL     1      -8.021  18.520  68.379  1.00  0.00    -0.315 C  
HETATM    8  N   UNL     1      -8.627  17.802  66.070  1.00  0.00    -0.520 NA 
HETATM    9  C   UNL     1      -6.414  18.619  66.391  1.00  0.00    -0.195 C  
HETATM   10  H   UNL     1      -5.527  18.383  64.664  1.00  0.00     0.000 HD 
HETATM   11  H   UNL     1      -9.507  18.398  69.677  1.00  0.00     0.000 HD 
HETATM   12  H2  UNL     1      -8.656  18.007  65.071  1.00  0.00     0.000 HD 
HETATM   13  O   UNL     1      -9.402  18.574  68.750  1.00  0.00    -0.330 OA 
HETATM   14  O   UNL     1      -6.423  18.500  64.959  1.00  0.00    -0.464 OA 
HETATM   15  H1  UNL     1      -8.220  16.892  66.286  1.00  0.00     0.000 HD 
ENDROOT
BRANCH   6  16
HETATM   16  C   UNL     2     -11.966  15.101  69.345  1.00  0.00    -0.337 C  
BRANCH  16  17
HETATM   17  C   UNL     2     -10.567  14.478  69.326  1.00  0.00    -0.224 C  
BRANCH  17  18
HETATM   18  C   UNL     2     -10.153  13.851  67.975  1.00  0.00    -0.244 C  
HETATM   19  C   UNL     2     -10.755  12.481  67.584  1.00  0.00    -0.218 C  
HETATM   20  C   UNL     2     -10.434  12.028  66.152  1.00  0.00    -0.271 C  
HETATM   21  O   UNL     2     -12.180  12.609  67.662  1.00  0.00    -0.367 OA 
HETATM   22  C   UNL     2     -10.318  11.425  68.559  1.00  0.00    -0.219 C  
HETATM   23  H   UNL     2     -12.549  11.768  67.422  1.00  0.00     0.000 HD 
HETATM   24  C   UNL     2      -9.102  10.863  68.666  1.00  0.00    -0.175 C  
BRANCH  24  25
HETATM   25  C   UNL     2      -8.707   9.822  69.689  1.00  0.00    -0.211 C  
HETATM   26  C   UNL     2      -9.793   9.436  70.721  1.00  0.00    -0.279 C  
HETATM   27  C   UNL     2      -9.195   8.212  71.370  1.00  0.00    -0.195 C  
HETATM   28  O   UNL     2     -11.032   9.007  70.164  1.00  0.00    -0.237 OA 
HETATM   29  H   UNL     2     -11.699   8.770  70.797  1.00  0.00     0.000 HD 
HETATM   30  C   UNL     2      -8.627   7.423  70.191  1.00  0.00    -0.139 C  
HETATM   31  C   UNL     2      -8.226   8.459  69.106  1.00  0.00    -0.120 C  
HETATM   32  O   UNL     2      -7.562   6.623  70.681  1.00  0.00    -0.091 OA 
HETATM   33  H   UNL     2      -7.209   6.133  69.947  1.00  0.00     0.000 HD 
BRANCH  31  34
HETATM   34  C   UNL     2      -6.731   8.457  68.714  1.00  0.00    -0.058 C  
BRANCH  34  35
HETATM   35  C   UNL     2      -5.854   9.278  69.633  1.00  0.00    -0.033 C  
HETATM   36  C   UNL     2      -5.472  10.557  69.503  1.00  0.00    -0.038 C  
BRANCH  36  37
HETATM   37  C   UNL     2      -5.823  11.513  68.399  1.00  0.00    -0.045 C  
BRANCH  37  38
HETATM   38  C   UNL     2      -5.138  12.874  68.535  1.00  0.00    -0.063 C  
BRANCH  38  39
HETATM   39  C   UNL     2      -5.663  13.946  67.591  1.00  0.00    -0.009 C  
HETATM   40  C   UNL     2      -6.765  14.877  68.099  1.00  0.00    -0.130 C  
HETATM   41  O   UNL     2      -7.488  15.374  67.191  1.00  0.00    -0.205 OA 
HETATM   42  O   UNL     2      -6.848  15.137  69.344  1.00  0.00    -0.142 OA 
ENDBRANCH  38  39
ENDBRANCH  37  38
ENDBRANCH  36  37
ENDBRANCH  34  35
ENDBRANCH  31  34
ENDBRANCH  24  25
ENDBRANCH  17  18
ENDBRANCH  16  17
ENDBRANCH   6  16
TORSDOF 9
ENDMDL
MODEL      244
REMARK 921   NORMALIZED FREE ENERGY PREDICTED BY IDOCK:   -4.00 KCAL/MOL
REMARK 922        TOTAL FREE ENERGY PREDICTED BY IDOCK:   -8.03 KCAL/MOL
REMARK 923 INTER-LIGAND FREE ENERGY PREDICTED BY IDOCK:   -7.01 KCAL/MOL
REMARK 924 INTRA-LIGAND FREE ENERGY PREDICTED BY IDOCK:   -1.03 KCAL/MOL
REMARK 927      BINDING AFFINITY PREDICTED BY RF-SCORE:    0.00 PKD
ROOT
HETATM    1  O   UNL     1      -9.367  20.116  69.951  1.00  0.00     0.385 OA 
HETATM    2  C   UNL     1      -9.914  19.204  69.004  1.00  0.00    -0.357 C  
HETATM    3  H   UNL     1      -9.991  20.329  70.635  1.00  0.00     0.000 HD 
HETATM    4  C   UNL     2      -7.210  11.076  69.824  1.00  0.00    -0.008 C  
HETATM    5  C   UNL     1      -8.891  18.854  67.884  1.00  0.00    -0.298 C  
HETATM    6  C   UNL     2      -6.415  12.153  69.103  1.00  0.00    -0.099 C  
HETATM    7  C   UNL     1      -7.594  18.299  68.535  1.00  0.00    -0.300 C  
HETATM    8  N   UNL     1      -9.532  17.786  67.053  1.00  0.00    -0.263 NA 
HETATM    9  C   UNL     1      -8.614  19.976  66.896  1.00  0.00    -0.336 C  
HETATM   10  H   UNL     1      -9.602  20.841  65.446  1.00  0.00     0.000 HD 
HETATM   11  H   UNL     1      -7.093  16.819  69.748  1.00  0.00     0.000 HD 
HETATM   12  H2  UNL     1     -10.451  18.046  66.696  1.00  0.00     0.000 HD 
HETATM   13  O   UNL     1      -7.885  17.159  69.350  1.00  0.00    -0.034 OA 
HETATM   14  O   UNL     1      -9.775  20.140  66.064  1.00  0.00    -0.416 OA 
HETATM   15  H1  UNL     1      -8.861  17.556  66.319  1.00  0.00     0.000 HD 
ENDROOT
BRANCH   6  16
HETATM   16  C   UNL     2      -7.259  13.014  68.161  1.00  0.00    -0.116 C  
BRANCH  16  17
HETATM   17  C   UNL     2      -8.761  12.719  68.185  1.00  0.00    -0.193 C  
BRANCH  17  18
HETATM   18  C   UNL     2      -9.356  12.268  66.830  1.00  0.00    -0.210 C  
HETATM   19  C   UNL     2     -10.718  11.537  66.831  1.00  0.00    -0.263 C  
HETATM   20  C   UNL     2     -11.314  11.294  65.437  1.00  0.00     0.027 C  
HETATM   21  O   UNL     2     -11.645  12.374  67.531  1.00  0.00    -0.325 OA 
HETATM   22  C   UNL     2     -10.606  10.232  67.568  1.00  0.00    -0.320 C  
HETATM   23  H   UNL     2     -12.482  11.925  67.533  1.00  0.00     0.000 HD 
HETATM   24  C   UNL     2      -9.999   9.107  67.152  1.00  0.00    -0.280 C  
BRANCH  24  25
HETATM   25  C   UNL     2      -9.889   7.827  67.949  1.00  0.00    -0.194 C  
HETATM   26  C   UNL     2     -11.147   6.928  67.968  1.00  0.00    -0.096 C  
HETATM   27  C   UNL     2     -10.617   5.650  68.571  1.00  0.00    -0.259 C  
HETATM   28  O   UNL     2     -11.653   6.565  66.687  1.00  0.00    -0.678 OA 
HETATM   29  H   UNL     2     -12.426   6.013  66.699  1.00  0.00     0.000 HD 
HETATM   30  C   UNL     2      -9.273   5.455  67.870  1.00  0.00    -0.110 C  
HETATM   31  C   UNL     2      -8.736   6.868  67.521  1.00  0.00    -0.120 C  
HETATM   32  O   UNL     2      -8.444   4.692  68.732  1.00  0.00    -0.084 OA 
HETATM   33  H   UNL     2      -7.609   4.571  68.296  1.00  0.00     0.000 HD 
BRANCH  31  34
HETATM   34  C   UNL     2      -7.375   7.232  68.156  1.00  0.00    -0.100 C  
BRANCH  34  35
HETATM   35  C   UNL     2      -7.173   6.665  69.542  1.00  0.00    -0.082 C  
HETATM   36  C   UNL     2      -7.668   7.108  70.708  1.00  0.00    -0.094 C  
BRANCH  36  37
HETATM   37  C   UNL     2      -8.563   8.293  70.935  1.00  0.00    -0.152 C  
BRANCH  37  38
HETATM   38  C   UNL     2      -9.913   7.924  71.552  1.00  0.00    -0.214 C  
BRANCH  38  39
HETATM   39  C   UNL     2     -10.860   9.097  71.754  1.00  0.00    -0.416 C  
HETATM   40  C   UNL     2     -12.353   8.868  71.517  1.00  0.00    -0.324 C  
HETATM   41  O   UNL     2     -12.998   9.908  71.207  1.00  0.00    -0.351 OA 
HETATM   42  O   UNL     2     -12.851   7.709  71.697  1.00  0.00    -0.330 OA 
ENDBRANCH  38  39
ENDBRANCH  37  38
ENDBRANCH  36  37
ENDBRANCH  34  35
ENDBRANCH  31  34
ENDBRANCH  24  25
ENDBRANCH  17  18
ENDBRANCH  16  17
ENDBRANCH   6  16
TORSDOF 9
ENDMDL
MODEL      245
REMARK 921   NORMALIZED FREE ENERGY PREDICTED BY IDOCK:   -4.00 KCAL/MOL
REMARK 922        TOTAL FREE ENERGY PREDICTED BY IDOCK:   -8.03 KCAL/MOL
REMARK 923 INTER-LIGAND FREE ENERGY PREDICTED BY IDOCK:   -5.75 KCAL/MOL
REMARK 924 INTRA-LIGAND FREE ENERGY PREDICTED BY IDOCK:   -2.28 KCAL/MOL
REMARK 927      BINDING AFFINITY PREDICTED BY RF-SCORE:    0.00 PKD
ROOT
HETATM    1  O   UNL     1     -12.540  12.622  70.959  1.00  0.00    -0.361 OA 
HETATM    2  C   UNL     1     -12.822  11.534  70.086  1.00  0.00     0.173 C  
HETATM    3  H   UNL     1     -13.331  12.975  71.349  1.00  0.00     0.000 HD 
HETATM    4  C   UNL     2     -11.082   3.751  73.319  1.00  0.00    -0.262 C  
HETATM    5  C   UNL     1     -11.526  10.955  69.447  1.00  0.00    -0.302 C  
HETATM    6  C   UNL     2     -10.028   4.653  72.695  1.00  0.00    -0.213 C  
HETATM    7  C   UNL     1     -10.542  10.546  70.577  1.00  0.00     0.226 C  
HETATM    8  N   UNL     1     -11.945   9.738  68.682  1.00  0.00    -0.007 NA 
HETATM    9  C   UNL     1     -10.876  11.846  68.399  1.00  0.00    -0.228 C  
HETATM   10  H   UNL     1     -11.296  12.390  66.568  1.00  0.00     0.000 HD 
HETATM   11  H   UNL     1     -10.550   9.352  72.153  1.00  0.00     0.000 HD 
HETATM   12  H2  UNL     1     -12.686   9.920  68.004  1.00  0.00     0.000 HD 
HETATM   13  O   UNL     1     -11.152   9.602  71.462  1.00  0.00    -0.370 OA 
HETATM   14  O   UNL     1     -11.702  11.834  67.223  1.00  0.00    -0.546 OA 
HETATM   15  H1  UNL     1     -11.096   9.359  68.263  1.00  0.00     0.000 HD 
ENDROOT
BRANCH   6  16
HETATM   16  C   UNL     2     -10.471   5.299  71.381  1.00  0.00    -0.273 C  
BRANCH  16  17
HETATM   17  C   UNL     2      -9.800   6.637  71.058  1.00  0.00    -0.196 C  
BRANCH  17  18
HETATM   18  C   UNL     2      -8.254   6.610  71.077  1.00  0.00    -0.120 C  
HETATM   19  C   UNL     2      -7.492   7.941  70.884  1.00  0.00    -0.073 C  
HETATM   20  C   UNL     2      -5.975   7.847  71.103  1.00  0.00    -0.034 C  
HETATM   21  O   UNL     2      -7.990   8.858  71.865  1.00  0.00    -0.328 OA 
HETATM   22  C   UNL     2      -7.772   8.506  69.520  1.00  0.00    -0.091 C  
HETATM   23  H   UNL     2      -7.522   9.676  71.747  1.00  0.00     0.000 HD 
HETATM   24  C   UNL     2      -7.305   8.064  68.340  1.00  0.00    -0.098 C  
BRANCH  24  25
HETATM   25  C   UNL     2      -7.644   8.654  66.989  1.00  0.00    -0.084 C  
HETATM   26  C   UNL     2      -8.951   8.148  66.336  1.00  0.00    -0.171 C  
HETATM   27  C   UNL     2      -9.133   9.120  65.195  1.00  0.00    -0.234 C  
HETATM   28  O   UNL     2     -10.120   8.278  67.139  1.00  0.00    -0.209 OA 
HETATM   29  H   UNL     2     -10.923   7.967  66.738  1.00  0.00     0.000 HD 
HETATM   30  C   UNL     2      -8.801  10.473  65.822  1.00  0.00    -0.175 C  
HETATM   31  C   UNL     2      -7.768  10.208  66.949  1.00  0.00    -0.103 C  
HETATM   32  O   UNL     2      -8.353  11.330  64.784  1.00  0.00    -0.351 OA 
HETATM   33  H   UNL     2      -8.146  12.172  65.174  1.00  0.00     0.000 HD 
BRANCH  31  34
HETATM   34  C   UNL     2      -6.408  10.923  66.778  1.00  0.00    -0.097 C  
BRANCH  34  35
HETATM   35  C   UNL     2      -5.807  11.415  68.075  1.00  0.00    -0.042 C  
HETATM   36  C   UNL     2      -5.759  12.669  68.553  1.00  0.00    -0.056 C  
BRANCH  36  37
HETATM   37  C   UNL     2      -6.299  13.916  67.914  1.00  0.00    -0.167 C  
BRANCH  37  38
HETATM   38  C   UNL     2      -7.587  14.421  68.566  1.00  0.00    -0.125 C  
BRANCH  38  39
HETATM   39  C   UNL     2      -7.397  15.583  69.530  1.00  0.00    -0.203 C  
HETATM   40  C   UNL     2      -7.235  16.986  68.944  1.00  0.00    -0.239 C  
HETATM   41  O   UNL     2      -6.604  17.792  69.685  1.00  0.00    -0.199 OA 
HETATM   42  O   UNL     2      -7.774  17.270  67.825  1.00  0.00    -0.184 OA 
ENDBRANCH  38  39
ENDBRANCH  37  38
ENDBRANCH  36  37
ENDBRANCH  34  35
ENDBRANCH  31  34
ENDBRANCH  24  25
ENDBRANCH  17  18
ENDBRANCH  16  17
ENDBRANCH   6  16
TORSDOF 9
ENDMDL
MODEL      246
REMARK 921   NORMALIZED FREE ENERGY PREDICTED BY IDOCK:   -3.90 KCAL/MOL
REMARK 922        TOTAL FREE ENERGY PREDICTED BY IDOCK:   -7.88 KCAL/MOL
REMARK 923 INTER-LIGAND FREE ENERGY PREDICTED BY IDOCK:   -6.27 KCAL/MOL
REMARK 924 INTRA-LIGAND FREE ENERGY PREDICTED BY IDOCK:   -1.62 KCAL/MOL
REMARK 927      BINDING AFFINITY PREDICTED BY RF-SCORE:    0.00 PKD
ROOT
HETATM    1  O   UNL     1     -10.615  17.544  68.808  1.00  0.00    -0.330 OA 
HETATM    2  C   UNL     1     -11.386  16.618  68.050  1.00  0.00    -0.052 C  
HETATM    3  H   UNL     1     -11.154  18.239  69.168  1.00  0.00     0.000 HD 
HETATM    4  C   UNL     2     -13.026   9.163  72.023  1.00  0.00    -0.496 C  
HETATM    5  C   UNL     1     -10.502  15.480  67.460  1.00  0.00    -0.282 C  
HETATM    6  C   UNL     2     -11.719   9.458  71.304  1.00  0.00    -0.432 C  
HETATM    7  C   UNL     1      -9.736  14.780  68.616  1.00  0.00    -0.225 C  
HETATM    8  N   UNL     1     -11.445  14.507  66.823  1.00  0.00    -0.357 NA 
HETATM    9  C   UNL     1      -9.585  15.904  66.324  1.00  0.00    -0.316 C  
HETATM   10  H   UNL     1      -9.820  16.419  64.452  1.00  0.00     0.000 HD 
HETATM   11  H   UNL     1     -10.181  13.849  70.303  1.00  0.00     0.000 HD 
HETATM   12  H2  UNL     1     -12.068  14.934  66.137  1.00  0.00     0.000 HD 
HETATM   13  O   UNL     1     -10.649  14.276  69.596  1.00  0.00    -0.098 OA 
HETATM   14  O   UNL     1     -10.394  16.154  65.162  1.00  0.00    -0.560 OA 
HETATM   15  H1  UNL     1     -10.867  13.761  66.437  1.00  0.00     0.000 HD 
ENDROOT
BRANCH   6  16
HETATM   16  C   UNL     2     -11.904  10.118  69.936  1.00  0.00    -0.206 C  
BRANCH  16  17
HETATM   17  C   UNL     2     -10.733   9.941  68.966  1.00  0.00    -0.244 C  
BRANCH  17  18
HETATM   18  C   UNL     2      -9.404   9.503  69.625  1.00  0.00    -0.213 C  
HETATM   19  C   UNL     2      -8.167   9.299  68.721  1.00  0.00    -0.112 C  
HETATM   20  C   UNL     2      -6.856   9.047  69.480  1.00  0.00    -0.048 C  
HETATM   21  O   UNL     2      -7.982  10.509  67.978  1.00  0.00    -0.103 OA 
HETATM   22  C   UNL     2      -8.412   8.178  67.751  1.00  0.00    -0.132 C  
HETATM   23  H   UNL     2      -7.222  10.384  67.423  1.00  0.00     0.000 HD 
HETATM   24  C   UNL     2      -8.442   6.860  68.014  1.00  0.00    -0.124 C  
BRANCH  24  25
HETATM   25  C   UNL     2      -8.724   5.773  67.001  1.00  0.00    -0.109 C  
HETATM   26  C   UNL     2      -8.825   6.227  65.527  1.00  0.00    -0.029 C  
HETATM   27  C   UNL     2      -8.811   4.912  64.787  1.00  0.00    -0.147 C  
HETATM   28  O   UNL     2      -7.701   6.953  65.038  1.00  0.00    -0.096 OA 
HETATM   29  H   UNL     2      -7.763   7.232  64.132  1.00  0.00     0.000 HD 
HETATM   30  C   UNL     2      -7.724   4.111  65.502  1.00  0.00    -0.086 C  
HETATM   31  C   UNL     2      -7.699   4.599  66.975  1.00  0.00    -0.091 C  
HETATM   32  O   UNL     2      -8.019   2.734  65.330  1.00  0.00    -0.080 OA 
HETATM   33  H   UNL     2      -7.343   2.236  65.775  1.00  0.00     0.000 HD 
BRANCH  31  34
HETATM   34  C   UNL     2      -7.990   3.512  68.035  1.00  0.00    -0.075 C  
BRANCH  34  35
HETATM   35  C   UNL     2      -6.874   3.317  69.036  1.00  0.00    -0.044 C  
HETATM   36  C   UNL     2      -6.702   3.915  70.225  1.00  0.00    -0.033 C  
BRANCH  36  37
HETATM   37  C   UNL     2      -7.586   4.942  70.873  1.00  0.00    -0.073 C  
BRANCH  37  38
HETATM   38  C   UNL     2      -9.049   4.505  70.974  1.00  0.00    -0.185 C  
BRANCH  38  39
HETATM   39  C   UNL     2      -9.999   5.581  71.478  1.00  0.00    -0.229 C  
HETATM   40  C   UNL     2     -10.984   5.210  72.588  1.00  0.00    -0.243 C  
HETATM   41  O   UNL     2     -12.029   5.918  72.616  1.00  0.00    -0.229 OA 
HETATM   42  O   UNL     2     -10.681   4.294  73.421  1.00  0.00    -0.187 OA 
ENDBRANCH  38  39
ENDBRANCH  37  38
ENDBRANCH  36  37
ENDBRANCH  34  35
ENDBRANCH  31  34
ENDBRANCH  24  25
ENDBRANCH  17  18
ENDBRANCH  16  17
ENDBRANCH   6  16
TORSDOF 9
ENDMDL
MODEL      247
REMARK 921   NORMALIZED FREE ENERGY PREDICTED BY IDOCK:   -3.90 KCAL/MOL
REMARK 922        TOTAL FREE ENERGY PREDICTED BY IDOCK:   -7.88 KCAL/MOL
REMARK 923 INTER-LIGAND FREE ENERGY PREDICTED BY IDOCK:   -6.40 KCAL/MOL
REMARK 924 INTRA-LIGAND FREE ENERGY PREDICTED BY IDOCK:   -1.49 KCAL/MOL
REMARK 927      BINDING AFFINITY PREDICTED BY RF-SCORE:    0.00 PKD
ROOT
HETATM    1  O   UNL     1      -8.824   8.076  63.429  1.00  0.00    -0.246 OA 
HETATM    2  C   UNL     1      -7.899   8.808  64.228  1.00  0.00    -0.133 C  
HETATM    3  H   UNL     1      -9.168   7.321  63.891  1.00  0.00     0.000 HD 
HETATM    4  C   UNL     2     -11.005  16.084  67.613  1.00  0.00    -0.284 C  
HETATM    5  C   UNL     1      -7.336  10.045  63.470  1.00  0.00    -0.138 C  
HETATM    6  C   UNL     2     -10.485  15.980  66.187  1.00  0.00    -0.334 C  
HETATM    7  C   UNL     1      -8.520  10.935  62.999  1.00  0.00    -0.081 C  
HETATM    8  N   UNL     1      -6.506  10.799  64.462  1.00  0.00    -0.359 NA 
HETATM    9  C   UNL     1      -6.365   9.721  62.345  1.00  0.00    -0.102 C  
HETATM   10  H   UNL     1      -4.527   9.063  62.228  1.00  0.00     0.000 HD 
HETATM   11  H   UNL     1     -10.053  11.872  63.823  1.00  0.00     0.000 HD 
HETATM   12  H2  UNL     1      -5.783  10.230  64.903  1.00  0.00     0.000 HD 
HETATM   13  O   UNL     1      -9.330  11.329  64.110  1.00  0.00    -0.191 OA 
HETATM   14  O   UNL     1      -5.134   9.266  62.931  1.00  0.00    -0.067 OA 
HETATM   15  H1  UNL     1      -6.137  11.611  63.966  1.00  0.00     0.000 HD 
ENDROOT
BRANCH   6  16
HETATM   16  C   UNL     2      -9.164  15.218  66.069  1.00  0.00    -0.308 C  
BRANCH  16  17
HETATM   17  C   UNL     2      -9.040  13.989  66.975  1.00  0.00    -0.256 C  
BRANCH  17  18
HETATM   18  C   UNL     2     -10.244  13.020  66.923  1.00  0.00    -0.244 C  
HETATM   19  C   UNL     2     -10.629  12.256  68.211  1.00  0.00    -0.227 C  
HETATM   20  C   UNL     2     -11.941  11.464  68.115  1.00  0.00    -0.201 C  
HETATM   21  O   UNL     2     -10.817  13.234  69.241  1.00  0.00    -0.415 OA 
HETATM   22  C   UNL     2      -9.513  11.338  68.624  1.00  0.00    -0.179 C  
HETATM   23  H   UNL     2     -11.053  12.765  70.032  1.00  0.00     0.000 HD 
HETATM   24  C   UNL     2      -9.148  10.182  68.044  1.00  0.00    -0.131 C  
BRANCH  24  25
HETATM   25  C   UNL     2      -7.994   9.310  68.484  1.00  0.00    -0.101 C  
HETATM   26  C   UNL     2      -6.642   9.565  67.778  1.00  0.00    -0.062 C  
HETATM   27  C   UNL     2      -5.683   8.771  68.631  1.00  0.00    -0.041 C  
HETATM   28  O   UNL     2      -6.176  10.910  67.830  1.00  0.00    -0.050 OA 
HETATM   29  H   UNL     2      -5.345  11.067  67.396  1.00  0.00     0.000 HD 
HETATM   30  C   UNL     2      -6.128   9.087  70.058  1.00  0.00    -0.037 C  
HETATM   31  C   UNL     2      -7.653   9.367  70.005  1.00  0.00    -0.113 C  
HETATM   32  O   UNL     2      -5.745   7.996  70.881  1.00  0.00    -0.033 OA 
HETATM   33  H   UNL     2      -6.022   8.193  71.768  1.00  0.00     0.000 HD 
BRANCH  31  34
HETATM   34  C   UNL     2      -8.527   8.423  70.861  1.00  0.00    -0.158 C  
BRANCH  34  35
HETATM   35  C   UNL     2      -9.927   8.938  71.108  1.00  0.00    -0.342 C  
HETATM   36  C   UNL     2     -10.897   8.397  71.860  1.00  0.00    -0.372 C  
BRANCH  36  37
HETATM   37  C   UNL     2     -10.839   7.127  72.660  1.00  0.00    -0.315 C  
BRANCH  37  38
HETATM   38  C   UNL     2     -10.885   5.865  71.798  1.00  0.00    -0.316 C  
BRANCH  38  39
HETATM   39  C   UNL     2     -10.299   4.625  72.456  1.00  0.00    -0.259 C  
HETATM   40  C   UNL     2      -8.931   4.135  71.980  1.00  0.00    -0.119 C  
HETATM   41  O   UNL     2      -8.725   2.903  72.164  1.00  0.00    -0.072 OA 
HETATM   42  O   UNL     2      -8.090   4.968  71.507  1.00  0.00    -0.108 OA 
ENDBRANCH  38  39
ENDBRANCH  37  38
ENDBRANCH  36  37
ENDBRANCH  34  35
ENDBRANCH  31  34
ENDBRANCH  24  25
ENDBRANCH  17  18
ENDBRANCH  16  17
ENDBRANCH   6  16
TORSDOF 9
ENDMDL
MODEL      248
REMARK 921   NORMALIZED FREE ENERGY PREDICTED BY IDOCK:   -3.89 KCAL/MOL
REMARK 922        TOTAL FREE ENERGY PREDICTED BY IDOCK:   -7.86 KCAL/MOL
REMARK 923 INTER-LIGAND FREE ENERGY PREDICTED BY IDOCK:   -6.88 KCAL/MOL
REMARK 924 INTRA-LIGAND FREE ENERGY PREDICTED BY IDOCK:   -0.98 KCAL/MOL
REMARK 927      BINDING AFFINITY PREDICTED BY RF-SCORE:    0.00 PKD
ROOT
HETATM    1  O   UNL     1     -11.764   6.759  69.145  1.00  0.00    -0.601 OA 
HETATM    2  C   UNL     1     -11.387   7.728  70.118  1.00  0.00    -0.110 C  
HETATM    3  H   UNL     1     -12.708   6.693  69.061  1.00  0.00     0.000 HD 
HETATM    4  C   UNL     2      -8.593  15.201  66.894  1.00  0.00    -0.289 C  
HETATM    5  C   UNL     1      -9.840   7.837  70.255  1.00  0.00    -0.184 C  
HETATM    6  C   UNL     2      -7.714  13.967  67.028  1.00  0.00     0.151 C  
HETATM    7  C   UNL     1      -9.228   8.151  68.862  1.00  0.00    -0.147 C  
HETATM    8  N   UNL     1      -9.583   8.980  71.186  1.00  0.00    -0.269 NA 
HETATM    9  C   UNL     1      -9.172   6.650  70.932  1.00  0.00    -0.157 C  
HETATM   10  H   UNL     1      -9.084   5.946  72.755  1.00  0.00     0.000 HD 
HETATM   11  H   UNL     1      -9.414   9.544  67.472  1.00  0.00     0.000 HD 
HETATM   12  H2  UNL     1     -10.064   8.892  72.081  1.00  0.00     0.000 HD 
HETATM   13  O   UNL     1      -9.788   9.352  68.323  1.00  0.00    -0.152 OA 
HETATM   14  O   UNL     1      -9.501   6.687  72.332  1.00  0.00    -0.149 OA 
HETATM   15  H1  UNL     1      -8.570   9.052  71.276  1.00  0.00     0.000 HD 
ENDROOT
BRANCH   6  16
HETATM   16  C   UNL     2      -7.854  13.256  68.375  1.00  0.00    -0.137 C  
BRANCH  16  17
HETATM   17  C   UNL     2      -6.690  12.331  68.745  1.00  0.00    -0.089 C  
BRANCH  17  18
HETATM   18  C   UNL     2      -6.884  10.851  68.340  1.00  0.00    -0.068 C  
HETATM   19  C   UNL     2      -6.683  10.461  66.857  1.00  0.00    -0.083 C  
HETATM   20  C   UNL     2      -6.713   8.950  66.585  1.00  0.00    -0.072 C  
HETATM   21  O   UNL     2      -5.382  10.920  66.473  1.00  0.00    -0.062 OA 
HETATM   22  C   UNL     2      -7.705  11.150  65.997  1.00  0.00    -0.001 C  
HETATM   23  H   UNL     2      -5.259  10.681  65.562  1.00  0.00     0.000 HD 
HETATM   24  C   UNL     2      -9.014  10.868  65.897  1.00  0.00    -0.206 C  
BRANCH  24  25
HETATM   25  C   UNL     2     -10.007  11.616  65.035  1.00  0.00    -0.297 C  
HETATM   26  C   UNL     2      -9.924  11.347  63.515  1.00  0.00    -0.388 C  
HETATM   27  C   UNL     2     -11.193  11.989  63.009  1.00  0.00    -0.062 C  
HETATM   28  O   UNL     2     -10.012   9.977  63.136  1.00  0.00    -0.496 OA 
HETATM   29  H   UNL     2      -9.961   9.811  62.202  1.00  0.00     0.000 HD 
HETATM   30  C   UNL     2     -12.244  11.561  64.033  1.00  0.00     0.067 C  
HETATM   31  C   UNL     2     -11.508  11.386  65.388  1.00  0.00     0.028 C  
HETATM   32  O   UNL     2     -13.273  12.538  64.029  1.00  0.00    -0.656 OA 
HETATM   33  H   UNL     2     -13.926  12.271  64.666  1.00  0.00     0.000 HD 
BRANCH  31  34
HETATM   34  C   UNL     2     -12.011  12.293  66.534  1.00  0.00    -0.274 C  
BRANCH  34  35
HETATM   35  C   UNL     2     -11.776  13.768  66.297  1.00  0.00    -0.400 C  
HETATM   36  C   UNL     2     -11.611  14.745  67.201  1.00  0.00    -0.373 C  
BRANCH  36  37
HETATM   37  C   UNL     2     -11.614  14.621  68.698  1.00  0.00    -0.343 C  
BRANCH  37  38
HETATM   38  C   UNL     2     -11.451  15.961  69.418  1.00  0.00    -0.351 C  
BRANCH  38  39
HETATM   39  C   UNL     2     -11.278  17.159  68.497  1.00  0.00     0.055 C  
HETATM   40  C   UNL     2     -10.118  18.117  68.770  1.00  0.00    -0.376 C  
HETATM   41  O   UNL     2     -10.300  19.292  68.343  1.00  0.00    -0.399 OA 
HETATM   42  O   UNL     2      -9.059  17.683  69.329  1.00  0.00     0.013 OA 
ENDBRANCH  38  39
ENDBRANCH  37  38
ENDBRANCH  36  37
ENDBRANCH  34  35
ENDBRANCH  31  34
ENDBRANCH  24  25
ENDBRANCH  17  18
ENDBRANCH  16  17
ENDBRANCH   6  16
TORSDOF 9
ENDMDL
MODEL      249
REMARK 921   NORMALIZED FREE ENERGY PREDICTED BY IDOCK:   -3.89 KCAL/MOL
REMARK 922        TOTAL FREE ENERGY PREDICTED BY IDOCK:   -7.86 KCAL/MOL
REMARK 923 INTER-LIGAND FREE ENERGY PREDICTED BY IDOCK:   -7.06 KCAL/MOL
REMARK 924 INTRA-LIGAND FREE ENERGY PREDICTED BY IDOCK:   -0.80 KCAL/MOL
REMARK 927      BINDING AFFINITY PREDICTED BY RF-SCORE:    0.00 PKD
ROOT
HETATM    1  O   UNL     1     -13.211  16.026  69.721  1.00  0.00    -0.349 OA 
HETATM    2  C   UNL     1     -12.183  15.884  68.746  1.00  0.00     0.184 C  
HETATM    3  H   UNL     1     -14.071  15.852  69.354  1.00  0.00     0.000 HD 
HETATM    4  C   UNL     2      -7.627   8.607  69.320  1.00  0.00    -0.094 C  
HETATM    5  C   UNL     1     -10.776  16.168  69.346  1.00  0.00    -0.307 C  
HETATM    6  C   UNL     2      -7.357   9.833  70.179  1.00  0.00    -0.159 C  
HETATM    7  C   UNL     1     -10.546  15.233  70.565  1.00  0.00    -0.157 C  
HETATM    8  N   UNL     1      -9.789  15.840  68.269  1.00  0.00    -0.211 NA 
HETATM    9  C   UNL     1     -10.500  17.628  69.669  1.00  0.00     0.341 C  
HETATM   10  H   UNL     1     -10.165  19.253  68.632  1.00  0.00     0.000 HD 
HETATM   11  H   UNL     1     -10.541  13.290  70.929  1.00  0.00     0.000 HD 
HETATM   12  H2  UNL     1      -9.963  16.334  67.394  1.00  0.00     0.000 HD 
HETATM   13  O   UNL     1     -10.681  13.861  70.184  1.00  0.00     0.325 OA 
HETATM   14  O   UNL     1     -10.337  18.340  68.430  1.00  0.00    -0.372 OA 
HETATM   15  H1  UNL     1      -8.866  16.026  68.663  1.00  0.00     0.000 HD 
ENDROOT
BRANCH   6  16
HETATM   16  C   UNL     2      -7.365  11.147  69.395  1.00  0.00    -0.062 C  
BRANCH  16  17
HETATM   17  C   UNL     2      -6.715  11.080  68.011  1.00  0.00    -0.063 C  
BRANCH  17  18
HETATM   18  C   UNL     2      -6.366  12.453  67.391  1.00  0.00    -0.157 C  
HETATM   19  C   UNL     2      -7.244  13.672  67.758  1.00  0.00    -0.164 C  
HETATM   20  C   UNL     2      -6.713  15.019  67.246  1.00  0.00     0.015 C  
HETATM   21  O   UNL     2      -7.268  13.759  69.187  1.00  0.00    -0.204 OA 
HETATM   22  C   UNL     2      -8.650  13.463  67.270  1.00  0.00    -0.216 C  
HETATM   23  H   UNL     2      -7.808  14.507  69.413  1.00  0.00     0.000 HD 
HETATM   24  C   UNL     2      -9.093  13.522  66.003  1.00  0.00     0.211 C  
BRANCH  24  25
HETATM   25  C   UNL     2     -10.518  13.274  65.563  1.00  0.00    -0.295 C  
HETATM   26  C   UNL     2     -11.453  14.506  65.556  1.00  0.00    -0.343 C  
HETATM   27  C   UNL     2     -12.658  13.988  64.810  1.00  0.00    -0.326 C  
HETATM   28  O   UNL     2     -10.983  15.618  64.800  1.00  0.00    -0.520 OA 
HETATM   29  H   UNL     2     -11.557  16.375  64.796  1.00  0.00     0.000 HD 
HETATM   30  C   UNL     2     -12.049  13.203  63.649  1.00  0.00    -0.513 C  
HETATM   31  C   UNL     2     -10.682  12.657  64.140  1.00  0.00    -0.435 C  
HETATM   32  O   UNL     2     -12.988  12.212  63.260  1.00  0.00    -0.735 OA 
HETATM   33  H   UNL     2     -12.609  11.724  62.538  1.00  0.00     0.000 HD 
BRANCH  31  34
HETATM   34  C   UNL     2     -10.542  11.118  64.124  1.00  0.00    -0.436 C  
BRANCH  34  35
HETATM   35  C   UNL     2      -9.346  10.602  64.889  1.00  0.00    -0.271 C  
HETATM   36  C   UNL     2      -9.321   9.927  66.049  1.00  0.00    -0.240 C  
BRANCH  36  37
HETATM   37  C   UNL     2     -10.491   9.505  66.891  1.00  0.00    -0.279 C  
BRANCH  37  38
HETATM   38  C   UNL     2     -10.314   9.821  68.377  1.00  0.00    -0.230 C  
BRANCH  38  39
HETATM   39  C   UNL     2     -11.195  10.948  68.896  1.00  0.00    -0.327 C  
HETATM   40  C   UNL     2     -11.987  10.710  70.182  1.00  0.00    -0.334 C  
HETATM   41  O   UNL     2     -13.028  11.416  70.292  1.00  0.00    -0.010 OA 
HETATM   42  O   UNL     2     -11.540   9.900  71.058  1.00  0.00    -0.329 OA 
ENDBRANCH  38  39
ENDBRANCH  37  38
ENDBRANCH  36  37
ENDBRANCH  34  35
ENDBRANCH  31  34
ENDBRANCH  24  25
ENDBRANCH  17  18
ENDBRANCH  16  17
ENDBRANCH   6  16
TORSDOF 9
ENDMDL
MODEL      250
REMARK 921   NORMALIZED FREE ENERGY PREDICTED BY IDOCK:   -3.88 KCAL/MOL
REMARK 922        TOTAL FREE ENERGY PREDICTED BY IDOCK:   -7.85 KCAL/MOL
REMARK 923 INTER-LIGAND FREE ENERGY PREDICTED BY IDOCK:   -6.32 KCAL/MOL
REMARK 924 INTRA-LIGAND FREE ENERGY PREDICTED BY IDOCK:   -1.53 KCAL/MOL
REMARK 927      BINDING AFFINITY PREDICTED BY RF-SCORE:    0.00 PKD
ROOT
HETATM    1  O   UNL     1     -14.235   9.384  72.642  1.00  0.00    -0.755 OA 
HETATM    2  C   UNL     1     -13.531   8.774  71.565  1.00  0.00    -0.316 C  
HETATM    3  H   UNL     1     -15.093   8.996  72.767  1.00  0.00     0.000 HD 
HETATM    4  C   UNL     2      -7.361   3.261  73.931  1.00  0.00    -0.052 C  
HETATM    5  C   UNL     1     -12.125   9.409  71.361  1.00  0.00    -0.363 C  
HETATM    6  C   UNL     2      -7.164   4.769  73.887  1.00  0.00    -0.078 C  
HETATM    7  C   UNL     1     -11.329   9.320  72.693  1.00  0.00     1.009 C  
HETATM    8  N   UNL     1     -11.443   8.586  70.313  1.00  0.00    -0.445 NA 
HETATM    9  C   UNL     1     -12.135  10.815  70.780  1.00  0.00    -0.372 C  
HETATM   10  H   UNL     1     -12.525  11.604  69.034  1.00  0.00     0.000 HD 
HETATM   11  H   UNL     1     -10.742   7.907  73.945  1.00  0.00     0.000 HD 
HETATM   12  H2  UNL     1     -11.979   8.502  69.450  1.00  0.00     0.000 HD 
HETATM   13  O   UNL     1     -11.228   7.961  73.132  1.00  0.00    -0.382 OA 
HETATM   14  O   UNL     1     -12.518  10.726  69.397  1.00  0.00    -0.333 OA 
HETATM   15  H1  UNL     1     -10.521   9.002  70.180  1.00  0.00     0.000 HD 
ENDROOT
BRANCH   6  16
HETATM   16  C   UNL     2      -7.722   5.426  72.623  1.00  0.00    -0.099 C  
BRANCH  16  17
HETATM   17  C   UNL     2      -8.081   6.907  72.765  1.00  0.00    -0.114 C  
BRANCH  17  18
HETATM   18  C   UNL     2      -7.074   7.885  72.116  1.00  0.00    -0.080 C  
HETATM   19  C   UNL     2      -7.554   8.757  70.933  1.00  0.00    -0.102 C  
HETATM   20  C   UNL     2      -6.548   9.824  70.476  1.00  0.00    -0.117 C  
HETATM   21  O   UNL     2      -8.722   9.460  71.373  1.00  0.00    -0.288 OA 
HETATM   22  C   UNL     2      -7.933   7.887  69.767  1.00  0.00    -0.114 C  
HETATM   23  H   UNL     2      -9.017   9.995  70.646  1.00  0.00     0.000 HD 
HETATM   24  C   UNL     2      -7.109   7.219  68.943  1.00  0.00    -0.084 C  
BRANCH  24  25
HETATM   25  C   UNL     2      -7.547   6.330  67.801  1.00  0.00    -0.101 C  
HETATM   26  C   UNL     2      -8.264   5.018  68.196  1.00  0.00    -0.096 C  
HETATM   27  C   UNL     2      -8.810   4.543  66.872  1.00  0.00    -0.112 C  
HETATM   28  O   UNL     2      -9.399   5.180  69.041  1.00  0.00    -0.109 OA 
HETATM   29  H   UNL     2      -9.840   4.374  69.284  1.00  0.00     0.000 HD 
HETATM   30  C   UNL     2      -9.361   5.817  66.233  1.00  0.00    -0.156 C  
HETATM   31  C   UNL     2      -8.502   6.995  66.763  1.00  0.00    -0.118 C  
HETATM   32  O   UNL     2      -9.336   5.639  64.825  1.00  0.00    -0.338 OA 
HETATM   33  H   UNL     2      -9.678   6.431  64.429  1.00  0.00     0.000 HD 
BRANCH  31  34
HETATM   34  C   UNL     2      -7.755   7.806  65.680  1.00  0.00    -0.101 C  
BRANCH  34  35
HETATM   35  C   UNL     2      -8.663   8.622  64.788  1.00  0.00    -0.099 C  
HETATM   36  C   UNL     2      -9.320   9.755  65.075  1.00  0.00    -0.325 C  
BRANCH  36  37
HETATM   37  C   UNL     2      -9.320  10.513  66.372  1.00  0.00    -0.197 C  
BRANCH  37  38
HETATM   38  C   UNL     2     -10.609  11.301  66.614  1.00  0.00    -0.309 C  
BRANCH  38  39
HETATM   39  C   UNL     2     -10.557  12.754  66.168  1.00  0.00    -0.286 C  
HETATM   40  C   UNL     2     -11.085  13.822  67.128  1.00  0.00    -0.302 C  
HETATM   41  O   UNL     2     -11.481  14.880  66.564  1.00  0.00    -0.345 OA 
HETATM   42  O   UNL     2     -11.038  13.620  68.385  1.00  0.00    -0.243 OA 
ENDBRANCH  38  39
ENDBRANCH  37  38
ENDBRANCH  36  37
ENDBRANCH  34  35
ENDBRANCH  31  34
ENDBRANCH  24  25
ENDBRANCH  17  18
ENDBRANCH  16  17
ENDBRANCH   6  16
TORSDOF 9
ENDMDL
MODEL      251
REMARK 921   NORMALIZED FREE ENERGY PREDICTED BY IDOCK:   -3.88 KCAL/MOL
REMARK 922        TOTAL FREE ENERGY PREDICTED BY IDOCK:   -7.85 KCAL/MOL
REMARK 923 INTER-LIGAND FREE ENERGY PREDICTED BY IDOCK:   -6.28 KCAL/MOL
REMARK 924 INTRA-LIGAND FREE ENERGY PREDICTED BY IDOCK:   -1.57 KCAL/MOL
REMARK 927      BINDING AFFINITY PREDICTED BY RF-SCORE:    0.00 PKD
ROOT
HETATM    1  O   UNL     1     -14.105   8.932  73.391  1.00  0.00    -1.256 OA 
HETATM    2  C   UNL     1     -12.763   9.108  72.949  1.00  0.00     0.276 C  
HETATM    3  H   UNL     1     -14.279   9.413  74.191  1.00  0.00     0.000 HD 
HETATM    4  C   UNL     2     -11.808  14.520  66.327  1.00  0.00    -0.354 C  
HETATM    5  C   UNL     1     -12.479   8.320  71.638  1.00  0.00    -0.320 C  
HETATM    6  C   UNL     2     -12.217  13.064  66.165  1.00  0.00    -0.428 C  
HETATM    7  C   UNL     1     -13.503   8.753  70.553  1.00  0.00     0.937 C  
HETATM    8  N   UNL     1     -11.099   8.708  71.208  1.00  0.00    -0.255 NA 
HETATM    9  C   UNL     1     -12.405   6.810  71.801  1.00  0.00    -0.356 C  
HETATM   10  H   UNL     1     -11.140   5.548  72.597  1.00  0.00     0.000 HD 
HETATM   11  H   UNL     1     -14.067  10.431  69.671  1.00  0.00     0.000 HD 
HETATM   12  H2  UNL     1     -10.392   8.563  71.930  1.00  0.00     0.000 HD 
HETATM   13  O   UNL     1     -13.442  10.166  70.334  1.00  0.00    -0.098 OA 
HETATM   14  O   UNL     1     -11.186   6.492  72.495  1.00  0.00    -0.248 OA 
HETATM   15  H1  UNL     1     -10.912   8.192  70.348  1.00  0.00     0.000 HD 
ENDROOT
BRANCH   6  16
HETATM   16  C   UNL     2     -11.388  12.095  67.011  1.00  0.00    -0.398 C  
BRANCH  16  17
HETATM   17  C   UNL     2     -10.369  11.260  66.229  1.00  0.00    -0.294 C  
BRANCH  17  18
HETATM   18  C   UNL     2      -8.890  11.546  66.578  1.00  0.00    -0.190 C  
HETATM   19  C   UNL     2      -7.802  10.619  65.990  1.00  0.00    -0.156 C  
HETATM   20  C   UNL     2      -6.361  11.088  66.237  1.00  0.00    -0.119 C  
HETATM   21  O   UNL     2      -7.987  10.600  64.570  1.00  0.00    -0.335 OA 
HETATM   22  C   UNL     2      -7.975   9.220  66.511  1.00  0.00    -0.104 C  
HETATM   23  H   UNL     2      -7.319  10.030  64.208  1.00  0.00     0.000 HD 
HETATM   24  C   UNL     2      -7.698   8.767  67.745  1.00  0.00    -0.102 C  
BRANCH  24  25
HETATM   25  C   UNL     2      -7.920   7.351  68.227  1.00  0.00    -0.124 C  
HETATM   26  C   UNL     2      -6.743   6.699  68.989  1.00  0.00    -0.052 C  
HETATM   27  C   UNL     2      -7.384   5.460  69.565  1.00  0.00    -0.065 C  
HETATM   28  O   UNL     2      -6.264   7.438  70.109  1.00  0.00    -0.027 OA 
HETATM   29  H   UNL     2      -5.541   7.038  70.578  1.00  0.00     0.000 HD 
HETATM   30  C   UNL     2      -8.736   5.959  70.074  1.00  0.00    -0.133 C  
HETATM   31  C   UNL     2      -9.149   7.148  69.166  1.00  0.00    -0.137 C  
HETATM   32  O   UNL     2      -9.631   4.859  70.069  1.00  0.00    -0.155 OA 
HETATM   33  H   UNL     2     -10.472   5.170  70.385  1.00  0.00     0.000 HD 
BRANCH  31  34
HETATM   34  C   UNL     2     -10.477   6.961  68.399  1.00  0.00    -0.235 C  
BRANCH  34  35
HETATM   35  C   UNL     2     -10.303   6.727  66.916  1.00  0.00    -0.324 C  
HETATM   36  C   UNL     2      -9.977   5.591  66.280  1.00  0.00    -0.174 C  
BRANCH  36  37
HETATM   37  C   UNL     2      -9.702   4.245  66.888  1.00  0.00    -0.239 C  
BRANCH  37  38
HETATM   38  C   UNL     2      -9.087   3.250  65.903  1.00  0.00    -0.152 C  
BRANCH  38  39
HETATM   39  C   UNL     2      -8.981   3.756  64.472  1.00  0.00    -0.124 C  
HETATM   40  C   UNL     2     -10.204   3.613  63.566  1.00  0.00    -0.210 C  
HETATM   41  O   UNL     2      -9.937   3.567  62.332  1.00  0.00    -0.104 OA 
HETATM   42  O   UNL     2     -11.372   3.614  64.075  1.00  0.00    -0.223 OA 
ENDBRANCH  38  39
ENDBRANCH  37  38
ENDBRANCH  36  37
ENDBRANCH  34  35
ENDBRANCH  31  34
ENDBRANCH  24  25
ENDBRANCH  17  18
ENDBRANCH  16  17
ENDBRANCH   6  16
TORSDOF 9
ENDMDL
MODEL      252
REMARK 921   NORMALIZED FREE ENERGY PREDICTED BY IDOCK:   -3.88 KCAL/MOL
REMARK 922        TOTAL FREE ENERGY PREDICTED BY IDOCK:   -7.84 KCAL/MOL
REMARK 923 INTER-LIGAND FREE ENERGY PREDICTED BY IDOCK:   -5.72 KCAL/MOL
REMARK 924 INTRA-LIGAND FREE ENERGY PREDICTED BY IDOCK:   -2.12 KCAL/MOL
REMARK 927      BINDING AFFINITY PREDICTED BY RF-SCORE:    0.00 PKD
ROOT
HETATM    1  O   UNL     1     -10.446   4.284  64.172  1.00  0.00    -0.417 OA 
HETATM    2  C   UNL     1      -9.700   4.309  65.384  1.00  0.00    -0.200 C  
HETATM    3  H   UNL     1     -11.117   3.612  64.185  1.00  0.00     0.000 HD 
HETATM    4  C   UNL     2     -11.738  10.708  70.764  1.00  0.00    -0.435 C  
HETATM    5  C   UNL     1      -8.600   5.410  65.363  1.00  0.00    -0.150 C  
HETATM    6  C   UNL     2     -10.801  10.879  69.578  1.00  0.00    -0.286 C  
HETATM    7  C   UNL     1      -9.263   6.784  65.067  1.00  0.00     0.811 C  
HETATM    8  N   UNL     1      -8.000   5.428  66.734  1.00  0.00    -0.101 NA 
HETATM    9  C   UNL     1      -7.421   5.121  64.446  1.00  0.00    -0.065 C  
HETATM   10  H   UNL     1      -5.903   3.887  64.464  1.00  0.00     0.000 HD 
HETATM   11  H   UNL     1     -10.679   7.916  65.856  1.00  0.00     0.000 HD 
HETATM   12  H2  UNL     1      -7.656   4.517  67.039  1.00  0.00     0.000 HD 
HETATM   13  O   UNL     1     -10.274   7.077  66.036  1.00  0.00     0.281 OA 
HETATM   14  O   UNL     1      -6.640   4.068  65.037  1.00  0.00    -0.044 OA 
HETATM   15  H1  UNL     1      -7.279   6.149  66.720  1.00  0.00     0.000 HD 
ENDROOT
BRANCH   6  16
HETATM   16  C   UNL     2      -9.775   9.753  69.438  1.00  0.00    -0.214 C  
BRANCH  16  17
HETATM   17  C   UNL     2      -8.469  10.147  68.741  1.00  0.00    -0.131 C  
BRANCH  17  18
HETATM   18  C   UNL     2      -8.224   9.454  67.381  1.00  0.00    -0.121 C  
HETATM   19  C   UNL     2      -7.510  10.252  66.266  1.00  0.00    -0.118 C  
HETATM   20  C   UNL     2      -7.146   9.427  65.023  1.00  0.00    -0.101 C  
HETATM   21  O   UNL     2      -6.276  10.730  66.814  1.00  0.00    -0.067 OA 
HETATM   22  C   UNL     2      -8.342  11.436  65.862  1.00  0.00     0.040 C  
HETATM   23  H   UNL     2      -5.838  11.220  66.130  1.00  0.00     0.000 HD 
HETATM   24  C   UNL     2      -9.473  11.432  65.137  1.00  0.00    -0.223 C  
BRANCH  24  25
HETATM   25  C   UNL     2     -10.289  12.655  64.784  1.00  0.00    -0.335 C  
HETATM   26  C   UNL     2     -11.294  12.489  63.620  1.00  0.00    -0.485 C  
HETATM   27  C   UNL     2     -12.118  13.749  63.728  1.00  0.00    -0.385 C  
HETATM   28  O   UNL     2     -12.217  11.414  63.765  1.00  0.00    -0.387 OA 
HETATM   29  H   UNL     2     -12.834  11.312  63.050  1.00  0.00     0.000 HD 
HETATM   30  C   UNL     2     -12.361  13.889  65.230  1.00  0.00    -0.464 C  
HETATM   31  C   UNL     2     -11.140  13.252  65.946  1.00  0.00    -0.301 C  
HETATM   32  O   UNL     2     -12.569  15.266  65.506  1.00  0.00     0.438 OA 
HETATM   33  H   UNL     2     -12.719  15.353  66.440  1.00  0.00     0.000 HD 
BRANCH  31  34
HETATM   34  C   UNL     2     -10.339  14.206  66.860  1.00  0.00    -0.269 C  
BRANCH  34  35
HETATM   35  C   UNL     2     -10.645  14.048  68.332  1.00  0.00    -0.259 C  
HETATM   36  C   UNL     2     -11.142  14.955  69.187  1.00  0.00    -0.279 C  
BRANCH  36  37
HETATM   37  C   UNL     2     -11.528  16.377  68.894  1.00  0.00    -0.216 C  
BRANCH  37  38
HETATM   38  C   UNL     2     -10.374  17.366  69.070  1.00  0.00    -0.319 C  
BRANCH  38  39
HETATM   39  C   UNL     2      -9.866  17.985  67.776  1.00  0.00    -0.306 C  
HETATM   40  C   UNL     2      -8.423  17.697  67.358  1.00  0.00    -0.221 C  
HETATM   41  O   UNL     2      -7.911  18.579  66.614  1.00  0.00    -0.234 OA 
HETATM   42  O   UNL     2      -7.868  16.607  67.714  1.00  0.00    -0.159 OA 
ENDBRANCH  38  39
ENDBRANCH  37  38
ENDBRANCH  36  37
ENDBRANCH  34  35
ENDBRANCH  31  34
ENDBRANCH  24  25
ENDBRANCH  17  18
ENDBRANCH  16  17
ENDBRANCH   6  16
TORSDOF 9
ENDMDL
MODEL      253
REMARK 921   NORMALIZED FREE ENERGY PREDICTED BY IDOCK:   -3.87 KCAL/MOL
REMARK 922        TOTAL FREE ENERGY PREDICTED BY IDOCK:   -7.82 KCAL/MOL
REMARK 923 INTER-LIGAND FREE ENERGY PREDICTED BY IDOCK:   -6.79 KCAL/MOL
REMARK 924 INTRA-LIGAND FREE ENERGY PREDICTED BY IDOCK:   -1.04 KCAL/MOL
REMARK 927      BINDING AFFINITY PREDICTED BY RF-SCORE:    0.00 PKD
ROOT
HETATM    1  O   UNL     1      -7.714  18.486  65.729  1.00  0.00    -0.502 OA 
HETATM    2  C   UNL     1      -7.733  18.066  67.090  1.00  0.00    -0.218 C  
HETATM    3  H   UNL     1      -6.945  19.007  65.532  1.00  0.00     0.000 HD 
HETATM    4  C   UNL     2      -5.553   9.842  68.375  1.00  0.00    -0.043 C  
HETATM    5  C   UNL     1      -8.994  17.212  67.412  1.00  0.00    -0.220 C  
HETATM    6  C   UNL     2      -6.946  10.282  67.951  1.00  0.00    -0.083 C  
HETATM    7  C   UNL     1      -9.052  16.005  66.437  1.00  0.00    -0.319 C  
HETATM    8  N   UNL     1      -8.815  16.717  68.813  1.00  0.00    -0.259 NA 
HETATM    9  C   UNL     1     -10.300  17.990  67.458  1.00  0.00    -0.385 C  
HETATM   10  H   UNL     1     -11.115  19.288  68.673  1.00  0.00     0.000 HD 
HETATM   11  H   UNL     1      -7.893  14.485  65.931  1.00  0.00     0.000 HD 
HETATM   12  H2  UNL     1      -8.646  17.462  69.489  1.00  0.00     0.000 HD 
HETATM   13  O   UNL     1      -7.857  15.223  66.527  1.00  0.00    -0.011 OA 
HETATM   14  O   UNL     1     -10.299  18.802  68.645  1.00  0.00    -0.351 OA 
HETATM   15  H1  UNL     1      -9.641  16.157  69.025  1.00  0.00     0.000 HD 
ENDROOT
BRANCH   6  16
HETATM   16  C   UNL     2      -7.475  11.486  68.733  1.00  0.00    -0.119 C  
BRANCH  16  17
HETATM   17  C   UNL     2      -8.961  11.793  68.524  1.00  0.00    -0.132 C  
BRANCH  17  18
HETATM   18  C   UNL     2      -9.354  12.135  67.068  1.00  0.00    -0.201 C  
HETATM   19  C   UNL     2     -10.463  11.299  66.389  1.00  0.00    -0.257 C  
HETATM   20  C   UNL     2     -10.914  11.827  65.020  1.00  0.00    -0.357 C  
HETATM   21  O   UNL     2     -11.612  11.349  67.244  1.00  0.00    -0.523 OA 
HETATM   22  C   UNL     2     -10.028   9.866  66.261  1.00  0.00    -0.322 C  
HETATM   23  H   UNL     2     -12.293  10.834  66.827  1.00  0.00     0.000 HD 
HETATM   24  C   UNL     2      -9.121   9.361  65.408  1.00  0.00    -0.280 C  
BRANCH  24  25
HETATM   25  C   UNL     2      -8.696   7.911  65.342  1.00  0.00    -0.078 C  
HETATM   26  C   UNL     2      -7.998   7.466  64.036  1.00  0.00    -0.091 C  
HETATM   27  C   UNL     2      -7.460   6.106  64.410  1.00  0.00    -0.080 C  
HETATM   28  O   UNL     2      -6.860   8.238  63.664  1.00  0.00    -0.078 OA 
HETATM   29  H   UNL     2      -6.431   7.965  62.862  1.00  0.00     0.000 HD 
HETATM   30  C   UNL     2      -6.891   6.320  65.811  1.00  0.00    -0.053 C  
HETATM   31  C   UNL     2      -7.733   7.442  66.475  1.00  0.00    -0.093 C  
HETATM   32  O   UNL     2      -6.920   5.070  66.483  1.00  0.00    -0.064 OA 
HETATM   33  H   UNL     2      -6.566   5.203  67.355  1.00  0.00     0.000 HD 
BRANCH  31  34
HETATM   34  C   UNL     2      -8.469   7.036  67.771  1.00  0.00    -0.120 C  
BRANCH  34  35
HETATM   35  C   UNL     2      -9.934   7.407  67.788  1.00  0.00    -0.208 C  
HETATM   36  C   UNL     2     -10.740   7.588  68.845  1.00  0.00    -0.135 C  
BRANCH  36  37
HETATM   37  C   UNL     2     -10.386   7.469  70.300  1.00  0.00    -0.215 C  
BRANCH  37  38
HETATM   38  C   UNL     2     -11.313   6.530  71.074  1.00  0.00    -0.378 C  
BRANCH  38  39
HETATM   39  C   UNL     2     -10.598   5.483  71.915  1.00  0.00    -0.293 C  
HETATM   40  C   UNL     2     -10.248   4.147  71.259  1.00  0.00     0.003 C  
HETATM   41  O   UNL     2     -10.134   3.183  72.066  1.00  0.00    -0.166 OA 
HETATM   42  O   UNL     2     -10.037   4.096  70.003  1.00  0.00    -0.159 OA 
ENDBRANCH  38  39
ENDBRANCH  37  38
ENDBRANCH  36  37
ENDBRANCH  34  35
ENDBRANCH  31  34
ENDBRANCH  24  25
ENDBRANCH  17  18
ENDBRANCH  16  17
ENDBRANCH   6  16
TORSDOF 9
ENDMDL
MODEL      254
REMARK 921   NORMALIZED FREE ENERGY PREDICTED BY IDOCK:   -3.86 KCAL/MOL
REMARK 922        TOTAL FREE ENERGY PREDICTED BY IDOCK:   -7.82 KCAL/MOL
REMARK 923 INTER-LIGAND FREE ENERGY PREDICTED BY IDOCK:   -6.81 KCAL/MOL
REMARK 924 INTRA-LIGAND FREE ENERGY PREDICTED BY IDOCK:   -1.01 KCAL/MOL
REMARK 927      BINDING AFFINITY PREDICTED BY RF-SCORE:    0.00 PKD
ROOT
HETATM    1  O   UNL     1      -9.449   7.499  72.563  1.00  0.00    -0.145 OA 
HETATM    2  C   UNL     1      -9.458   8.370  71.436  1.00  0.00    -0.192 C  
HETATM    3  H   UNL     1      -8.611   7.508  73.009  1.00  0.00     0.000 HD 
HETATM    4  C   UNL     2     -13.593  15.819  72.647  1.00  0.00    -0.630 C  
HETATM    5  C   UNL     1     -10.833   8.355  70.706  1.00  0.00    -0.224 C  
HETATM    6  C   UNL     2     -14.298  14.517  72.298  1.00  0.00    -0.506 C  
HETATM    7  C   UNL     1     -11.951   8.717  71.722  1.00  0.00    -0.349 C  
HETATM    8  N   UNL     1     -10.755   9.411  69.649  1.00  0.00    -0.230 NA 
HETATM    9  C   UNL     1     -11.135   7.080  69.935  1.00  0.00    -0.264 C  
HETATM   10  H   UNL     1     -10.479   6.249  68.290  1.00  0.00     0.000 HD 
HETATM   11  H   UNL     1     -12.378  10.211  72.945  1.00  0.00     0.000 HD 
HETATM   12  H2  UNL     1      -9.960   9.298  69.019  1.00  0.00     0.000 HD 
HETATM   13  O   UNL     1     -11.695   9.990  72.324  1.00  0.00     0.428 OA 
HETATM   14  O   UNL     1     -10.290   7.046  68.772  1.00  0.00    -0.174 OA 
HETATM   15  H1  UNL     1     -11.656   9.402  69.170  1.00  0.00     0.000 HD 
ENDROOT
BRANCH   6  16
HETATM   16  C   UNL     2     -13.616  13.729  71.179  1.00  0.00    -0.091 C  
BRANCH  16  17
HETATM   17  C   UNL     2     -12.088  13.671  71.264  1.00  0.00    -0.128 C  
BRANCH  17  18
HETATM   18  C   UNL     2     -11.371  15.010  70.974  1.00  0.00    -0.316 C  
HETATM   19  C   UNL     2     -11.520  15.636  69.569  1.00  0.00    -0.344 C  
HETATM   20  C   UNL     2     -10.930  17.048  69.432  1.00  0.00     0.031 C  
HETATM   21  O   UNL     2     -12.922  15.752  69.305  1.00  0.00    -0.207 OA 
HETATM   22  C   UNL     2     -10.914  14.733  68.532  1.00  0.00    -0.265 C  
HETATM   23  H   UNL     2     -13.014  16.136  68.441  1.00  0.00     0.000 HD 
HETATM   24  C   UNL     2      -9.608  14.515  68.299  1.00  0.00    -0.212 C  
BRANCH  24  25
HETATM   25  C   UNL     2      -9.052  13.568  67.259  1.00  0.00    -0.225 C  
HETATM   26  C   UNL     2      -8.405  12.271  67.797  1.00  0.00    -0.162 C  
HETATM   27  C   UNL     2      -8.237  11.454  66.540  1.00  0.00    -0.152 C  
HETATM   28  O   UNL     2      -9.235  11.490  68.652  1.00  0.00    -0.250 OA 
HETATM   29  H   UNL     2      -8.838  10.693  68.983  1.00  0.00     0.000 HD 
HETATM   30  C   UNL     2      -9.555  11.667  65.796  1.00  0.00    -0.232 C  
HETATM   31  C   UNL     2     -10.071  13.077  66.187  1.00  0.00    -0.287 C  
HETATM   32  O   UNL     2      -9.303  11.481  64.412  1.00  0.00    -0.396 OA 
HETATM   33  H   UNL     2     -10.122  11.613  63.949  1.00  0.00     0.000 HD 
BRANCH  31  34
HETATM   34  C   UNL     2     -10.244  14.065  65.012  1.00  0.00    -0.395 C  
BRANCH  34  35
HETATM   35  C   UNL     2     -11.008  15.319  65.372  1.00  0.00    -0.380 C  
HETATM   36  C   UNL     2     -10.544  16.571  65.510  1.00  0.00    -0.310 C  
BRANCH  36  37
HETATM   37  C   UNL     2      -9.131  17.051  65.338  1.00  0.00     1.025 C  
BRANCH  37  38
HETATM   38  C   UNL     2      -8.331  17.059  66.642  1.00  0.00    -0.285 C  
BRANCH  38  39
HETATM   39  C   UNL     2      -8.249  18.414  67.328  1.00  0.00    -0.246 C  
HETATM   40  C   UNL     2      -7.730  18.464  68.766  1.00  0.00    -0.267 C  
HETATM   41  O   UNL     2      -8.137  19.456  69.433  1.00  0.00    -0.189 OA 
HETATM   42  O   UNL     2      -6.906  17.580  69.171  1.00  0.00    -0.244 OA 
ENDBRANCH  38  39
ENDBRANCH  37  38
ENDBRANCH  36  37
ENDBRANCH  34  35
ENDBRANCH  31  34
ENDBRANCH  24  25
ENDBRANCH  17  18
ENDBRANCH  16  17
ENDBRANCH   6  16
TORSDOF 9
ENDMDL
MODEL      255
REMARK 921   NORMALIZED FREE ENERGY PREDICTED BY IDOCK:   -3.84 KCAL/MOL
REMARK 922        TOTAL FREE ENERGY PREDICTED BY IDOCK:   -7.78 KCAL/MOL
REMARK 923 INTER-LIGAND FREE ENERGY PREDICTED BY IDOCK:   -7.53 KCAL/MOL
REMARK 924 INTRA-LIGAND FREE ENERGY PREDICTED BY IDOCK:   -0.25 KCAL/MOL
REMARK 927      BINDING AFFINITY PREDICTED BY RF-SCORE:    0.00 PKD
ROOT
HETATM    1  O   UNL     1      -5.502   7.339  69.737  1.00  0.00    -0.022 OA 
HETATM    2  C   UNL     1      -6.781   7.610  70.301  1.00  0.00    -0.046 C  
HETATM    3  H   UNL     1      -5.479   6.492  69.307  1.00  0.00     0.000 HD 
HETATM    4  C   UNL     2     -11.624  13.131  65.817  1.00  0.00    -0.383 C  
HETATM    5  C   UNL     1      -6.819   8.998  71.005  1.00  0.00    -0.092 C  
HETATM    6  C   UNL     2     -10.532  13.568  66.781  1.00  0.00    -0.273 C  
HETATM    7  C   UNL     1      -6.394  10.094  69.989  1.00  0.00    -0.088 C  
HETATM    8  N   UNL     1      -8.241   9.219  71.416  1.00  0.00    -0.310 NA 
HETATM    9  C   UNL     1      -6.040   9.077  72.309  1.00  0.00    -0.014 C  
HETATM   10  H   UNL     1      -6.268   8.375  74.121  1.00  0.00     0.000 HD 
HETATM   11  H   UNL     1      -6.983  10.741  68.216  1.00  0.00     0.000 HD 
HETATM   12  H2  UNL     1      -8.621   8.464  71.988  1.00  0.00     0.000 HD 
HETATM   13  O   UNL     1      -7.242  10.071  68.837  1.00  0.00    -0.072 OA 
HETATM   14  O   UNL     1      -6.755   8.326  73.306  1.00  0.00    -0.109 OA 
HETATM   15  H1  UNL     1      -8.266  10.128  71.877  1.00  0.00     0.000 HD 
ENDROOT
BRANCH   6  16
HETATM   16  C   UNL     2     -10.549  12.814  68.112  1.00  0.00    -0.242 C  
BRANCH  16  17
HETATM   17  C   UNL     2     -11.901  12.797  68.831  1.00  0.00    -0.351 C  
BRANCH  17  18
HETATM   18  C   UNL     2     -11.936  13.577  70.166  1.00  0.00    -0.399 C  
HETATM   19  C   UNL     2     -11.848  15.120  70.120  1.00  0.00    -0.313 C  
HETATM   20  C   UNL     2     -12.077  15.813  71.470  1.00  0.00    -0.517 C  
HETATM   21  O   UNL     2     -12.886  15.576  69.245  1.00  0.00    -0.380 OA 
HETATM   22  C   UNL     2     -10.525  15.547  69.550  1.00  0.00    -0.263 C  
HETATM   23  H   UNL     2     -12.832  16.523  69.217  1.00  0.00     0.000 HD 
HETATM   24  C   UNL     2      -9.322  15.493  70.147  1.00  0.00     0.356 C  
BRANCH  24  25
HETATM   25  C   UNL     2      -8.013  15.909  69.514  1.00  0.00    -0.098 C  
HETATM   26  C   UNL     2      -6.737  15.261  70.101  1.00  0.00    -0.037 C  
HETATM   27  C   UNL     2      -5.689  15.646  69.086  1.00  0.00    -0.106 C  
HETATM   28  O   UNL     2      -6.739  13.837  70.128  1.00  0.00    -0.373 OA 
HETATM   29  H   UNL     2      -5.956  13.439  70.489  1.00  0.00     0.000 HD 
HETATM   30  C   UNL     2      -6.387  15.417  67.746  1.00  0.00    -0.161 C  
HETATM   31  C   UNL     2      -7.902  15.660  67.979  1.00  0.00    -0.135 C  
HETATM   32  O   UNL     2      -5.779  16.273  66.792  1.00  0.00    -0.334 OA 
HETATM   33  H   UNL     2      -6.214  16.131  65.959  1.00  0.00     0.000 HD 
BRANCH  31  34
HETATM   34  C   UNL     2      -8.526  16.791  67.131  1.00  0.00    -0.208 C  
BRANCH  34  35
HETATM   35  C   UNL     2      -9.880  17.251  67.621  1.00  0.00    -0.279 C  
HETATM   36  C   UNL     2     -10.246  18.469  68.048  1.00  0.00    -0.415 C  
BRANCH  36  37
HETATM   37  C   UNL     2      -9.394  19.702  68.145  1.00  0.00    -0.433 C  
BRANCH  37  38
HETATM   38  C   UNL     2      -8.674  20.045  66.840  1.00  0.00    -0.417 C  
BRANCH  38  39
HETATM   39  C   UNL     2      -7.373  20.814  67.017  1.00  0.00    -0.354 C  
HETATM   40  C   UNL     2      -6.204  20.105  67.702  1.00  0.00    -0.217 C  
HETATM   41  O   UNL     2      -5.378  20.881  68.260  1.00  0.00    -0.258 OA 
HETATM   42  O   UNL     2      -6.099  18.838  67.621  1.00  0.00    -0.188 OA 
ENDBRANCH  38  39
ENDBRANCH  37  38
ENDBRANCH  36  37
ENDBRANCH  34  35
ENDBRANCH  31  34
ENDBRANCH  24  25
ENDBRANCH  17  18
ENDBRANCH  16  17
ENDBRANCH   6  16
TORSDOF 9
ENDMDL
MODEL      256
REMARK 921   NORMALIZED FREE ENERGY PREDICTED BY IDOCK:   -3.83 KCAL/MOL
REMARK 922        TOTAL FREE ENERGY PREDICTED BY IDOCK:   -7.77 KCAL/MOL
REMARK 923 INTER-LIGAND FREE ENERGY PREDICTED BY IDOCK:   -5.98 KCAL/MOL
REMARK 924 INTRA-LIGAND FREE ENERGY PREDICTED BY IDOCK:   -1.79 KCAL/MOL
REMARK 927      BINDING AFFINITY PREDICTED BY RF-SCORE:    0.00 PKD
ROOT
HETATM    1  O   UNL     1     -11.266  15.586  66.440  1.00  0.00    -0.240 OA 
HETATM    2  C   UNL     1     -10.409  14.494  66.757  1.00  0.00    -0.269 C  
HETATM    3  H   UNL     1     -11.558  15.555  65.537  1.00  0.00     0.000 HD 
HETATM    4  C   UNL     2     -14.092   8.204  71.331  1.00  0.00    -0.396 C  
HETATM    5  C   UNL     1      -9.932  14.545  68.237  1.00  0.00    -0.229 C  
HETATM    6  C   UNL     2     -13.549   9.482  71.952  1.00  0.00    -0.468 C  
HETATM    7  C   UNL     1     -11.173  14.591  69.170  1.00  0.00    -0.269 C  
HETATM    8  N   UNL     1      -9.172  13.277  68.475  1.00  0.00    -0.355 NA 
HETATM    9  C   UNL     1      -8.927  15.643  68.549  1.00  0.00    -0.192 C  
HETATM   10  H   UNL     1      -7.043  15.974  68.139  1.00  0.00     0.000 HD 
HETATM   11  H   UNL     1     -12.782  13.492  69.506  1.00  0.00     0.000 HD 
HETATM   12  H2  UNL     1      -8.414  13.127  67.809  1.00  0.00     0.000 HD 
HETATM   13  O   UNL     1     -12.024  13.464  68.936  1.00  0.00    -0.330 OA 
HETATM   14  O   UNL     1      -7.671  15.288  67.945  1.00  0.00    -0.120 OA 
HETATM   15  H1  UNL     1      -8.860  13.311  69.445  1.00  0.00     0.000 HD 
ENDROOT
BRANCH   6  16
HETATM   16  C   UNL     2     -12.173   9.888  71.420  1.00  0.00    -0.499 C  
BRANCH  16  17
HETATM   17  C   UNL     2     -11.160   8.746  71.306  1.00  0.00    -0.348 C  
BRANCH  17  18
HETATM   18  C   UNL     2      -9.682   9.169  71.481  1.00  0.00    -0.313 C  
HETATM   19  C   UNL     2      -8.803   9.309  70.217  1.00  0.00    -0.224 C  
HETATM   20  C   UNL     2      -7.412   9.909  70.470  1.00  0.00    -0.057 C  
HETATM   21  O   UNL     2      -9.479  10.206  69.329  1.00  0.00    -0.195 OA 
HETATM   22  C   UNL     2      -8.662   7.978  69.533  1.00  0.00    -0.136 C  
HETATM   23  H   UNL     2      -8.939  10.291  68.553  1.00  0.00     0.000 HD 
HETATM   24  C   UNL     2      -7.927   6.927  69.932  1.00  0.00    -0.120 C  
BRANCH  24  25
HETATM   25  C   UNL     2      -7.845   5.596  69.219  1.00  0.00    -0.089 C  
HETATM   26  C   UNL     2      -8.980   4.591  69.523  1.00  0.00    -0.094 C  
HETATM   27  C   UNL     2      -8.765   3.538  68.464  1.00  0.00    -0.137 C  
HETATM   28  O   UNL     2     -10.299   5.085  69.309  1.00  0.00    -0.213 OA 
HETATM   29  H   UNL     2     -10.997   4.468  69.495  1.00  0.00     0.000 HD 
HETATM   30  C   UNL     2      -8.477   4.352  67.203  1.00  0.00    -0.104 C  
HETATM   31  C   UNL     2      -7.802   5.671  67.663  1.00  0.00    -0.097 C  
HETATM   32  O   UNL     2      -7.693   3.544  66.339  1.00  0.00    -0.082 OA 
HETATM   33  H   UNL     2      -7.514   4.051  65.555  1.00  0.00     0.000 HD 
BRANCH  31  34
HETATM   34  C   UNL     2      -6.382   5.915  67.104  1.00  0.00    -0.038 C  
BRANCH  34  35
HETATM   35  C   UNL     2      -5.842   7.300  67.380  1.00  0.00    -0.030 C  
HETATM   36  C   UNL     2      -6.042   8.430  66.685  1.00  0.00    -0.053 C  
BRANCH  36  37
HETATM   37  C   UNL     2      -6.864   8.610  65.441  1.00  0.00    -0.071 C  
BRANCH  37  38
HETATM   38  C   UNL     2      -6.784   7.419  64.484  1.00  0.00    -0.043 C  
BRANCH  38  39
HETATM   39  C   UNL     2      -8.131   6.888  64.017  1.00  0.00    -0.008 C  
HETATM   40  C   UNL     2      -8.158   5.561  63.258  1.00  0.00    -0.103 C  
HETATM   41  O   UNL     2      -9.149   5.420  62.489  1.00  0.00    -0.007 OA 
HETATM   42  O   UNL     2      -7.258   4.687  63.481  1.00  0.00    -0.047 OA 
ENDBRANCH  38  39
ENDBRANCH  37  38
ENDBRANCH  36  37
ENDBRANCH  34  35
ENDBRANCH  31  34
ENDBRANCH  24  25
ENDBRANCH  17  18
ENDBRANCH  16  17
ENDBRANCH   6  16
TORSDOF 9
ENDMDL
MODEL      257
REMARK 921   NORMALIZED FREE ENERGY PREDICTED BY IDOCK:   -3.82 KCAL/MOL
REMARK 922        TOTAL FREE ENERGY PREDICTED BY IDOCK:   -7.75 KCAL/MOL
REMARK 923 INTER-LIGAND FREE ENERGY PREDICTED BY IDOCK:   -6.13 KCAL/MOL
REMARK 924 INTRA-LIGAND FREE ENERGY PREDICTED BY IDOCK:   -1.62 KCAL/MOL
REMARK 927      BINDING AFFINITY PREDICTED BY RF-SCORE:    0.00 PKD
ROOT
HETATM    1  O   UNL     1     -10.547   6.651  71.909  1.00  0.00    -0.208 OA 
HETATM    2  C   UNL     1     -11.169   7.132  70.722  1.00  0.00    -0.279 C  
HETATM    3  H   UNL     1     -10.509   5.701  71.927  1.00  0.00     0.000 HD 
HETATM    4  C   UNL     2      -5.755  10.258  64.808  1.00  0.00    -0.130 C  
HETATM    5  C   UNL     1     -11.231   8.687  70.694  1.00  0.00    -0.252 C  
HETATM    6  C   UNL     2      -6.240  11.060  66.007  1.00  0.00    -0.075 C  
HETATM    7  C   UNL     1      -9.795   9.256  70.863  1.00  0.00    -0.293 C  
HETATM    8  N   UNL     1     -11.762   9.059  69.345  1.00  0.00    -0.037 NA 
HETATM    9  C   UNL     1     -12.223   9.307  71.667  1.00  0.00    -0.370 C  
HETATM   10  H   UNL     1     -14.171   9.431  71.790  1.00  0.00     0.000 HD 
HETATM   11  H   UNL     1      -8.051   9.099  69.946  1.00  0.00     0.000 HD 
HETATM   12  H2  UNL     1     -12.653   8.614  69.122  1.00  0.00     0.000 HD 
HETATM   13  O   UNL     1      -8.928   8.751  69.843  1.00  0.00    -0.143 OA 
HETATM   14  O   UNL     1     -13.551   9.044  71.183  1.00  0.00    -0.237 OA 
HETATM   15  H1  UNL     1     -11.803  10.078  69.326  1.00  0.00     0.000 HD 
ENDROOT
BRANCH   6  16
HETATM   16  C   UNL     2      -7.743  10.935  66.264  1.00  0.00    -0.147 C  
BRANCH  16  17
HETATM   17  C   UNL     2      -8.546  10.303  65.123  1.00  0.00    -0.181 C  
BRANCH  17  18
HETATM   18  C   UNL     2     -10.074  10.527  65.203  1.00  0.00    -0.383 C  
HETATM   19  C   UNL     2     -10.744  11.418  64.132  1.00  0.00    -0.371 C  
HETATM   20  C   UNL     2     -12.279  11.432  64.183  1.00  0.00     0.269 C  
HETATM   21  O   UNL     2     -10.383  10.885  62.853  1.00  0.00    -0.725 OA 
HETATM   22  C   UNL     2     -10.222  12.824  64.227  1.00  0.00    -0.352 C  
HETATM   23  H   UNL     2     -10.794  11.433  62.196  1.00  0.00     0.000 HD 
HETATM   24  C   UNL     2     -10.504  13.740  65.169  1.00  0.00    -0.399 C  
BRANCH  24  25
HETATM   25  C   UNL     2      -9.925  15.136  65.233  1.00  0.00    -0.325 C  
HETATM   26  C   UNL     2     -10.861  16.281  64.782  1.00  0.00    -0.224 C  
HETATM   27  C   UNL     2     -10.108  17.506  65.240  1.00  0.00     0.593 C  
HETATM   28  O   UNL     2     -12.119  16.334  65.448  1.00  0.00     0.997 OA 
HETATM   29  H   UNL     2     -12.694  17.037  65.172  1.00  0.00     0.000 HD 
HETATM   30  C   UNL     2      -9.616  17.123  66.635  1.00  0.00    -0.267 C  
HETATM   31  C   UNL     2      -9.412  15.585  66.635  1.00  0.00    -0.281 C  
HETATM   32  O   UNL     2      -8.450  17.885  66.904  1.00  0.00    -0.230 OA 
HETATM   33  H   UNL     2      -8.144  17.646  67.772  1.00  0.00     0.000 HD 
BRANCH  31  34
HETATM   34  C   UNL     2      -7.973  15.110  66.938  1.00  0.00    -0.155 C  
BRANCH  34  35
HETATM   35  C   UNL     2      -7.853  14.277  68.193  1.00  0.00    -0.139 C  
HETATM   36  C   UNL     2      -8.831  13.754  68.948  1.00  0.00     0.145 C  
BRANCH  36  37
HETATM   37  C   UNL     2     -10.314  13.862  68.733  1.00  0.00    -0.210 C  
BRANCH  37  38
HETATM   38  C   UNL     2     -10.971  14.952  69.582  1.00  0.00    -0.294 C  
BRANCH  38  39
HETATM   39  C   UNL     2     -12.383  14.628  70.048  1.00  0.00    -0.365 C  
HETATM   40  C   UNL     2     -12.699  14.765  71.538  1.00  0.00    -0.330 C  
HETATM   41  O   UNL     2     -13.655  14.042  71.937  1.00  0.00    -0.370 OA 
HETATM   42  O   UNL     2     -12.055  15.605  72.246  1.00  0.00    -0.364 OA 
ENDBRANCH  38  39
ENDBRANCH  37  38
ENDBRANCH  36  37
ENDBRANCH  34  35
ENDBRANCH  31  34
ENDBRANCH  24  25
ENDBRANCH  17  18
ENDBRANCH  16  17
ENDBRANCH   6  16
TORSDOF 9
ENDMDL
MODEL      258
REMARK 921   NORMALIZED FREE ENERGY PREDICTED BY IDOCK:   -3.81 KCAL/MOL
REMARK 922        TOTAL FREE ENERGY PREDICTED BY IDOCK:   -7.74 KCAL/MOL
REMARK 923 INTER-LIGAND FREE ENERGY PREDICTED BY IDOCK:   -5.67 KCAL/MOL
REMARK 924 INTRA-LIGAND FREE ENERGY PREDICTED BY IDOCK:   -2.07 KCAL/MOL
REMARK 927      BINDING AFFINITY PREDICTED BY RF-SCORE:    0.00 PKD
ROOT
HETATM    1  O   UNL     1      -7.440  20.941  68.046  1.00  0.00    -0.100 OA 
HETATM    2  C   UNL     1      -7.882  19.610  67.800  1.00  0.00    -0.290 C  
HETATM    3  H   UNL     1      -8.158  21.510  68.298  1.00  0.00     0.000 HD 
HETATM    4  C   UNL     2      -6.146  13.993  74.084  1.00  0.00     0.333 C  
HETATM    5  C   UNL     1      -6.705  18.678  67.388  1.00  0.00    -0.202 C  
HETATM    6  C   UNL     2      -5.133  14.405  73.026  1.00  0.00    -0.312 C  
HETATM    7  C   UNL     1      -5.610  18.726  68.490  1.00  0.00    -0.193 C  
HETATM    8  N   UNL     1      -7.275  17.297  67.308  1.00  0.00    -0.158 NA 
HETATM    9  C   UNL     1      -6.145  18.930  65.997  1.00  0.00    -0.182 C  
HETATM   10  H   UNL     1      -6.760  18.629  64.165  1.00  0.00     0.000 HD 
HETATM   11  H   UNL     1      -5.484  18.379  70.432  1.00  0.00     0.000 HD 
HETATM   12  H2  UNL     1      -8.084  17.226  66.690  1.00  0.00     0.000 HD 
HETATM   13  O   UNL     1      -6.153  18.350  69.759  1.00  0.00    -0.252 OA 
HETATM   14  O   UNL     1      -7.110  18.472  65.034  1.00  0.00    -0.363 OA 
HETATM   15  H1  UNL     1      -6.504  16.686  67.039  1.00  0.00     0.000 HD 
ENDROOT
BRANCH   6  16
HETATM   16  C   UNL     2      -5.703  14.430  71.606  1.00  0.00    -0.111 C  
BRANCH  16  17
HETATM   17  C   UNL     2      -5.570  13.116  70.831  1.00  0.00    -0.188 C  
BRANCH  17  18
HETATM   18  C   UNL     2      -5.792  13.237  69.305  1.00  0.00    -0.088 C  
HETATM   19  C   UNL     2      -7.242  13.229  68.770  1.00  0.00    -0.088 C  
HETATM   20  C   UNL     2      -7.372  13.539  67.272  1.00  0.00    -0.030 C  
HETATM   21  O   UNL     2      -7.954  14.260  69.463  1.00  0.00    -0.356 OA 
HETATM   22  C   UNL     2      -7.900  11.912  69.072  1.00  0.00     0.099 C  
HETATM   23  H   UNL     2      -8.844  14.255  69.135  1.00  0.00     0.000 HD 
HETATM   24  C   UNL     2      -7.671  10.728  68.479  1.00  0.00    -0.118 C  
BRANCH  24  25
HETATM   25  C   UNL     2      -8.342   9.423  68.845  1.00  0.00    -0.120 C  
HETATM   26  C   UNL     2      -7.577   8.135  68.461  1.00  0.00    -0.104 C  
HETATM   27  C   UNL     2      -8.347   7.073  69.209  1.00  0.00    -0.129 C  
HETATM   28  O   UNL     2      -6.242   8.055  68.950  1.00  0.00    -0.038 OA 
HETATM   29  H   UNL     2      -5.772   7.264  68.715  1.00  0.00     0.000 HD 
HETATM   30  C   UNL     2      -8.592   7.706  70.578  1.00  0.00    -0.137 C  
HETATM   31  C   UNL     2      -8.672   9.240  70.358  1.00  0.00    -0.263 C  
HETATM   32  O   UNL     2      -9.761   7.115  71.123  1.00  0.00    -0.169 OA 
HETATM   33  H   UNL     2      -9.913   7.509  71.974  1.00  0.00     0.000 HD 
BRANCH  31  34
HETATM   34  C   UNL     2     -10.008   9.897  70.774  1.00  0.00    -0.009 C  
BRANCH  34  35
HETATM   35  C   UNL     2     -11.073   9.854  69.702  1.00  0.00    -0.279 C  
HETATM   36  C   UNL     2     -11.846  10.853  69.249  1.00  0.00    -0.395 C  
BRANCH  36  37
HETATM   37  C   UNL     2     -11.848  12.287  69.695  1.00  0.00    -0.393 C  
BRANCH  37  38
HETATM   38  C   UNL     2     -11.390  13.261  68.608  1.00  0.00    -0.324 C  
BRANCH  38  39
HETATM   39  C   UNL     2     -11.191  12.632  67.237  1.00  0.00    -0.346 C  
HETATM   40  C   UNL     2     -12.331  12.739  66.223  1.00  0.00    -0.050 C  
HETATM   41  O   UNL     2     -12.339  11.827  65.349  1.00  0.00    -0.217 OA 
HETATM   42  O   UNL     2     -13.132  13.728  66.275  1.00  0.00    -0.099 OA 
ENDBRANCH  38  39
ENDBRANCH  37  38
ENDBRANCH  36  37
ENDBRANCH  34  35
ENDBRANCH  31  34
ENDBRANCH  24  25
ENDBRANCH  17  18
ENDBRANCH  16  17
ENDBRANCH   6  16
TORSDOF 9
ENDMDL
MODEL      259
REMARK 921   NORMALIZED FREE ENERGY PREDICTED BY IDOCK:   -3.78 KCAL/MOL
REMARK 922        TOTAL FREE ENERGY PREDICTED BY IDOCK:   -7.70 KCAL/MOL
REMARK 923 INTER-LIGAND FREE ENERGY PREDICTED BY IDOCK:   -7.30 KCAL/MOL
REMARK 924 INTRA-LIGAND FREE ENERGY PREDICTED BY IDOCK:   -0.40 KCAL/MOL
REMARK 927      BINDING AFFINITY PREDICTED BY RF-SCORE:    0.00 PKD
ROOT
HETATM    1  O   UNL     1      -6.678   6.173  64.326  1.00  0.00    -0.036 OA 
HETATM    2  C   UNL     1      -8.048   6.190  64.713  1.00  0.00    -0.132 C  
HETATM    3  H   UNL     1      -6.343   7.050  64.178  1.00  0.00     0.000 HD 
HETATM    4  C   UNL     2      -9.461   4.877  73.099  1.00  0.00    -0.144 C  
HETATM    5  C   UNL     1      -8.597   4.754  64.955  1.00  0.00    -0.145 C  
HETATM    6  C   UNL     2      -9.220   3.752  72.105  1.00  0.00    -0.169 C  
HETATM    7  C   UNL     1      -7.709   4.042  66.013  1.00  0.00    -0.090 C  
HETATM    8  N   UNL     1      -9.983   4.922  65.495  1.00  0.00    -0.352 NA 
HETATM    9  C   UNL     1      -8.788   3.920  63.697  1.00  0.00    -0.105 C  
HETATM   10  H   UNL     1     -10.034   3.926  62.189  1.00  0.00     0.000 HD 
HETATM   11  H   UNL     1      -7.126   4.362  67.875  1.00  0.00     0.000 HD 
HETATM   12  H2  UNL     1     -10.585   5.491  64.899  1.00  0.00     0.000 HD 
HETATM   13  O   UNL     1      -7.669   4.796  67.228  1.00  0.00    -0.089 OA 
HETATM   14  O   UNL     1      -9.915   4.447  62.975  1.00  0.00    -0.086 OA 
HETATM   15  H1  UNL     1     -10.343   3.981  65.654  1.00  0.00     0.000 HD 
ENDROOT
BRANCH   6  16
HETATM   16  C   UNL     2     -10.001   3.906  70.799  1.00  0.00    -0.119 C  
BRANCH  16  17
HETATM   17  C   UNL     2      -9.746   5.211  70.040  1.00  0.00    -0.275 C  
BRANCH  17  18
HETATM   18  C   UNL     2      -9.054   6.319  70.868  1.00  0.00    -0.153 C  
HETATM   19  C   UNL     2      -9.708   7.719  70.916  1.00  0.00    -0.168 C  
HETATM   20  C   UNL     2      -9.056   8.696  71.905  1.00  0.00    -0.326 C  
HETATM   21  O   UNL     2     -11.061   7.538  71.351  1.00  0.00    -0.235 OA 
HETATM   22  C   UNL     2      -9.728   8.329  69.542  1.00  0.00    -0.174 C  
HETATM   23  H   UNL     2     -11.462   8.398  71.379  1.00  0.00     0.000 HD 
HETATM   24  C   UNL     2      -8.688   8.835  68.857  1.00  0.00    -0.134 C  
BRANCH  24  25
HETATM   25  C   UNL     2      -8.759   9.411  67.461  1.00  0.00    -0.123 C  
HETATM   26  C   UNL     2      -9.796   8.767  66.511  1.00  0.00    -0.279 C  
HETATM   27  C   UNL     2      -9.814   9.736  65.355  1.00  0.00    -0.365 C  
HETATM   28  O   UNL     2     -11.132   8.734  67.004  1.00  0.00    -0.255 OA 
HETATM   29  H   UNL     2     -11.768   8.338  66.421  1.00  0.00     0.000 HD 
HETATM   30  C   UNL     2      -9.814  11.104  66.035  1.00  0.00    -0.228 C  
HETATM   31  C   UNL     2      -9.060  10.939  67.381  1.00  0.00    -0.144 C  
HETATM   32  O   UNL     2      -9.236  12.034  65.132  1.00  0.00    -0.429 OA 
HETATM   33  H   UNL     2      -9.236  12.885  65.555  1.00  0.00     0.000 HD 
BRANCH  31  34
HETATM   34  C   UNL     2      -7.799  11.818  67.543  1.00  0.00    -0.148 C  
BRANCH  34  35
HETATM   35  C   UNL     2      -7.986  12.994  68.474  1.00  0.00    -0.090 C  
HETATM   36  C   UNL     2      -8.252  14.272  68.165  1.00  0.00    -0.146 C  
BRANCH  36  37
HETATM   37  C   UNL     2      -8.436  14.867  66.798  1.00  0.00    -0.215 C  
BRANCH  37  38
HETATM   38  C   UNL     2      -9.900  15.149  66.452  1.00  0.00    -0.300 C  
BRANCH  38  39
HETATM   39  C   UNL     2     -10.547  16.246  67.284  1.00  0.00    -0.298 C  
HETATM   40  C   UNL     2     -10.484  17.681  66.759  1.00  0.00    -0.289 C  
HETATM   41  O   UNL     2     -10.564  18.568  67.654  1.00  0.00    -0.412 OA 
HETATM   42  O   UNL     2     -10.422  17.892  65.504  1.00  0.00    -0.650 OA 
ENDBRANCH  38  39
ENDBRANCH  37  38
ENDBRANCH  36  37
ENDBRANCH  34  35
ENDBRANCH  31  34
ENDBRANCH  24  25
ENDBRANCH  17  18
ENDBRANCH  16  17
ENDBRANCH   6  16
TORSDOF 9
ENDMDL
MODEL      260
REMARK 921   NORMALIZED FREE ENERGY PREDICTED BY IDOCK:   -3.77 KCAL/MOL
REMARK 922        TOTAL FREE ENERGY PREDICTED BY IDOCK:   -7.67 KCAL/MOL
REMARK 923 INTER-LIGAND FREE ENERGY PREDICTED BY IDOCK:   -7.55 KCAL/MOL
REMARK 924 INTRA-LIGAND FREE ENERGY PREDICTED BY IDOCK:   -0.12 KCAL/MOL
REMARK 927      BINDING AFFINITY PREDICTED BY RF-SCORE:    0.00 PKD
ROOT
HETATM    1  O   UNL     1      -7.853   9.773  67.601  1.00  0.00    -0.094 OA 
HETATM    2  C   UNL     1      -7.855  10.817  68.569  1.00  0.00    -0.122 C  
HETATM    3  H   UNL     1      -8.735   9.502  67.373  1.00  0.00     0.000 HD 
HETATM    4  C   UNL     2      -6.212  18.663  65.440  1.00  0.00    -0.314 C  
HETATM    5  C   UNL     1      -6.410  11.261  68.941  1.00  0.00    -0.055 C  
HETATM    6  C   UNL     2      -5.126  17.651  65.774  1.00  0.00    -0.168 C  
HETATM    7  C   UNL     1      -5.657  11.677  67.647  1.00  0.00    -0.060 C  
HETATM    8  N   UNL     1      -6.557  12.449  69.840  1.00  0.00    -0.357 NA 
HETATM    9  C   UNL     1      -5.627  10.259  69.776  1.00  0.00    -0.039 C  
HETATM   10  H   UNL     1      -5.693   9.622  71.624  1.00  0.00     0.000 HD 
HETATM   11  H   UNL     1      -5.903  12.973  66.175  1.00  0.00     0.000 HD 
HETATM   12  H2  UNL     1      -7.149  12.273  70.652  1.00  0.00     0.000 HD 
HETATM   13  O   UNL     1      -6.362  12.719  66.965  1.00  0.00    -0.219 OA 
HETATM   14  O   UNL     1      -6.182  10.248  71.102  1.00  0.00    -0.313 OA 
HETATM   15  H1  UNL     1      -5.611  12.740  70.084  1.00  0.00     0.000 HD 
ENDROOT
BRANCH   6  16
HETATM   16  C   UNL     2      -5.332  16.949  67.118  1.00  0.00    -0.185 C  
BRANCH  16  17
HETATM   17  C   UNL     2      -5.792  17.859  68.261  1.00  0.00    -0.168 C  
BRANCH  17  18
HETATM   18  C   UNL     2      -6.379  17.117  69.485  1.00  0.00    -0.230 C  
HETATM   19  C   UNL     2      -6.645  15.599  69.367  1.00  0.00    -0.166 C  
HETATM   20  C   UNL     2      -7.050  14.918  70.683  1.00  0.00     0.594 C  
HETATM   21  O   UNL     2      -5.418  14.987  68.952  1.00  0.00    -0.092 OA 
HETATM   22  C   UNL     2      -7.687  15.334  68.318  1.00  0.00    -0.112 C  
HETATM   23  H   UNL     2      -5.581  14.055  68.880  1.00  0.00     0.000 HD 
HETATM   24  C   UNL     2      -9.009  15.561  68.403  1.00  0.00    -0.189 C  
BRANCH  24  25
HETATM   25  C   UNL     2     -10.013  15.303  67.302  1.00  0.00    -0.226 C  
HETATM   26  C   UNL     2     -10.217  16.451  66.286  1.00  0.00    -0.330 C  
HETATM   27  C   UNL     2     -11.019  15.776  65.200  1.00  0.00    -0.394 C  
HETATM   28  O   UNL     2      -9.030  16.916  65.651  1.00  0.00    -0.486 OA 
HETATM   29  H   UNL     2      -9.155  17.621  65.027  1.00  0.00     0.000 HD 
HETATM   30  C   UNL     2     -10.331  14.422  65.036  1.00  0.00    -0.421 C  
HETATM   31  C   UNL     2      -9.730  14.050  66.418  1.00  0.00    -0.309 C  
HETATM   32  O   UNL     2     -11.292  13.507  64.532  1.00  0.00    -0.339 OA 
HETATM   33  H   UNL     2     -10.863  12.665  64.431  1.00  0.00     0.000 HD 
BRANCH  31  34
HETATM   34  C   UNL     2     -10.260  12.736  67.036  1.00  0.00    -0.245 C  
BRANCH  34  35
HETATM   35  C   UNL     2     -11.742  12.752  67.332  1.00  0.00    -0.425 C  
HETATM   36  C   UNL     2     -12.357  12.855  68.521  1.00  0.00     0.201 C  
BRANCH  36  37
HETATM   37  C   UNL     2     -11.721  12.985  69.875  1.00  0.00    -0.326 C  
BRANCH  37  38
HETATM   38  C   UNL     2     -12.731  12.960  71.024  1.00  0.00    -0.338 C  
BRANCH  38  39
HETATM   39  C   UNL     2     -12.447  13.953  72.140  1.00  0.00    -0.159 C  
HETATM   40  C   UNL     2     -12.908  15.399  71.953  1.00  0.00    -0.396 C  
HETATM   41  O   UNL     2     -12.247  16.248  72.615  1.00  0.00    -0.495 OA 
HETATM   42  O   UNL     2     -13.925  15.649  71.227  1.00  0.00    -0.570 OA 
ENDBRANCH  38  39
ENDBRANCH  37  38
ENDBRANCH  36  37
ENDBRANCH  34  35
ENDBRANCH  31  34
ENDBRANCH  24  25
ENDBRANCH  17  18
ENDBRANCH  16  17
ENDBRANCH   6  16
TORSDOF 9
ENDMDL
MODEL      261
REMARK 921   NORMALIZED FREE ENERGY PREDICTED BY IDOCK:   -3.75 KCAL/MOL
REMARK 922        TOTAL FREE ENERGY PREDICTED BY IDOCK:   -7.65 KCAL/MOL
REMARK 923 INTER-LIGAND FREE ENERGY PREDICTED BY IDOCK:   -5.90 KCAL/MOL
REMARK 924 INTRA-LIGAND FREE ENERGY PREDICTED BY IDOCK:   -1.75 KCAL/MOL
REMARK 927      BINDING AFFINITY PREDICTED BY RF-SCORE:    0.00 PKD
ROOT
HETATM    1  O   UNL     1      -6.289   2.570  71.552  1.00  0.00    -0.017 OA 
HETATM    2  C   UNL     1      -7.422   2.314  70.728  1.00  0.00    -0.033 C  
HETATM    3  H   UNL     1      -5.824   1.771  71.770  1.00  0.00     0.000 HD 
HETATM    4  C   UNL     2      -6.363   4.233  62.407  1.00  0.00    -0.022 C  
HETATM    5  C   UNL     1      -8.183   3.624  70.370  1.00  0.00    -0.056 C  
HETATM    6  C   UNL     2      -6.718   5.266  63.465  1.00  0.00    -0.037 C  
HETATM    7  C   UNL     1      -7.195   4.616  69.697  1.00  0.00    -0.051 C  
HETATM    8  N   UNL     1      -9.247   3.234  69.392  1.00  0.00    -0.140 NA 
HETATM    9  C   UNL     1      -8.951   4.254  71.521  1.00  0.00    -0.119 C  
HETATM   10  H   UNL     1     -10.574   3.822  72.524  1.00  0.00     0.000 HD 
HETATM   11  H   UNL     1      -5.994   4.634  68.126  1.00  0.00     0.000 HD 
HETATM   12  H2  UNL     1      -9.857   2.490  69.730  1.00  0.00     0.000 HD 
HETATM   13  O   UNL     1      -6.597   4.028  68.538  1.00  0.00    -0.043 OA 
HETATM   14  O   UNL     1     -10.094   3.429  71.805  1.00  0.00    -0.158 OA 
HETATM   15  H1  UNL     1      -9.745   4.092  69.157  1.00  0.00     0.000 HD 
ENDROOT
BRANCH   6  16
HETATM   16  C   UNL     2      -7.816   4.809  64.428  1.00  0.00    -0.085 C  
BRANCH  16  17
HETATM   17  C   UNL     2      -8.123   5.782  65.570  1.00  0.00    -0.128 C  
BRANCH  17  18
HETATM   18  C   UNL     2      -7.299   7.090  65.549  1.00  0.00    -0.079 C  
HETATM   19  C   UNL     2      -6.803   7.670  66.894  1.00  0.00    -0.068 C  
HETATM   20  C   UNL     2      -5.842   8.860  66.761  1.00  0.00    -0.052 C  
HETATM   21  O   UNL     2      -6.076   6.630  67.558  1.00  0.00    -0.028 OA 
HETATM   22  C   UNL     2      -7.973   8.057  67.754  1.00  0.00    -0.127 C  
HETATM   23  H   UNL     2      -5.772   6.986  68.384  1.00  0.00     0.000 HD 
HETATM   24  C   UNL     2      -8.789   9.113  67.597  1.00  0.00    -0.123 C  
BRANCH  24  25
HETATM   25  C   UNL     2      -9.974   9.440  68.478  1.00  0.00    -0.190 C  
HETATM   26  C   UNL     2      -9.793   9.168  69.989  1.00  0.00    -0.193 C  
HETATM   27  C   UNL     2     -10.996   9.859  70.584  1.00  0.00    -0.405 C  
HETATM   28  O   UNL     2      -8.660   9.791  70.586  1.00  0.00    -0.325 OA 
HETATM   29  H   UNL     2      -8.548   9.624  71.515  1.00  0.00     0.000 HD 
HETATM   30  C   UNL     2     -11.064  11.180  69.819  1.00  0.00    -0.202 C  
HETATM   31  C   UNL     2     -10.473  10.916  68.408  1.00  0.00    -0.206 C  
HETATM   32  O   UNL     2     -12.413  11.618  69.834  1.00  0.00    -0.174 OA 
HETATM   33  H   UNL     2     -12.455  12.439  69.358  1.00  0.00     0.000 HD 
BRANCH  31  34
HETATM   34  C   UNL     2     -11.438  11.178  67.230  1.00  0.00    -0.218 C  
BRANCH  34  35
HETATM   35  C   UNL     2     -10.905  12.152  66.205  1.00  0.00    -0.317 C  
HETATM   36  C   UNL     2     -11.178  13.459  66.071  1.00  0.00    -0.310 C  
BRANCH  36  37
HETATM   37  C   UNL     2     -12.092  14.298  66.917  1.00  0.00    -0.440 C  
BRANCH  37  38
HETATM   38  C   UNL     2     -11.422  14.836  68.182  1.00  0.00    -0.343 C  
BRANCH  38  39
HETATM   39  C   UNL     2     -12.348  15.602  69.114  1.00  0.00    -0.019 C  
HETATM   40  C   UNL     2     -12.181  15.402  70.621  1.00  0.00    -0.385 C  
HETATM   41  O   UNL     2     -13.224  15.628  71.296  1.00  0.00    -0.494 OA 
HETATM   42  O   UNL     2     -11.039  15.095  71.095  1.00  0.00    -0.311 OA 
ENDBRANCH  38  39
ENDBRANCH  37  38
ENDBRANCH  36  37
ENDBRANCH  34  35
ENDBRANCH  31  34
ENDBRANCH  24  25
ENDBRANCH  17  18
ENDBRANCH  16  17
ENDBRANCH   6  16
TORSDOF 9
ENDMDL
MODEL      262
REMARK 921   NORMALIZED FREE ENERGY PREDICTED BY IDOCK:   -3.74 KCAL/MOL
REMARK 922        TOTAL FREE ENERGY PREDICTED BY IDOCK:   -7.64 KCAL/MOL
REMARK 923 INTER-LIGAND FREE ENERGY PREDICTED BY IDOCK:   -7.31 KCAL/MOL
REMARK 924 INTRA-LIGAND FREE ENERGY PREDICTED BY IDOCK:   -0.33 KCAL/MOL
REMARK 927      BINDING AFFINITY PREDICTED BY RF-SCORE:    0.00 PKD
ROOT
HETATM    1  O   UNL     1     -10.415   5.563  72.653  1.00  0.00    -0.196 OA 
HETATM    2  C   UNL     1      -9.139   5.462  72.029  1.00  0.00    -0.137 C  
HETATM    3  H   UNL     1     -10.373   5.352  73.578  1.00  0.00     0.000 HD 
HETATM    4  C   UNL     2      -5.259  12.985  70.477  1.00  0.00    -0.126 C  
HETATM    5  C   UNL     1      -9.209   5.809  70.513  1.00  0.00    -0.147 C  
HETATM    6  C   UNL     2      -6.325  12.390  69.569  1.00  0.00    -0.116 C  
HETATM    7  C   UNL     1      -9.821   7.227  70.344  1.00  0.00    -0.183 C  
HETATM    8  N   UNL     1      -7.795   5.811  70.021  1.00  0.00    -0.090 NA 
HETATM    9  C   UNL     1      -9.901   4.767  69.649  1.00  0.00    -0.221 C  
HETATM   10  H   UNL     1      -9.473   2.967  69.013  1.00  0.00     0.000 HD 
HETATM   11  H   UNL     1      -9.431   9.064  70.962  1.00  0.00     0.000 HD 
HETATM   12  H2  UNL     1      -7.296   4.943  70.216  1.00  0.00     0.000 HD 
HETATM   13  O   UNL     1      -9.057   8.197  71.066  1.00  0.00    -0.143 OA 
HETATM   14  O   UNL     1      -9.041   3.618  69.553  1.00  0.00    -0.104 OA 
HETATM   15  H1  UNL     1      -7.841   6.038  69.027  1.00  0.00     0.000 HD 
ENDROOT
BRANCH   6  16
HETATM   16  C   UNL     2      -6.134  10.898  69.291  1.00  0.00    -0.047 C  
BRANCH  16  17
HETATM   17  C   UNL     2      -5.188  10.570  68.132  1.00  0.00    -0.033 C  
BRANCH  17  18
HETATM   18  C   UNL     2      -5.803   9.685  67.023  1.00  0.00    -0.051 C  
HETATM   19  C   UNL     2      -6.491  10.379  65.825  1.00  0.00    -0.123 C  
HETATM   20  C   UNL     2      -6.905   9.432  64.689  1.00  0.00    -0.096 C  
HETATM   21  O   UNL     2      -5.542  11.295  65.267  1.00  0.00    -0.493 OA 
HETATM   22  C   UNL     2      -7.687  11.159  66.293  1.00  0.00    -0.097 C  
HETATM   23  H   UNL     2      -5.965  11.722  64.531  1.00  0.00     0.000 HD 
HETATM   24  C   UNL     2      -8.873  10.674  66.697  1.00  0.00    -0.149 C  
BRANCH  24  25
HETATM   25  C   UNL     2     -10.036  11.505  67.189  1.00  0.00    -0.223 C  
HETATM   26  C   UNL     2     -11.325  10.729  67.543  1.00  0.00    -0.205 C  
HETATM   27  C   UNL     2     -12.144  11.778  68.256  1.00  0.00    -0.068 C  
HETATM   28  O   UNL     2     -11.157   9.671  68.483  1.00  0.00    -0.440 OA 
HETATM   29  H   UNL     2     -11.949   9.194  68.701  1.00  0.00     0.000 HD 
HETATM   30  C   UNL     2     -11.127  12.470  69.162  1.00  0.00    -0.196 C  
HETATM   31  C   UNL     2      -9.751  12.376  68.451  1.00  0.00    -0.189 C  
HETATM   32  O   UNL     2     -11.591  13.789  69.402  1.00  0.00    -0.274 OA 
HETATM   33  H   UNL     2     -10.958  14.220  69.965  1.00  0.00     0.000 HD 
BRANCH  31  34
HETATM   34  C   UNL     2      -9.086  13.731  68.118  1.00  0.00    -0.194 C  
BRANCH  34  35
HETATM   35  C   UNL     2      -9.967  14.930  68.390  1.00  0.00    -0.222 C  
HETATM   36  C   UNL     2     -10.239  15.969  67.585  1.00  0.00    -0.262 C  
BRANCH  36  37
HETATM   37  C   UNL     2      -9.733  16.207  66.191  1.00  0.00    -0.352 C  
BRANCH  37  38
HETATM   38  C   UNL     2     -10.705  15.737  65.106  1.00  0.00    -0.455 C  
BRANCH  38  39
HETATM   39  C   UNL     2     -10.539  14.282  64.694  1.00  0.00    -0.364 C  
HETATM   40  C   UNL     2     -11.802  13.444  64.486  1.00  0.00    -0.398 C  
HETATM   41  O   UNL     2     -11.636  12.202  64.644  1.00  0.00    -0.331 OA 
HETATM   42  O   UNL     2     -12.883  14.010  64.120  1.00  0.00    -0.581 OA 
ENDBRANCH  38  39
ENDBRANCH  37  38
ENDBRANCH  36  37
ENDBRANCH  34  35
ENDBRANCH  31  34
ENDBRANCH  24  25
ENDBRANCH  17  18
ENDBRANCH  16  17
ENDBRANCH   6  16
TORSDOF 9
ENDMDL
MODEL      263
REMARK 921   NORMALIZED FREE ENERGY PREDICTED BY IDOCK:   -3.74 KCAL/MOL
REMARK 922        TOTAL FREE ENERGY PREDICTED BY IDOCK:   -7.64 KCAL/MOL
REMARK 923 INTER-LIGAND FREE ENERGY PREDICTED BY IDOCK:   -7.61 KCAL/MOL
REMARK 924 INTRA-LIGAND FREE ENERGY PREDICTED BY IDOCK:   -0.02 KCAL/MOL
REMARK 927      BINDING AFFINITY PREDICTED BY RF-SCORE:    0.00 PKD
ROOT
HETATM    1  O   UNL     1     -11.025   6.791  73.717  1.00  0.00    -0.499 OA 
HETATM    2  C   UNL     1     -11.804   6.655  72.533  1.00  0.00    -0.113 C  
HETATM    3  H   UNL     1     -11.121   6.040  74.290  1.00  0.00     0.000 HD 
HETATM    4  C   UNL     2      -7.346   4.518  65.489  1.00  0.00    -0.080 C  
HETATM    5  C   UNL     1     -11.647   7.886  71.593  1.00  0.00    -0.272 C  
HETATM    6  C   UNL     2      -7.450   5.942  66.014  1.00  0.00    -0.085 C  
HETATM    7  C   UNL     1     -10.141   8.089  71.271  1.00  0.00    -0.185 C  
HETATM    8  N   UNL     1     -12.388   7.549  70.336  1.00  0.00    -0.445 NA 
HETATM    9  C   UNL     1     -12.315   9.159  72.088  1.00  0.00    -0.354 C  
HETATM   10  H   UNL     1     -14.156   9.791  72.276  1.00  0.00     0.000 HD 
HETATM   11  H   UNL     1      -8.666   7.033  70.484  1.00  0.00     0.000 HD 
HETATM   12  H2  UNL     1     -13.359   7.283  70.497  1.00  0.00     0.000 HD 
HETATM   13  O   UNL     1      -9.586   6.909  70.681  1.00  0.00    -0.169 OA 
HETATM   14  O   UNL     1     -13.739   8.996  71.967  1.00  0.00    -0.407 OA 
HETATM   15  H1  UNL     1     -12.284   8.355  69.720  1.00  0.00     0.000 HD 
ENDROOT
BRANCH   6  16
HETATM   16  C   UNL     2      -8.869   6.345  66.420  1.00  0.00    -0.146 C  
BRANCH  16  17
HETATM   17  C   UNL     2      -9.259   7.784  66.070  1.00  0.00    -0.139 C  
BRANCH  17  18
HETATM   18  C   UNL     2      -8.506   8.386  64.861  1.00  0.00    -0.141 C  
HETATM   19  C   UNL     2      -7.708   9.694  65.068  1.00  0.00    -0.119 C  
HETATM   20  C   UNL     2      -6.846  10.113  63.868  1.00  0.00    -0.106 C  
HETATM   21  O   UNL     2      -6.808   9.471  66.159  1.00  0.00    -0.086 OA 
HETATM   22  C   UNL     2      -8.637  10.815  65.440  1.00  0.00    -0.162 C  
HETATM   23  H   UNL     2      -6.318  10.274  66.287  1.00  0.00     0.000 HD 
HETATM   24  C   UNL     2      -9.498  11.464  64.638  1.00  0.00    -0.171 C  
BRANCH  24  25
HETATM   25  C   UNL     2     -10.435  12.569  65.072  1.00  0.00    -0.323 C  
HETATM   26  C   UNL     2     -11.003  13.461  63.945  1.00  0.00    -0.097 C  
HETATM   27  C   UNL     2     -12.087  14.229  64.662  1.00  0.00    -0.478 C  
HETATM   28  O   UNL     2     -11.662  12.762  62.893  1.00  0.00    -0.762 OA 
HETATM   29  H   UNL     2     -12.011  13.309  62.200  1.00  0.00     0.000 HD 
HETATM   30  C   UNL     2     -12.771  13.165  65.520  1.00  0.00    -0.304 C  
HETATM   31  C   UNL     2     -11.692  12.105  65.870  1.00  0.00    -0.393 C  
HETATM   32  O   UNL     2     -13.354  13.821  66.635  1.00  0.00     0.335 OA 
HETATM   33  H   UNL     2     -13.779  13.159  67.168  1.00  0.00     0.000 HD 
BRANCH  31  34
HETATM   34  C   UNL     2     -11.420  11.915  67.379  1.00  0.00    -0.393 C  
BRANCH  34  35
HETATM   35  C   UNL     2     -11.785  13.113  68.225  1.00  0.00    -0.384 C  
HETATM   36  C   UNL     2     -11.013  14.152  68.581  1.00  0.00    -0.275 C  
BRANCH  36  37
HETATM   37  C   UNL     2      -9.575  14.393  68.222  1.00  0.00    -0.211 C  
BRANCH  37  38
HETATM   38  C   UNL     2      -8.747  13.109  68.145  1.00  0.00    -0.193 C  
BRANCH  38  39
HETATM   39  C   UNL     2      -7.599  13.153  67.148  1.00  0.00    -0.008 C  
HETATM   40  C   UNL     2      -6.201  12.777  67.641  1.00  0.00    -0.153 C  
HETATM   41  O   UNL     2      -5.258  13.289  66.975  1.00  0.00    -0.243 OA 
HETATM   42  O   UNL     2      -6.071  11.958  68.608  1.00  0.00    -0.050 OA 
ENDBRANCH  38  39
ENDBRANCH  37  38
ENDBRANCH  36  37
ENDBRANCH  34  35
ENDBRANCH  31  34
ENDBRANCH  24  25
ENDBRANCH  17  18
ENDBRANCH  16  17
ENDBRANCH   6  16
TORSDOF 9
ENDMDL
MODEL      264
REMARK 921   NORMALIZED FREE ENERGY PREDICTED BY IDOCK:   -3.72 KCAL/MOL
REMARK 922        TOTAL FREE ENERGY PREDICTED BY IDOCK:   -7.61 KCAL/MOL
REMARK 923 INTER-LIGAND FREE ENERGY PREDICTED BY IDOCK:   -6.95 KCAL/MOL
REMARK 924 INTRA-LIGAND FREE ENERGY PREDICTED BY IDOCK:   -0.66 KCAL/MOL
REMARK 927      BINDING AFFINITY PREDICTED BY RF-SCORE:    0.00 PKD
ROOT
HETATM    1  O   UNL     1      -5.356   8.248  63.949  1.00  0.00    -0.047 OA 
HETATM    2  C   UNL     1      -6.380   8.399  62.971  1.00  0.00    -0.086 C  
HETATM    3  H   UNL     1      -4.508   8.517  63.615  1.00  0.00     0.000 HD 
HETATM    4  C   UNL     2     -11.482  15.237  64.096  1.00  0.00    -0.017 C  
HETATM    5  C   UNL     1      -7.769   7.958  63.518  1.00  0.00    -0.136 C  
HETATM    6  C   UNL     2     -11.668  13.923  64.840  1.00  0.00    -0.378 C  
HETATM    7  C   UNL     1      -8.084   8.762  64.810  1.00  0.00    -0.151 C  
HETATM    8  N   UNL     1      -8.765   8.306  62.456  1.00  0.00    -0.431 NA 
HETATM    9  C   UNL     1      -7.937   6.459  63.707  1.00  0.00    -0.086 C  
HETATM   10  H   UNL     1      -8.135   4.913  62.526  1.00  0.00     0.000 HD 
HETATM   11  H   UNL     1      -8.240  10.660  65.342  1.00  0.00     0.000 HD 
HETATM   12  H2  UNL     1      -8.543   7.907  61.544  1.00  0.00     0.000 HD 
HETATM   13  O   UNL     1      -8.048  10.169  64.553  1.00  0.00    -0.154 OA 
HETATM   14  O   UNL     1      -8.031   5.850  62.408  1.00  0.00    -0.083 OA 
HETATM   15  H1  UNL     1      -9.675   8.018  62.815  1.00  0.00     0.000 HD 
ENDROOT
BRANCH   6  16
HETATM   16  C   UNL     2     -11.550  12.688  63.944  1.00  0.00    -0.521 C  
BRANCH  16  17
HETATM   17  C   UNL     2     -11.549  11.347  64.685  1.00  0.00    -0.014 C  
BRANCH  17  18
HETATM   18  C   UNL     2     -10.334  11.121  65.614  1.00  0.00    -0.311 C  
HETATM   19  C   UNL     2     -10.596  10.834  67.111  1.00  0.00    -0.256 C  
HETATM   20  C   UNL     2      -9.347  10.440  67.914  1.00  0.00    -0.147 C  
HETATM   21  O   UNL     2     -11.491   9.718  67.176  1.00  0.00    -0.149 OA 
HETATM   22  C   UNL     2     -11.261  12.016  67.757  1.00  0.00    -0.331 C  
HETATM   23  H   UNL     2     -11.653   9.542  68.095  1.00  0.00     0.000 HD 
HETATM   24  C   UNL     2     -10.701  13.195  68.079  1.00  0.00    -0.248 C  
BRANCH  24  25
HETATM   25  C   UNL     2     -11.427  14.366  68.702  1.00  0.00    -0.316 C  
HETATM   26  C   UNL     2     -12.258  14.054  69.969  1.00  0.00    -0.352 C  
HETATM   27  C   UNL     2     -12.585  15.435  70.482  1.00  0.00    -0.471 C  
HETATM   28  O   UNL     2     -11.541  13.414  71.021  1.00  0.00    -0.289 OA 
HETATM   29  H   UNL     2     -12.052  13.223  71.799  1.00  0.00     0.000 HD 
HETATM   30  C   UNL     2     -11.269  16.196  70.326  1.00  0.00    -0.381 C  
HETATM   31  C   UNL     2     -10.525  15.568  69.118  1.00  0.00    -0.232 C  
HETATM   32  O   UNL     2     -11.581  17.574  70.191  1.00  0.00     1.136 OA 
HETATM   33  H   UNL     2     -10.763  18.046  70.094  1.00  0.00     0.000 HD 
BRANCH  31  34
HETATM   34  C   UNL     2     -10.226  16.537  67.952  1.00  0.00    -0.273 C  
BRANCH  34  35
HETATM   35  C   UNL     2      -8.867  16.338  67.321  1.00  0.00    -0.204 C  
HETATM   36  C   UNL     2      -7.687  16.859  67.692  1.00  0.00    -0.179 C  
BRANCH  36  37
HETATM   37  C   UNL     2      -7.413  17.782  68.845  1.00  0.00    -0.235 C  
BRANCH  37  38
HETATM   38  C   UNL     2      -7.817  19.232  68.569  1.00  0.00    -0.383 C  
BRANCH  38  39
HETATM   39  C   UNL     2      -8.692  19.424  67.341  1.00  0.00    -0.343 C  
HETATM   40  C   UNL     2     -10.130  19.903  67.548  1.00  0.00    -0.429 C  
HETATM   41  O   UNL     2     -10.927  19.576  66.625  1.00  0.00    -0.418 OA 
HETATM   42  O   UNL     2     -10.415  20.626  68.558  1.00  0.00    -0.031 OA 
ENDBRANCH  38  39
ENDBRANCH  37  38
ENDBRANCH  36  37
ENDBRANCH  34  35
ENDBRANCH  31  34
ENDBRANCH  24  25
ENDBRANCH  17  18
ENDBRANCH  16  17
ENDBRANCH   6  16
TORSDOF 9
ENDMDL
MODEL      265
REMARK 921   NORMALIZED FREE ENERGY PREDICTED BY IDOCK:   -3.69 KCAL/MOL
REMARK 922        TOTAL FREE ENERGY PREDICTED BY IDOCK:   -7.56 KCAL/MOL
REMARK 923 INTER-LIGAND FREE ENERGY PREDICTED BY IDOCK:   -5.89 KCAL/MOL
REMARK 924 INTRA-LIGAND FREE ENERGY PREDICTED BY IDOCK:   -1.68 KCAL/MOL
REMARK 927      BINDING AFFINITY PREDICTED BY RF-SCORE:    0.00 PKD
ROOT
HETATM    1  O   UNL     1      -9.278   9.854  67.616  1.00  0.00    -0.133 OA 
HETATM    2  C   UNL     1      -8.456  10.654  68.460  1.00  0.00    -0.136 C  
HETATM    3  H   UNL     1     -10.105   9.640  68.031  1.00  0.00     0.000 HD 
HETATM    4  C   UNL     2      -8.195  19.005  66.400  1.00  0.00    -0.314 C  
HETATM    5  C   UNL     1      -7.101  11.006  67.779  1.00  0.00    -0.086 C  
HETATM    6  C   UNL     2      -7.349  17.946  65.709  1.00  0.00    -0.145 C  
HETATM    7  C   UNL     1      -7.381  11.703  66.420  1.00  0.00     0.127 C  
HETATM    8  N   UNL     1      -6.407  11.961  68.699  1.00  0.00    -0.054 NA 
HETATM    9  C   UNL     1      -6.128   9.844  67.650  1.00  0.00    -0.054 C  
HETATM   10  H   UNL     1      -5.013   8.808  68.879  1.00  0.00     0.000 HD 
HETATM   11  H   UNL     1      -8.359  13.296  65.776  1.00  0.00     0.000 HD 
HETATM   12  H2  UNL     1      -6.304  11.607  69.650  1.00  0.00     0.000 HD 
HETATM   13  O   UNL     1      -8.188  12.870  66.606  1.00  0.00     0.016 OA 
HETATM   14  O   UNL     1      -5.621   9.534  68.960  1.00  0.00    -0.036 OA 
HETATM   15  H1  UNL     1      -5.519  12.192  68.254  1.00  0.00     0.000 HD 
ENDROOT
BRANCH   6  16
HETATM   16  C   UNL     2      -6.689  16.960  66.675  1.00  0.00    -0.264 C  
BRANCH  16  17
HETATM   17  C   UNL     2      -6.196  17.572  67.990  1.00  0.00    -0.153 C  
BRANCH  17  18
HETATM   18  C   UNL     2      -6.791  16.933  69.266  1.00  0.00    -0.228 C  
HETATM   19  C   UNL     2      -7.230  15.452  69.213  1.00  0.00    -0.186 C  
HETATM   20  C   UNL     2      -7.634  14.856  70.569  1.00  0.00     0.887 C  
HETATM   21  O   UNL     2      -6.105  14.695  68.753  1.00  0.00    -0.080 OA 
HETATM   22  C   UNL     2      -8.354  15.279  68.230  1.00  0.00    -0.148 C  
HETATM   23  H   UNL     2      -6.374  13.785  68.719  1.00  0.00     0.000 HD 
HETATM   24  C   UNL     2      -9.635  15.656  68.378  1.00  0.00    -0.199 C  
BRANCH  24  25
HETATM   25  C   UNL     2     -10.722  15.484  67.341  1.00  0.00    -0.301 C  
HETATM   26  C   UNL     2     -10.333  15.829  65.884  1.00  0.00    -0.354 C  
HETATM   27  C   UNL     2     -11.502  15.280  65.104  1.00  0.00    -0.260 C  
HETATM   28  O   UNL     2      -9.186  15.146  65.386  1.00  0.00    -0.323 OA 
HETATM   29  H   UNL     2      -8.946  15.358  64.491  1.00  0.00     0.000 HD 
HETATM   30  C   UNL     2     -11.768  13.927  65.762  1.00  0.00    -0.359 C  
HETATM   31  C   UNL     2     -11.339  14.055  67.248  1.00  0.00    -0.350 C  
HETATM   32  O   UNL     2     -13.135  13.608  65.555  1.00  0.00    -0.639 OA 
HETATM   33  H   UNL     2     -13.300  12.767  65.964  1.00  0.00     0.000 HD 
BRANCH  31  34
HETATM   34  C   UNL     2     -12.462  13.808  68.281  1.00  0.00     0.275 C  
BRANCH  34  35
HETATM   35  C   UNL     2     -11.958  13.474  69.667  1.00  0.00    -0.397 C  
HETATM   36  C   UNL     2     -11.847  12.271  70.250  1.00  0.00    -0.324 C  
BRANCH  36  37
HETATM   37  C   UNL     2     -12.198  10.932  69.666  1.00  0.00    -0.354 C  
BRANCH  37  38
HETATM   38  C   UNL     2     -12.254   9.813  70.707  1.00  0.00    -0.342 C  
BRANCH  38  39
HETATM   39  C   UNL     2     -10.909   9.447  71.318  1.00  0.00    -0.431 C  
HETATM   40  C   UNL     2     -10.188   8.209  70.784  1.00  0.00    -0.194 C  
HETATM   41  O   UNL     2      -9.390   7.675  71.605  1.00  0.00    -0.137 OA 
HETATM   42  O   UNL     2     -10.375   7.839  69.579  1.00  0.00    -0.209 OA 
ENDBRANCH  38  39
ENDBRANCH  37  38
ENDBRANCH  36  37
ENDBRANCH  34  35
ENDBRANCH  31  34
ENDBRANCH  24  25
ENDBRANCH  17  18
ENDBRANCH  16  17
ENDBRANCH   6  16
TORSDOF 9
ENDMDL
MODEL      266
REMARK 921   NORMALIZED FREE ENERGY PREDICTED BY IDOCK:   -3.67 KCAL/MOL
REMARK 922        TOTAL FREE ENERGY PREDICTED BY IDOCK:   -7.53 KCAL/MOL
REMARK 923 INTER-LIGAND FREE ENERGY PREDICTED BY IDOCK:   -6.63 KCAL/MOL
REMARK 924 INTRA-LIGAND FREE ENERGY PREDICTED BY IDOCK:   -0.90 KCAL/MOL
REMARK 927      BINDING AFFINITY PREDICTED BY RF-SCORE:    0.00 PKD
ROOT
HETATM    1  O   UNL     1     -10.352   7.395  73.957  1.00  0.00    -0.405 OA 
HETATM    2  C   UNL     1     -10.907   6.562  72.944  1.00  0.00    -0.258 C  
HETATM    3  H   UNL     1     -10.439   7.006  74.820  1.00  0.00     0.000 HD 
HETATM    4  C   UNL     2      -5.142   2.225  68.254  1.00  0.00    -0.012 C  
HETATM    5  C   UNL     1     -10.764   7.199  71.531  1.00  0.00    -0.223 C  
HETATM    6  C   UNL     2      -5.514   3.676  67.990  1.00  0.00    -0.013 C  
HETATM    7  C   UNL     1      -9.265   7.509  71.263  1.00  0.00    -0.149 C  
HETATM    8  N   UNL     1     -11.244   6.168  70.558  1.00  0.00    -0.336 NA 
HETATM    9  C   UNL     1     -11.663   8.398  71.275  1.00  0.00    -0.285 C  
HETATM   10  H   UNL     1     -13.578   8.676  70.987  1.00  0.00     0.000 HD 
HETATM   11  H   UNL     1      -7.558   6.512  71.219  1.00  0.00     0.000 HD 
HETATM   12  H2  UNL     1     -12.186   5.829  70.757  1.00  0.00     0.000 HD 
HETATM   13  O   UNL     1      -8.474   6.323  71.382  1.00  0.00    -0.126 OA 
HETATM   14  O   UNL     1     -13.016   7.927  71.147  1.00  0.00    -0.229 OA 
HETATM   15  H1  UNL     1     -11.150   6.585  69.632  1.00  0.00     0.000 HD 
ENDROOT
BRANCH   6  16
HETATM   16  C   UNL     2      -7.019   3.943  68.035  1.00  0.00    -0.051 C  
BRANCH  16  17
HETATM   17  C   UNL     2      -7.874   2.977  67.210  1.00  0.00    -0.074 C  
BRANCH  17  18
HETATM   18  C   UNL     2      -9.266   3.521  66.811  1.00  0.00    -0.199 C  
HETATM   19  C   UNL     2      -9.463   4.060  65.375  1.00  0.00    -0.172 C  
HETATM   20  C   UNL     2     -10.915   4.404  65.015  1.00  0.00    -0.041 C  
HETATM   21  O   UNL     2      -9.053   3.023  64.476  1.00  0.00    -0.117 OA 
HETATM   22  C   UNL     2      -8.588   5.260  65.148  1.00  0.00    -0.151 C  
HETATM   23  H   UNL     2      -9.173   3.354  63.594  1.00  0.00     0.000 HD 
HETATM   24  C   UNL     2      -8.755   6.500  65.639  1.00  0.00    -0.102 C  
BRANCH  24  25
HETATM   25  C   UNL     2      -7.824   7.667  65.401  1.00  0.00    -0.115 C  
HETATM   26  C   UNL     2      -6.488   7.339  64.696  1.00  0.00    -0.037 C  
HETATM   27  C   UNL     2      -5.960   8.712  64.358  1.00  0.00    -0.066 C  
HETATM   28  O   UNL     2      -6.612   6.660  63.449  1.00  0.00    -0.040 OA 
HETATM   29  H   UNL     2      -5.792   6.458  63.016  1.00  0.00     0.000 HD 
HETATM   30  C   UNL     2      -7.193   9.453  63.844  1.00  0.00    -0.102 C  
HETATM   31  C   UNL     2      -8.422   8.843  64.570  1.00  0.00    -0.178 C  
HETATM   32  O   UNL     2      -6.989  10.839  64.070  1.00  0.00    -0.338 OA 
HETATM   33  H   UNL     2      -7.756  11.299  63.750  1.00  0.00     0.000 HD 
BRANCH  31  34
HETATM   34  C   UNL     2      -9.245   9.835  65.421  1.00  0.00    -0.282 C  
BRANCH  34  35
HETATM   35  C   UNL     2     -10.198  10.690  64.618  1.00  0.00    -0.404 C  
HETATM   36  C   UNL     2     -10.514  11.983  64.793  1.00  0.00    -0.335 C  
BRANCH  36  37
HETATM   37  C   UNL     2      -9.991  12.921  65.843  1.00  0.00    -0.273 C  
BRANCH  37  38
HETATM   38  C   UNL     2     -10.984  14.023  66.218  1.00  0.00    -0.300 C  
BRANCH  38  39
HETATM   39  C   UNL     2     -10.509  14.955  67.323  1.00  0.00    -0.263 C  
HETATM   40  C   UNL     2     -11.375  15.087  68.577  1.00  0.00    -0.303 C  
HETATM   41  O   UNL     2     -11.233  16.177  69.197  1.00  0.00    -0.310 OA 
HETATM   42  O   UNL     2     -12.109  14.111  68.943  1.00  0.00    -0.345 OA 
ENDBRANCH  38  39
ENDBRANCH  37  38
ENDBRANCH  36  37
ENDBRANCH  34  35
ENDBRANCH  31  34
ENDBRANCH  24  25
ENDBRANCH  17  18
ENDBRANCH  16  17
ENDBRANCH   6  16
TORSDOF 9
ENDMDL
MODEL      267
REMARK 921   NORMALIZED FREE ENERGY PREDICTED BY IDOCK:   -3.61 KCAL/MOL
REMARK 922        TOTAL FREE ENERGY PREDICTED BY IDOCK:   -7.43 KCAL/MOL
REMARK 923 INTER-LIGAND FREE ENERGY PREDICTED BY IDOCK:   -6.82 KCAL/MOL
REMARK 924 INTRA-LIGAND FREE ENERGY PREDICTED BY IDOCK:   -0.61 KCAL/MOL
REMARK 927      BINDING AFFINITY PREDICTED BY RF-SCORE:    0.00 PKD
ROOT
HETATM    1  O   UNL     1      -5.742  10.168  68.319  1.00  0.00    -0.042 OA 
HETATM    2  C   UNL     1      -5.937   8.894  68.924  1.00  0.00    -0.044 C  
HETATM    3  H   UNL     1      -4.845  10.285  68.027  1.00  0.00     0.000 HD 
HETATM    4  C   UNL     2      -9.984   3.122  63.988  1.00  0.00    -0.169 C  
HETATM    5  C   UNL     1      -7.406   8.702  69.403  1.00  0.00    -0.072 C  
HETATM    6  C   UNL     2     -10.709   4.191  64.792  1.00  0.00    -0.151 C  
HETATM    7  C   UNL     1      -8.365   8.921  68.200  1.00  0.00    -0.125 C  
HETATM    8  N   UNL     1      -7.510   7.285  69.874  1.00  0.00    -0.084 NA 
HETATM    9  C   UNL     1      -7.797   9.527  70.619  1.00  0.00    -0.117 C  
HETATM   10  H   UNL     1      -7.381   9.488  72.529  1.00  0.00     0.000 HD 
HETATM   11  H   UNL     1      -8.631   8.161  66.394  1.00  0.00     0.000 HD 
HETATM   12  H2  UNL     1      -6.817   7.041  70.583  1.00  0.00     0.000 HD 
HETATM   13  O   UNL     1      -8.045   8.027  67.128  1.00  0.00    -0.114 OA 
HETATM   14  O   UNL     1      -7.137   8.972  71.769  1.00  0.00    -0.272 OA 
HETATM   15  H1  UNL     1      -8.472   7.159  70.188  1.00  0.00     0.000 HD 
ENDROOT
BRANCH   6  16
HETATM   16  C   UNL     2     -10.189   4.344  66.222  1.00  0.00    -0.211 C  
BRANCH  16  17
HETATM   17  C   UNL     2      -9.009   5.306  66.384  1.00  0.00    -0.128 C  
BRANCH  17  18
HETATM   18  C   UNL     2      -7.760   4.694  67.061  1.00  0.00    -0.091 C  
HETATM   19  C   UNL     2      -7.882   3.291  67.698  1.00  0.00    -0.076 C  
HETATM   20  C   UNL     2      -6.554   2.690  68.179  1.00  0.00    -0.036 C  
HETATM   21  O   UNL     2      -8.386   2.410  66.687  1.00  0.00    -0.083 OA 
HETATM   22  C   UNL     2      -8.864   3.321  68.835  1.00  0.00    -0.166 C  
HETATM   23  H   UNL     2      -8.462   1.549  67.079  1.00  0.00     0.000 HD 
HETATM   24  C   UNL     2      -8.690   3.862  70.053  1.00  0.00    -0.117 C  
BRANCH  24  25
HETATM   25  C   UNL     2      -9.727   3.892  71.153  1.00  0.00    -0.248 C  
HETATM   26  C   UNL     2      -9.950   2.563  71.913  1.00  0.00    -0.148 C  
HETATM   27  C   UNL     2     -10.788   3.005  73.087  1.00  0.00    -0.240 C  
HETATM   28  O   UNL     2      -8.777   1.983  72.476  1.00  0.00    -0.061 OA 
HETATM   29  H   UNL     2      -8.913   1.167  72.943  1.00  0.00     0.000 HD 
HETATM   30  C   UNL     2     -10.116   4.301  73.539  1.00  0.00    -0.146 C  
HETATM   31  C   UNL     2      -9.480   4.943  72.278  1.00  0.00    -0.173 C  
HETATM   32  O   UNL     2     -11.100   5.093  74.187  1.00  0.00    -0.420 OA 
HETATM   33  H   UNL     2     -10.682   5.898  74.468  1.00  0.00     0.000 HD 
BRANCH  31  34
HETATM   34  C   UNL     2     -10.004   6.352  71.920  1.00  0.00    -0.193 C  
BRANCH  34  35
HETATM   35  C   UNL     2     -10.871   6.389  70.682  1.00  0.00    -0.331 C  
HETATM   36  C   UNL     2     -12.158   6.753  70.572  1.00  0.00    -0.332 C  
BRANCH  36  37
HETATM   37  C   UNL     2     -13.075   7.224  71.663  1.00  0.00    -0.417 C  
BRANCH  37  38
HETATM   38  C   UNL     2     -12.814   8.669  72.093  1.00  0.00    -0.442 C  
BRANCH  38  39
HETATM   39  C   UNL     2     -12.034   9.499  71.085  1.00  0.00    -0.429 C  
HETATM   40  C   UNL     2     -12.413  10.971  70.916  1.00  0.00    -0.410 C  
HETATM   41  O   UNL     2     -12.122  11.459  69.788  1.00  0.00    -0.311 OA 
HETATM   42  O   UNL     2     -12.918  11.610  71.896  1.00  0.00    -0.427 OA 
ENDBRANCH  38  39
ENDBRANCH  37  38
ENDBRANCH  36  37
ENDBRANCH  34  35
ENDBRANCH  31  34
ENDBRANCH  24  25
ENDBRANCH  17  18
ENDBRANCH  16  17
ENDBRANCH   6  16
TORSDOF 9
ENDMDL
MODEL      268
REMARK 921   NORMALIZED FREE ENERGY PREDICTED BY IDOCK:   -3.56 KCAL/MOL
REMARK 922        TOTAL FREE ENERGY PREDICTED BY IDOCK:   -7.36 KCAL/MOL
REMARK 923 INTER-LIGAND FREE ENERGY PREDICTED BY IDOCK:   -6.31 KCAL/MOL
REMARK 924 INTRA-LIGAND FREE ENERGY PREDICTED BY IDOCK:   -1.05 KCAL/MOL
REMARK 927      BINDING AFFINITY PREDICTED BY RF-SCORE:    0.00 PKD
ROOT
HETATM    1  O   UNL     1     -10.777   7.622  73.828  1.00  0.00    -0.375 OA 
HETATM    2  C   UNL     1     -11.257   6.651  72.904  1.00  0.00    -0.191 C  
HETATM    3  H   UNL     1     -10.849   7.321  74.726  1.00  0.00     0.000 HD 
HETATM    4  C   UNL     2      -5.132   2.275  68.735  1.00  0.00    -0.011 C  
HETATM    5  C   UNL     1     -11.140   7.145  71.433  1.00  0.00    -0.242 C  
HETATM    6  C   UNL     2      -5.602   3.660  68.317  1.00  0.00    -0.018 C  
HETATM    7  C   UNL     1      -9.663   7.533  71.144  1.00  0.00    -0.162 C  
HETATM    8  N   UNL     1     -11.532   5.986  70.571  1.00  0.00    -0.249 NA 
HETATM    9  C   UNL     1     -12.119   8.243  71.046  1.00  0.00    -0.208 C  
HETATM   10  H   UNL     1     -14.044   8.350  70.717  1.00  0.00     0.000 HD 
HETATM   11  H   UNL     1      -7.889   6.663  71.216  1.00  0.00     0.000 HD 
HETATM   12  H2  UNL     1     -12.450   5.603  70.797  1.00  0.00     0.000 HD 
HETATM   13  O   UNL     1      -8.792   6.426  71.393  1.00  0.00    -0.137 OA 
HETATM   14  O   UNL     1     -13.432   7.664  70.959  1.00  0.00    -0.158 OA 
HETATM   15  H1  UNL     1     -11.455   6.310  69.606  1.00  0.00     0.000 HD 
ENDROOT
BRANCH   6  16
HETATM   16  C   UNL     2      -7.123   3.821  68.324  1.00  0.00    -0.051 C  
BRANCH  16  17
HETATM   17  C   UNL     2      -7.880   2.878  67.384  1.00  0.00    -0.073 C  
BRANCH  17  18
HETATM   18  C   UNL     2      -9.253   3.402  66.904  1.00  0.00    -0.202 C  
HETATM   19  C   UNL     2      -9.282   4.539  65.857  1.00  0.00    -0.143 C  
HETATM   20  C   UNL     2     -10.677   4.865  65.306  1.00  0.00     0.089 C  
HETATM   21  O   UNL     2      -8.493   4.106  64.743  1.00  0.00    -0.111 OA 
HETATM   22  C   UNL     2      -8.659   5.783  66.425  1.00  0.00    -0.125 C  
HETATM   23  H   UNL     2      -8.510   4.805  64.100  1.00  0.00     0.000 HD 
HETATM   24  C   UNL     2      -9.181   6.613  67.345  1.00  0.00    -0.124 C  
BRANCH  24  25
HETATM   25  C   UNL     2      -8.496   7.839  67.906  1.00  0.00    -0.122 C  
HETATM   26  C   UNL     2      -6.961   7.899  67.732  1.00  0.00    -0.074 C  
HETATM   27  C   UNL     2      -6.653   9.326  68.114  1.00  0.00    -0.059 C  
HETATM   28  O   UNL     2      -6.496   7.752  66.393  1.00  0.00    -0.045 OA 
HETATM   29  H   UNL     2      -5.553   7.789  66.286  1.00  0.00     0.000 HD 
HETATM   30  C   UNL     2      -7.757  10.127  67.425  1.00  0.00    -0.095 C  
HETATM   31  C   UNL     2      -9.002   9.204  67.346  1.00  0.00    -0.128 C  
HETATM   32  O   UNL     2      -7.943  11.326  68.161  1.00  0.00    -0.118 OA 
HETATM   33  H   UNL     2      -8.630  11.823  67.733  1.00  0.00     0.000 HD 
BRANCH  31  34
HETATM   34  C   UNL     2     -10.261   9.730  68.072  1.00  0.00    -0.229 C  
BRANCH  34  35
HETATM   35  C   UNL     2     -10.995  10.816  67.318  1.00  0.00    -0.359 C  
HETATM   36  C   UNL     2     -11.296  12.059  67.724  1.00  0.00    -0.370 C  
BRANCH  36  37
HETATM   37  C   UNL     2     -10.975  12.697  69.044  1.00  0.00    -0.240 C  
BRANCH  37  38
HETATM   38  C   UNL     2     -12.156  13.455  69.655  1.00  0.00    -0.349 C  
BRANCH  38  39
HETATM   39  C   UNL     2     -12.753  12.805  70.894  1.00  0.00    -0.277 C  
HETATM   40  C   UNL     2     -13.501  13.698  71.886  1.00  0.00    -0.433 C  
HETATM   41  O   UNL     2     -13.529  13.255  73.068  1.00  0.00    -0.499 OA 
HETATM   42  O   UNL     2     -14.081  14.754  71.472  1.00  0.00    -0.418 OA 
ENDBRANCH  38  39
ENDBRANCH  37  38
ENDBRANCH  36  37
ENDBRANCH  34  35
ENDBRANCH  31  34
ENDBRANCH  24  25
ENDBRANCH  17  18
ENDBRANCH  16  17
ENDBRANCH   6  16
TORSDOF 9
ENDMDL
MODEL      269
REMARK 921   NORMALIZED FREE ENERGY PREDICTED BY IDOCK:   -3.55 KCAL/MOL
REMARK 922        TOTAL FREE ENERGY PREDICTED BY IDOCK:   -7.35 KCAL/MOL
REMARK 923 INTER-LIGAND FREE ENERGY PREDICTED BY IDOCK:   -5.25 KCAL/MOL
REMARK 924 INTRA-LIGAND FREE ENERGY PREDICTED BY IDOCK:   -2.09 KCAL/MOL
REMARK 927      BINDING AFFINITY PREDICTED BY RF-SCORE:    0.00 PKD
ROOT
HETATM    1  O   UNL     1      -8.776   8.046  63.615  1.00  0.00    -0.374 OA 
HETATM    2  C   UNL     1      -7.881   8.650  64.543  1.00  0.00    -0.132 C  
HETATM    3  H   UNL     1      -9.095   7.207  63.927  1.00  0.00     0.000 HD 
HETATM    4  C   UNL     2     -11.255  15.071  69.173  1.00  0.00    -0.293 C  
HETATM    5  C   UNL     1      -7.359  10.024  64.031  1.00  0.00    -0.132 C  
HETATM    6  C   UNL     2     -10.727  15.248  67.758  1.00  0.00    -0.286 C  
HETATM    7  C   UNL     1      -8.572  10.944  63.719  1.00  0.00     0.041 C  
HETATM    8  N   UNL     1      -6.560  10.612  65.152  1.00  0.00    -0.340 NA 
HETATM    9  C   UNL     1      -6.374   9.945  62.875  1.00  0.00    -0.120 C  
HETATM   10  H   UNL     1      -4.513   9.383  62.658  1.00  0.00     0.000 HD 
HETATM   11  H   UNL     1     -10.141  11.661  64.685  1.00  0.00     0.000 HD 
HETATM   12  H2  UNL     1      -5.819   9.996  65.489  1.00  0.00     0.000 HD 
HETATM   13  O   UNL     1      -9.400  11.100  64.876  1.00  0.00    -0.216 OA 
HETATM   14  O   UNL     1      -5.129   9.433  63.380  1.00  0.00    -0.064 OA 
HETATM   15  H1  UNL     1      -6.218  11.512  64.817  1.00  0.00     0.000 HD 
ENDROOT
BRANCH   6  16
HETATM   16  C   UNL     2      -9.379  14.567  67.515  1.00  0.00    -0.193 C  
BRANCH  16  17
HETATM   17  C   UNL     2      -9.131  13.304  68.345  1.00  0.00    -0.137 C  
BRANCH  17  18
HETATM   18  C   UNL     2      -9.792  12.021  67.790  1.00  0.00    -0.190 C  
HETATM   19  C   UNL     2     -10.352  10.987  68.794  1.00  0.00    -0.199 C  
HETATM   20  C   UNL     2     -11.150   9.843  68.155  1.00  0.00    -0.215 C  
HETATM   21  O   UNL     2     -11.258  11.685  69.657  1.00  0.00    -0.378 OA 
HETATM   22  C   UNL     2      -9.239  10.422  69.631  1.00  0.00    -0.085 C  
HETATM   23  H   UNL     2     -11.601  11.051  70.274  1.00  0.00     0.000 HD 
HETATM   24  C   UNL     2      -8.294   9.545  69.251  1.00  0.00    -0.129 C  
BRANCH  24  25
HETATM   25  C   UNL     2      -7.176   9.031  70.129  1.00  0.00    -0.062 C  
HETATM   26  C   UNL     2      -6.011  10.014  70.393  1.00  0.00    -0.085 C  
HETATM   27  C   UNL     2      -5.254   9.321  71.499  1.00  0.00    -0.050 C  
HETATM   28  O   UNL     2      -6.395  11.278  70.925  1.00  0.00    -0.472 OA 
HETATM   29  H   UNL     2      -5.681  11.883  71.088  1.00  0.00     0.000 HD 
HETATM   30  C   UNL     2      -6.358   8.824  72.431  1.00  0.00    -0.035 C  
HETATM   31  C   UNL     2      -7.605   8.550  71.549  1.00  0.00    -0.131 C  
HETATM   32  O   UNL     2      -5.856   7.695  73.130  1.00  0.00    -0.047 OA 
HETATM   33  H   UNL     2      -6.543   7.386  73.709  1.00  0.00     0.000 HD 
BRANCH  31  34
HETATM   34  C   UNL     2      -8.120   7.094  71.569  1.00  0.00    -0.103 C  
BRANCH  34  35
HETATM   35  C   UNL     2      -9.520   6.930  71.022  1.00  0.00    -0.163 C  
HETATM   36  C   UNL     2      -9.921   6.244  69.941  1.00  0.00    -0.206 C  
BRANCH  36  37
HETATM   37  C   UNL     2      -9.072   5.452  68.989  1.00  0.00    -0.136 C  
BRANCH  37  38
HETATM   38  C   UNL     2      -8.963   6.087  67.601  1.00  0.00    -0.111 C  
BRANCH  38  39
HETATM   39  C   UNL     2      -7.629   6.759  67.314  1.00  0.00    -0.104 C  
HETATM   40  C   UNL     2      -6.450   5.875  66.904  1.00  0.00    -0.050 C  
HETATM   41  O   UNL     2      -5.315   6.366  67.163  1.00  0.00    -0.008 OA 
HETATM   42  O   UNL     2      -6.666   4.777  66.296  1.00  0.00    -0.048 OA 
ENDBRANCH  38  39
ENDBRANCH  37  38
ENDBRANCH  36  37
ENDBRANCH  34  35
ENDBRANCH  31  34
ENDBRANCH  24  25
ENDBRANCH  17  18
ENDBRANCH  16  17
ENDBRANCH   6  16
TORSDOF 9
ENDMDL
MODEL      270
REMARK 921   NORMALIZED FREE ENERGY PREDICTED BY IDOCK:   -3.53 KCAL/MOL
REMARK 922        TOTAL FREE ENERGY PREDICTED BY IDOCK:   -7.31 KCAL/MOL
REMARK 923 INTER-LIGAND FREE ENERGY PREDICTED BY IDOCK:   -7.11 KCAL/MOL
REMARK 924 INTRA-LIGAND FREE ENERGY PREDICTED BY IDOCK:   -0.19 KCAL/MOL
REMARK 927      BINDING AFFINITY PREDICTED BY RF-SCORE:    0.00 PKD
ROOT
HETATM    1  O   UNL     1      -8.165   6.480  71.250  1.00  0.00    -0.118 OA 
HETATM    2  C   UNL     1      -8.311   7.866  70.958  1.00  0.00    -0.111 C  
HETATM    3  H   UNL     1      -8.962   6.110  71.610  1.00  0.00     0.000 HD 
HETATM    4  C   UNL     2      -9.349   9.720  62.619  1.00  0.00    -0.173 C  
HETATM    5  C   UNL     1      -7.004   8.472  70.367  1.00  0.00    -0.038 C  
HETATM    6  C   UNL     2      -7.991   9.467  63.257  1.00  0.00    -0.143 C  
HETATM    7  C   UNL     1      -6.591   7.658  69.109  1.00  0.00    -0.040 C  
HETATM    8  N   UNL     1      -7.337   9.876  69.969  1.00  0.00    -0.140 NA 
HETATM    9  C   UNL     1      -5.864   8.629  71.361  1.00  0.00    -0.044 C  
HETATM   10  H   UNL     1      -5.483   9.800  72.880  1.00  0.00     0.000 HD 
HETATM   11  H   UNL     1      -7.393   7.155  67.373  1.00  0.00     0.000 HD 
HETATM   12  H2  UNL     1      -7.734  10.430  70.728  1.00  0.00     0.000 HD 
HETATM   13  O   UNL     1      -7.645   7.652  68.142  1.00  0.00    -0.108 OA 
HETATM   14  O   UNL     1      -6.195   9.702  72.259  1.00  0.00    -0.289 OA 
HETATM   15  H1  UNL     1      -6.481  10.272  69.582  1.00  0.00     0.000 HD 
ENDROOT
BRANCH   6  16
HETATM   16  C   UNL     2      -7.800  10.180  64.597  1.00  0.00    -0.144 C  
BRANCH  16  17
HETATM   17  C   UNL     2      -8.542   9.551  65.779  1.00  0.00    -0.152 C  
BRANCH  17  18
HETATM   18  C   UNL     2      -9.804  10.318  66.237  1.00  0.00    -0.276 C  
HETATM   19  C   UNL     2      -9.878  11.839  65.970  1.00  0.00    -0.232 C  
HETATM   20  C   UNL     2     -11.237  12.479  66.289  1.00  0.00    -0.359 C  
HETATM   21  O   UNL     2      -9.655  12.032  64.568  1.00  0.00    -0.441 OA 
HETATM   22  C   UNL     2      -8.793  12.552  66.727  1.00  0.00    -0.177 C  
HETATM   23  H   UNL     2      -9.699  12.967  64.404  1.00  0.00     0.000 HD 
HETATM   24  C   UNL     2      -8.735  12.785  68.049  1.00  0.00    -0.194 C  
BRANCH  24  25
HETATM   25  C   UNL     2      -7.601  13.483  68.765  1.00  0.00    -0.066 C  
HETATM   26  C   UNL     2      -6.174  13.018  68.394  1.00  0.00    -0.081 C  
HETATM   27  C   UNL     2      -5.316  14.081  69.035  1.00  0.00    -0.077 C  
HETATM   28  O   UNL     2      -5.864  13.063  67.005  1.00  0.00    -0.440 OA 
HETATM   29  H   UNL     2      -4.987  12.777  66.776  1.00  0.00     0.000 HD 
HETATM   30  C   UNL     2      -6.049  15.380  68.704  1.00  0.00    -0.096 C  
HETATM   31  C   UNL     2      -7.558  15.033  68.599  1.00  0.00    -0.128 C  
HETATM   32  O   UNL     2      -5.718  16.329  69.706  1.00  0.00    -0.147 OA 
HETATM   33  H   UNL     2      -6.175  17.137  69.500  1.00  0.00     0.000 HD 
BRANCH  31  34
HETATM   34  C   UNL     2      -8.477  15.778  69.594  1.00  0.00    -0.019 C  
BRANCH  34  35
HETATM   35  C   UNL     2      -9.842  16.111  69.037  1.00  0.00    -0.245 C  
HETATM   36  C   UNL     2     -10.231  17.212  68.375  1.00  0.00    -0.340 C  
BRANCH  36  37
HETATM   37  C   UNL     2      -9.397  18.407  68.013  1.00  0.00    -0.304 C  
BRANCH  37  38
HETATM   38  C   UNL     2      -9.588  18.863  66.565  1.00  0.00    -0.373 C  
BRANCH  38  39
HETATM   39  C   UNL     2     -10.757  18.209  65.843  1.00  0.00    -0.140 C  
HETATM   40  C   UNL     2     -10.487  16.938  65.038  1.00  0.00     0.144 C  
HETATM   41  O   UNL     2     -11.305  16.732  64.098  1.00  0.00    -1.194 OA 
HETATM   42  O   UNL     2      -9.537  16.162  65.382  1.00  0.00    -0.428 OA 
ENDBRANCH  38  39
ENDBRANCH  37  38
ENDBRANCH  36  37
ENDBRANCH  34  35
ENDBRANCH  31  34
ENDBRANCH  24  25
ENDBRANCH  17  18
ENDBRANCH  16  17
ENDBRANCH   6  16
TORSDOF 9
ENDMDL
MODEL      271
REMARK 921   NORMALIZED FREE ENERGY PREDICTED BY IDOCK:   -3.51 KCAL/MOL
REMARK 922        TOTAL FREE ENERGY PREDICTED BY IDOCK:   -7.29 KCAL/MOL
REMARK 923 INTER-LIGAND FREE ENERGY PREDICTED BY IDOCK:   -6.09 KCAL/MOL
REMARK 924 INTRA-LIGAND FREE ENERGY PREDICTED BY IDOCK:   -1.20 KCAL/MOL
REMARK 927      BINDING AFFINITY PREDICTED BY RF-SCORE:    0.00 PKD
ROOT
HETATM    1  O   UNL     1     -13.083  13.528  64.476  1.00  0.00    -0.506 OA 
HETATM    2  C   UNL     1     -11.699  13.223  64.609  1.00  0.00    -0.364 C  
HETATM    3  H   UNL     1     -13.460  13.123  63.703  1.00  0.00     0.000 HD 
HETATM    4  C   UNL     2      -9.853   7.259  70.532  1.00  0.00    -0.183 C  
HETATM    5  C   UNL     1     -11.081  13.885  65.875  1.00  0.00    -0.291 C  
HETATM    6  C   UNL     2     -10.093   8.724  70.865  1.00  0.00    -0.276 C  
HETATM    7  C   UNL     1     -11.890  13.443  67.125  1.00  0.00    -0.382 C  
HETATM    8  N   UNL     1      -9.680  13.367  65.975  1.00  0.00    -0.414 NA 
HETATM    9  C   UNL     1     -10.913  15.394  65.791  1.00  0.00    -0.309 C  
HETATM   10  H   UNL     1      -9.738  16.621  64.822  1.00  0.00     0.000 HD 
HETATM   11  H   UNL     1     -12.400  11.746  68.003  1.00  0.00     0.000 HD 
HETATM   12  H2  UNL     1      -9.129  13.518  65.129  1.00  0.00     0.000 HD 
HETATM   13  O   UNL     1     -11.906  12.016  67.239  1.00  0.00    -0.556 OA 
HETATM   14  O   UNL     1      -9.843  15.678  64.874  1.00  0.00    -0.265 OA 
HETATM   15  H1  UNL     1      -9.275  13.801  66.805  1.00  0.00     0.000 HD 
ENDROOT
BRANCH   6  16
HETATM   16  C   UNL     2      -9.379   9.694  69.923  1.00  0.00    -0.256 C  
BRANCH  16  17
HETATM   17  C   UNL     2      -7.865   9.805  70.131  1.00  0.00    -0.196 C  
BRANCH  17  18
HETATM   18  C   UNL     2      -7.042   9.973  68.833  1.00  0.00    -0.068 C  
HETATM   19  C   UNL     2      -7.739   9.703  67.479  1.00  0.00    -0.095 C  
HETATM   20  C   UNL     2      -6.902  10.073  66.246  1.00  0.00    -0.099 C  
HETATM   21  O   UNL     2      -8.912  10.524  67.438  1.00  0.00    -0.135 OA 
HETATM   22  C   UNL     2      -8.161   8.264  67.391  1.00  0.00    -0.121 C  
HETATM   23  H   UNL     2      -9.340  10.358  66.607  1.00  0.00     0.000 HD 
HETATM   24  C   UNL     2      -7.375   7.190  67.203  1.00  0.00    -0.090 C  
BRANCH  24  25
HETATM   25  C   UNL     2      -7.852   5.756  67.152  1.00  0.00    -0.102 C  
HETATM   26  C   UNL     2      -8.837   5.407  66.012  1.00  0.00    -0.144 C  
HETATM   27  C   UNL     2      -8.869   3.899  66.070  1.00  0.00    -0.123 C  
HETATM   28  O   UNL     2      -8.385   5.730  64.701  1.00  0.00    -0.135 OA 
HETATM   29  H   UNL     2      -8.989   5.516  64.000  1.00  0.00     0.000 HD 
HETATM   30  C   UNL     2      -7.401   3.517  66.259  1.00  0.00    -0.076 C  
HETATM   31  C   UNL     2      -6.728   4.681  67.035  1.00  0.00    -0.051 C  
HETATM   32  O   UNL     2      -7.364   2.258  66.913  1.00  0.00    -0.058 OA 
HETATM   33  H   UNL     2      -6.452   2.021  67.031  1.00  0.00     0.000 HD 
BRANCH  31  34
HETATM   34  C   UNL     2      -6.111   4.294  68.398  1.00  0.00    -0.031 C  
BRANCH  34  35
HETATM   35  C   UNL     2      -6.710   5.031  69.575  1.00  0.00    -0.051 C  
HETATM   36  C   UNL     2      -7.289   4.523  70.674  1.00  0.00    -0.049 C  
BRANCH  36  37
HETATM   37  C   UNL     2      -7.489   3.075  71.020  1.00  0.00    -0.036 C  
BRANCH  37  38
HETATM   38  C   UNL     2      -8.879   2.551  70.655  1.00  0.00    -0.142 C  
BRANCH  38  39
HETATM   39  C   UNL     2      -9.995   3.017  71.579  1.00  0.00    -0.119 C  
HETATM   40  C   UNL     2     -10.249   2.222  72.860  1.00  0.00    -0.139 C  
HETATM   41  O   UNL     2     -11.427   2.315  73.306  1.00  0.00    -0.158 OA 
HETATM   42  O   UNL     2      -9.290   1.592  73.414  1.00  0.00    -0.071 OA 
ENDBRANCH  38  39
ENDBRANCH  37  38
ENDBRANCH  36  37
ENDBRANCH  34  35
ENDBRANCH  31  34
ENDBRANCH  24  25
ENDBRANCH  17  18
ENDBRANCH  16  17
ENDBRANCH   6  16
TORSDOF 9
ENDMDL
MODEL      272
REMARK 921   NORMALIZED FREE ENERGY PREDICTED BY IDOCK:   -3.51 KCAL/MOL
REMARK 922        TOTAL FREE ENERGY PREDICTED BY IDOCK:   -7.28 KCAL/MOL
REMARK 923 INTER-LIGAND FREE ENERGY PREDICTED BY IDOCK:   -5.91 KCAL/MOL
REMARK 924 INTRA-LIGAND FREE ENERGY PREDICTED BY IDOCK:   -1.37 KCAL/MOL
REMARK 927      BINDING AFFINITY PREDICTED BY RF-SCORE:    0.00 PKD
ROOT
HETATM    1  O   UNL     1      -7.386  20.873  68.061  1.00  0.00    -0.142 OA 
HETATM    2  C   UNL     1      -7.784  19.528  67.815  1.00  0.00    -0.286 C  
HETATM    3  H   UNL     1      -8.128  21.427  68.273  1.00  0.00     0.000 HD 
HETATM    4  C   UNL     2      -6.182  14.044  74.250  1.00  0.00     0.545 C  
HETATM    5  C   UNL     1      -6.567  18.621  67.468  1.00  0.00    -0.198 C  
HETATM    6  C   UNL     2      -5.135  14.466  73.230  1.00  0.00    -0.343 C  
HETATM    7  C   UNL     1      -5.523  18.712  68.614  1.00  0.00    -0.193 C  
HETATM    8  N   UNL     1      -7.099  17.224  67.384  1.00  0.00    -0.156 NA 
HETATM    9  C   UNL     1      -5.954  18.867  66.098  1.00  0.00    -0.163 C  
HETATM   10  H   UNL     1      -6.482  18.526  64.246  1.00  0.00     0.000 HD 
HETATM   11  H   UNL     1      -5.472  18.395  70.565  1.00  0.00     0.000 HD 
HETATM   12  H2  UNL     1      -7.878  17.124  66.732  1.00  0.00     0.000 HD 
HETATM   13  O   UNL     1      -6.110  18.339  69.865  1.00  0.00    -0.233 OA 
HETATM   14  O   UNL     1      -6.865  18.372  65.102  1.00  0.00    -0.512 OA 
HETATM   15  H1  UNL     1      -6.302  16.629  67.157  1.00  0.00     0.000 HD 
ENDROOT
BRANCH   6  16
HETATM   16  C   UNL     2      -5.643  14.457  71.787  1.00  0.00    -0.135 C  
BRANCH  16  17
HETATM   17  C   UNL     2      -5.607  13.091  71.096  1.00  0.00    -0.120 C  
BRANCH  17  18
HETATM   18  C   UNL     2      -5.383  13.144  69.566  1.00  0.00    -0.079 C  
HETATM   19  C   UNL     2      -6.598  13.429  68.654  1.00  0.00    -0.091 C  
HETATM   20  C   UNL     2      -6.249  13.645  67.174  1.00  0.00     0.620 C  
HETATM   21  O   UNL     2      -7.195  14.646  69.114  1.00  0.00    -0.126 OA 
HETATM   22  C   UNL     2      -7.611  12.325  68.778  1.00  0.00    -0.044 C  
HETATM   23  H   UNL     2      -7.942  14.821  68.554  1.00  0.00     0.000 HD 
HETATM   24  C   UNL     2      -7.528  11.079  68.283  1.00  0.00    -0.092 C  
BRANCH  24  25
HETATM   25  C   UNL     2      -8.566   9.995  68.464  1.00  0.00    -0.119 C  
HETATM   26  C   UNL     2      -8.027   8.589  68.816  1.00  0.00    -0.119 C  
HETATM   27  C   UNL     2      -9.286   7.854  69.208  1.00  0.00    -0.148 C  
HETATM   28  O   UNL     2      -7.180   8.534  69.960  1.00  0.00    -0.049 OA 
HETATM   29  H   UNL     2      -6.849   7.670  70.176  1.00  0.00     0.000 HD 
HETATM   30  C   UNL     2     -10.038   8.868  70.069  1.00  0.00    -0.192 C  
HETATM   31  C   UNL     2      -9.647  10.278  69.552  1.00  0.00    -0.225 C  
HETATM   32  O   UNL     2     -11.421   8.560  69.988  1.00  0.00    -0.457 OA 
HETATM   33  H   UNL     2     -11.889   9.191  70.523  1.00  0.00     0.000 HD 
BRANCH  31  34
HETATM   34  C   UNL     2     -10.821  11.141  69.036  1.00  0.00    -0.276 C  
BRANCH  34  35
HETATM   35  C   UNL     2     -11.162  10.905  67.582  1.00  0.00    -0.379 C  
HETATM   36  C   UNL     2     -11.601  11.788  66.672  1.00  0.00    -0.273 C  
BRANCH  36  37
HETATM   37  C   UNL     2     -11.867  13.253  66.867  1.00  0.00    -0.446 C  
BRANCH  37  38
HETATM   38  C   UNL     2     -12.140  13.630  68.325  1.00  0.00    -0.306 C  
BRANCH  38  39
HETATM   39  C   UNL     2     -11.403  14.870  68.808  1.00  0.00    -0.304 C  
HETATM   40  C   UNL     2     -11.625  15.323  70.252  1.00  0.00    -0.301 C  
HETATM   41  O   UNL     2     -11.425  16.554  70.449  1.00  0.00    -0.229 OA 
HETATM   42  O   UNL     2     -11.923  14.464  71.145  1.00  0.00    -0.334 OA 
ENDBRANCH  38  39
ENDBRANCH  37  38
ENDBRANCH  36  37
ENDBRANCH  34  35
ENDBRANCH  31  34
ENDBRANCH  24  25
ENDBRANCH  17  18
ENDBRANCH  16  17
ENDBRANCH   6  16
TORSDOF 9
ENDMDL
MODEL      273
REMARK 921   NORMALIZED FREE ENERGY PREDICTED BY IDOCK:   -3.49 KCAL/MOL
REMARK 922        TOTAL FREE ENERGY PREDICTED BY IDOCK:   -7.25 KCAL/MOL
REMARK 923 INTER-LIGAND FREE ENERGY PREDICTED BY IDOCK:   -5.54 KCAL/MOL
REMARK 924 INTRA-LIGAND FREE ENERGY PREDICTED BY IDOCK:   -1.72 KCAL/MOL
REMARK 927      BINDING AFFINITY PREDICTED BY RF-SCORE:    0.00 PKD
ROOT
HETATM    1  O   UNL     1     -10.438  15.031  66.457  1.00  0.00    -0.273 OA 
HETATM    2  C   UNL     1      -9.695  13.903  66.910  1.00  0.00    -0.268 C  
HETATM    3  H   UNL     1     -10.599  14.994  65.522  1.00  0.00     0.000 HD 
HETATM    4  C   UNL     2     -14.329   7.919  71.004  1.00  0.00    -0.133 C  
HETATM    5  C   UNL     1      -9.431  13.964  68.443  1.00  0.00    -0.211 C  
HETATM    6  C   UNL     2     -13.812   9.181  71.676  1.00  0.00    -0.396 C  
HETATM    7  C   UNL     1     -10.789  14.095  69.187  1.00  0.00    -0.229 C  
HETATM    8  N   UNL     1      -8.784  12.664  68.806  1.00  0.00    -0.379 NA 
HETATM    9  C   UNL     1      -8.422  15.015  68.878  1.00  0.00    -0.192 C  
HETATM   10  H   UNL     1      -6.484  15.239  68.738  1.00  0.00     0.000 HD 
HETATM   11  H   UNL     1     -12.487  13.089  69.305  1.00  0.00     0.000 HD 
HETATM   12  H2  UNL     1      -7.948  12.460  68.259  1.00  0.00     0.000 HD 
HETATM   13  O   UNL     1     -11.657  13.009  68.850  1.00  0.00    -0.269 OA 
HETATM   14  O   UNL     1      -7.115  14.582  68.466  1.00  0.00    -0.101 OA 
HETATM   15  H1  UNL     1      -8.611  12.704  69.811  1.00  0.00     0.000 HD 
ENDROOT
BRANCH   6  16
HETATM   16  C   UNL     2     -12.354   9.503  71.342  1.00  0.00    -0.451 C  
BRANCH  16  17
HETATM   17  C   UNL     2     -11.330   8.490  71.863  1.00  0.00    -0.399 C  
BRANCH  17  18
HETATM   18  C   UNL     2      -9.867   8.991  71.869  1.00  0.00    -0.283 C  
HETATM   19  C   UNL     2      -8.847   8.297  70.936  1.00  0.00    -0.150 C  
HETATM   20  C   UNL     2      -7.473   8.978  70.874  1.00  0.00    -0.128 C  
HETATM   21  O   UNL     2      -9.388   8.345  69.611  1.00  0.00    -0.159 OA 
HETATM   22  C   UNL     2      -8.681   6.856  71.330  1.00  0.00    -0.126 C  
HETATM   23  H   UNL     2      -8.762   7.919  69.038  1.00  0.00     0.000 HD 
HETATM   24  C   UNL     2      -8.034   6.371  72.403  1.00  0.00    -0.102 C  
BRANCH  24  25
HETATM   25  C   UNL     2      -7.922   4.908  72.769  1.00  0.00    -0.098 C  
HETATM   26  C   UNL     2      -9.177   4.270  73.408  1.00  0.00    -0.101 C  
HETATM   27  C   UNL     2      -8.841   2.799  73.369  1.00  0.00    -0.079 C  
HETATM   28  O   UNL     2     -10.378   4.408  72.654  1.00  0.00    -0.177 OA 
HETATM   29  H   UNL     2     -11.149   4.016  73.046  1.00  0.00     0.000 HD 
HETATM   30  C   UNL     2      -8.234   2.608  71.980  1.00  0.00    -0.058 C  
HETATM   31  C   UNL     2      -7.556   3.950  71.595  1.00  0.00    -0.057 C  
HETATM   32  O   UNL     2      -7.362   1.490  72.041  1.00  0.00    -0.036 OA 
HETATM   33  H   UNL     2      -6.984   1.371  71.177  1.00  0.00     0.000 HD 
BRANCH  31  34
HETATM   34  C   UNL     2      -6.037   3.868  71.326  1.00  0.00    -0.014 C  
BRANCH  34  35
HETATM   35  C   UNL     2      -5.463   5.100  70.665  1.00  0.00    -0.004 C  
HETATM   36  C   UNL     2      -5.342   5.368  69.355  1.00  0.00    -0.004 C  
BRANCH  36  37
HETATM   37  C   UNL     2      -5.753   4.502  68.199  1.00  0.00    -0.021 C  
BRANCH  37  38
HETATM   38  C   UNL     2      -6.998   5.014  67.472  1.00  0.00    -0.061 C  
BRANCH  38  39
HETATM   39  C   UNL     2      -8.011   3.937  67.113  1.00  0.00    -0.092 C  
HETATM   40  C   UNL     2      -9.101   3.605  68.133  1.00  0.00    -0.149 C  
HETATM   41  O   UNL     2      -9.570   2.437  68.033  1.00  0.00    -0.199 OA 
HETATM   42  O   UNL     2      -9.501   4.502  68.945  1.00  0.00    -0.136 OA 
ENDBRANCH  38  39
ENDBRANCH  37  38
ENDBRANCH  36  37
ENDBRANCH  34  35
ENDBRANCH  31  34
ENDBRANCH  24  25
ENDBRANCH  17  18
ENDBRANCH  16  17
ENDBRANCH   6  16
TORSDOF 9
ENDMDL
MODEL      274
REMARK 921   NORMALIZED FREE ENERGY PREDICTED BY IDOCK:   -3.31 KCAL/MOL
REMARK 922        TOTAL FREE ENERGY PREDICTED BY IDOCK:   -6.98 KCAL/MOL
REMARK 923 INTER-LIGAND FREE ENERGY PREDICTED BY IDOCK:   -5.93 KCAL/MOL
REMARK 924 INTRA-LIGAND FREE ENERGY PREDICTED BY IDOCK:   -1.05 KCAL/MOL
REMARK 927      BINDING AFFINITY PREDICTED BY RF-SCORE:    0.00 PKD
ROOT
HETATM    1  O   UNL     1     -11.565   5.439  74.054  1.00  0.00    -0.133 OA 
HETATM    2  C   UNL     1     -12.168   5.643  72.781  1.00  0.00     0.168 C  
HETATM    3  H   UNL     1     -11.821   4.608  74.436  1.00  0.00     0.000 HD 
HETATM    4  C   UNL     2      -6.945   4.391  66.057  1.00  0.00    -0.066 C  
HETATM    5  C   UNL     1     -11.749   7.005  72.155  1.00  0.00    -0.283 C  
HETATM    6  C   UNL     2      -6.983   5.684  66.858  1.00  0.00    -0.065 C  
HETATM    7  C   UNL     1     -10.199   7.072  72.075  1.00  0.00    -0.190 C  
HETATM    8  N   UNL     1     -12.324   7.024  70.773  1.00  0.00    -0.568 NA 
HETATM    9  C   UNL     1     -12.352   8.230  72.824  1.00  0.00    -0.067 C  
HETATM   10  H   UNL     1     -14.128   9.045  72.913  1.00  0.00     0.000 HD 
HETATM   11  H   UNL     1      -8.736   6.012  71.270  1.00  0.00     0.000 HD 
HETATM   12  H2  UNL     1     -13.330   6.860  70.749  1.00  0.00     0.000 HD 
HETATM   13  O   UNL     1      -9.683   5.971  71.319  1.00  0.00    -0.170 OA 
HETATM   14  O   UNL     1     -13.751   8.280  72.494  1.00  0.00    -0.174 OA 
HETATM   15  H1  UNL     1     -12.049   7.917  70.363  1.00  0.00     0.000 HD 
ENDROOT
BRANCH   6  16
HETATM   16  C   UNL     2      -8.398   6.179  67.161  1.00  0.00    -0.105 C  
BRANCH  16  17
HETATM   17  C   UNL     2      -8.624   7.676  66.934  1.00  0.00    -0.123 C  
BRANCH  17  18
HETATM   18  C   UNL     2      -8.611   8.117  65.452  1.00  0.00    -0.154 C  
HETATM   19  C   UNL     2      -7.796   9.373  65.065  1.00  0.00    -0.115 C  
HETATM   20  C   UNL     2      -7.690   9.625  63.554  1.00  0.00    -0.130 C  
HETATM   21  O   UNL     2      -6.460   9.171  65.540  1.00  0.00    -0.066 OA 
HETATM   22  C   UNL     2      -8.363  10.589  65.743  1.00  0.00    -0.166 C  
HETATM   23  H   UNL     2      -5.959   9.943  65.303  1.00  0.00     0.000 HD 
HETATM   24  C   UNL     2      -9.504  11.234  65.444  1.00  0.00    -0.251 C  
BRANCH  24  25
HETATM   25  C   UNL     2     -10.045  12.439  66.181  1.00  0.00    -0.265 C  
HETATM   26  C   UNL     2     -11.089  13.288  65.420  1.00  0.00    -0.282 C  
HETATM   27  C   UNL     2     -11.619  14.190  66.507  1.00  0.00    -0.389 C  
HETATM   28  O   UNL     2     -12.219  12.567  64.937  1.00  0.00    -0.441 OA 
HETATM   29  H   UNL     2     -12.861  13.089  64.469  1.00  0.00     0.000 HD 
HETATM   30  C   UNL     2     -11.788  13.251  67.701  1.00  0.00    -0.357 C  
HETATM   31  C   UNL     2     -10.717  12.138  67.555  1.00  0.00    -0.265 C  
HETATM   32  O   UNL     2     -11.687  14.032  68.881  1.00  0.00    -0.295 OA 
HETATM   33  H   UNL     2     -11.792  13.448  69.623  1.00  0.00     0.000 HD 
BRANCH  31  34
HETATM   34  C   UNL     2      -9.707  12.038  68.719  1.00  0.00    -0.029 C  
BRANCH  34  35
HETATM   35  C   UNL     2      -8.265  12.201  68.296  1.00  0.00    -0.168 C  
HETATM   36  C   UNL     2      -7.233  11.367  68.501  1.00  0.00    -0.093 C  
BRANCH  36  37
HETATM   37  C   UNL     2      -7.249  10.043  69.209  1.00  0.00    -0.078 C  
BRANCH  37  38
HETATM   38  C   UNL     2      -6.730  10.117  70.646  1.00  0.00    -0.046 C  
BRANCH  38  39
HETATM   39  C   UNL     2      -6.181   8.807  71.191  1.00  0.00    -0.051 C  
HETATM   40  C   UNL     2      -6.543   8.415  72.624  1.00  0.00    -0.093 C  
HETATM   41  O   UNL     2      -5.711   7.644  73.180  1.00  0.00    -0.044 OA 
HETATM   42  O   UNL     2      -7.641   8.816  73.131  1.00  0.00    -0.375 OA 
ENDBRANCH  38  39
ENDBRANCH  37  38
ENDBRANCH  36  37
ENDBRANCH  34  35
ENDBRANCH  31  34
ENDBRANCH  24  25
ENDBRANCH  17  18
ENDBRANCH  16  17
ENDBRANCH   6  16
TORSDOF 9
ENDMDL
MODEL      275
REMARK 921   NORMALIZED FREE ENERGY PREDICTED BY IDOCK:   -3.31 KCAL/MOL
REMARK 922        TOTAL FREE ENERGY PREDICTED BY IDOCK:   -6.98 KCAL/MOL
REMARK 923 INTER-LIGAND FREE ENERGY PREDICTED BY IDOCK:   -6.78 KCAL/MOL
REMARK 924 INTRA-LIGAND FREE ENERGY PREDICTED BY IDOCK:   -0.20 KCAL/MOL
REMARK 927      BINDING AFFINITY PREDICTED BY RF-SCORE:    0.00 PKD
ROOT
HETATM    1  O   UNL     1     -12.689   7.811  70.713  1.00  0.00    -0.526 OA 
HETATM    2  C   UNL     1     -11.350   8.178  70.400  1.00  0.00    -0.181 C  
HETATM    3  H   UNL     1     -13.308   8.486  70.459  1.00  0.00     0.000 HD 
HETATM    4  C   UNL     2      -8.071   4.330  63.436  1.00  0.00    -0.088 C  
HETATM    5  C   UNL     1     -10.336   7.072  70.815  1.00  0.00    -0.206 C  
HETATM    6  C   UNL     2      -8.119   3.676  64.809  1.00  0.00    -0.090 C  
HETATM    7  C   UNL     1     -10.740   5.734  70.136  1.00  0.00    -0.320 C  
HETATM    8  N   UNL     1      -9.002   7.513  70.299  1.00  0.00    -0.146 NA 
HETATM    9  C   UNL     1     -10.125   6.926  72.314  1.00  0.00    -0.176 C  
HETATM   10  H   UNL     1      -9.246   7.974  73.712  1.00  0.00     0.000 HD 
HETATM   11  H   UNL     1     -11.040   5.066  68.299  1.00  0.00     0.000 HD 
HETATM   12  H2  UNL     1      -8.734   8.446  70.612  1.00  0.00     0.000 HD 
HETATM   13  O   UNL     1     -10.794   5.883  68.714  1.00  0.00    -0.286 OA 
HETATM   14  O   UNL     1      -9.379   8.065  72.775  1.00  0.00    -0.206 OA 
HETATM   15  H1  UNL     1      -8.338   6.788  70.571  1.00  0.00     0.000 HD 
ENDROOT
BRANCH   6  16
HETATM   16  C   UNL     2      -7.683   4.601  65.946  1.00  0.00    -0.094 C  
BRANCH  16  17
HETATM   17  C   UNL     2      -7.144   5.964  65.504  1.00  0.00    -0.069 C  
BRANCH  17  18
HETATM   18  C   UNL     2      -8.155   6.842  64.729  1.00  0.00    -0.098 C  
HETATM   19  C   UNL     2      -7.727   8.270  64.319  1.00  0.00    -0.134 C  
HETATM   20  C   UNL     2      -8.720   8.994  63.398  1.00  0.00    -0.101 C  
HETATM   21  O   UNL     2      -6.503   8.149  63.585  1.00  0.00    -0.070 OA 
HETATM   22  C   UNL     2      -7.469   9.105  65.541  1.00  0.00    -0.089 C  
HETATM   23  H   UNL     2      -6.240   9.026  63.334  1.00  0.00     0.000 HD 
HETATM   24  C   UNL     2      -8.378   9.617  66.388  1.00  0.00    -0.120 C  
BRANCH  24  25
HETATM   25  C   UNL     2      -8.060  10.429  67.624  1.00  0.00    -0.107 C  
HETATM   26  C   UNL     2      -6.711  10.118  68.313  1.00  0.00    -0.054 C  
HETATM   27  C   UNL     2      -6.580  11.263  69.287  1.00  0.00    -0.100 C  
HETATM   28  O   UNL     2      -5.566  10.202  67.469  1.00  0.00    -0.045 OA 
HETATM   29  H   UNL     2      -4.737  10.011  67.892  1.00  0.00     0.000 HD 
HETATM   30  C   UNL     2      -7.016  12.479  68.471  1.00  0.00    -0.086 C  
HETATM   31  C   UNL     2      -8.046  11.975  67.425  1.00  0.00    -0.168 C  
HETATM   32  O   UNL     2      -7.508  13.453  69.378  1.00  0.00    -0.314 OA 
HETATM   33  H   UNL     2      -7.779  14.209  68.870  1.00  0.00     0.000 HD 
BRANCH  31  34
HETATM   34  C   UNL     2      -9.449  12.615  67.520  1.00  0.00    -0.186 C  
BRANCH  34  35
HETATM   35  C   UNL     2      -9.939  13.217  66.223  1.00  0.00    -0.285 C  
HETATM   36  C   UNL     2     -10.845  14.190  66.041  1.00  0.00    -0.297 C  
BRANCH  36  37
HETATM   37  C   UNL     2     -11.611  14.939  67.093  1.00  0.00    -0.327 C  
BRANCH  37  38
HETATM   38  C   UNL     2     -10.737  15.420  68.252  1.00  0.00    -0.260 C  
BRANCH  38  39
HETATM   39  C   UNL     2     -11.500  16.082  69.390  1.00  0.00    -0.336 C  
HETATM   40  C   UNL     2     -12.266  15.185  70.363  1.00  0.00    -0.344 C  
HETATM   41  O   UNL     2     -13.238  15.749  70.937  1.00  0.00    -0.560 OA 
HETATM   42  O   UNL     2     -11.862  13.995  70.577  1.00  0.00    -0.306 OA 
ENDBRANCH  38  39
ENDBRANCH  37  38
ENDBRANCH  36  37
ENDBRANCH  34  35
ENDBRANCH  31  34
ENDBRANCH  24  25
ENDBRANCH  17  18
ENDBRANCH  16  17
ENDBRANCH   6  16
TORSDOF 9
ENDMDL
MODEL      276
REMARK 921   NORMALIZED FREE ENERGY PREDICTED BY IDOCK:   -3.27 KCAL/MOL
REMARK 922        TOTAL FREE ENERGY PREDICTED BY IDOCK:   -6.92 KCAL/MOL
REMARK 923 INTER-LIGAND FREE ENERGY PREDICTED BY IDOCK:   -5.28 KCAL/MOL
REMARK 924 INTRA-LIGAND FREE ENERGY PREDICTED BY IDOCK:   -1.63 KCAL/MOL
REMARK 927      BINDING AFFINITY PREDICTED BY RF-SCORE:    0.00 PKD
ROOT
HETATM    1  O   UNL     1     -11.755   6.123  71.662  1.00  0.00    -0.296 OA 
HETATM    2  C   UNL     1     -12.144   7.126  70.729  1.00  0.00    -0.288 C  
HETATM    3  H   UNL     1     -12.414   5.443  71.743  1.00  0.00     0.000 HD 
HETATM    4  C   UNL     2      -8.255   6.651  63.067  1.00  0.00     0.037 C  
HETATM    5  C   UNL     1     -11.065   8.240  70.595  1.00  0.00    -0.253 C  
HETATM    6  C   UNL     2      -7.621   7.300  64.288  1.00  0.00    -0.116 C  
HETATM    7  C   UNL     1      -9.708   7.588  70.208  1.00  0.00    -0.179 C  
HETATM    8  N   UNL     1     -11.524   9.136  69.489  1.00  0.00    -0.419 NA 
HETATM    9  C   UNL     1     -10.946   9.164  71.797  1.00  0.00    -0.359 C  
HETATM   10  H   UNL     1     -12.033  10.591  72.578  1.00  0.00     0.000 HD 
HETATM   11  H   UNL     1      -9.007   6.440  68.759  1.00  0.00     0.000 HD 
HETATM   12  H2  UNL     1     -12.467   9.501  69.626  1.00  0.00     0.000 HD 
HETATM   13  O   UNL     1      -9.835   6.838  68.996  1.00  0.00    -0.147 OA 
HETATM   14  O   UNL     1     -12.107  10.013  71.827  1.00  0.00    -0.373 OA 
HETATM   15  H1  UNL     1     -10.817   9.866  69.401  1.00  0.00     0.000 HD 
ENDROOT
BRANCH   6  16
HETATM   16  C   UNL     2      -8.572   8.217  65.061  1.00  0.00    -0.076 C  
BRANCH  16  17
HETATM   17  C   UNL     2      -9.019   9.472  64.306  1.00  0.00    -0.248 C  
BRANCH  17  18
HETATM   18  C   UNL     2     -10.263  10.177  64.896  1.00  0.00    -0.160 C  
HETATM   19  C   UNL     2     -10.145  11.665  65.296  1.00  0.00    -0.264 C  
HETATM   20  C   UNL     2     -11.472  12.326  65.696  1.00  0.00    -0.416 C  
HETATM   21  O   UNL     2      -9.666  12.374  64.147  1.00  0.00    -0.547 OA 
HETATM   22  C   UNL     2      -9.145  11.827  66.406  1.00  0.00    -0.215 C  
HETATM   23  H   UNL     2      -9.593  13.288  64.393  1.00  0.00     0.000 HD 
HETATM   24  C   UNL     2      -9.295  11.489  67.698  1.00  0.00    -0.171 C  
BRANCH  24  25
HETATM   25  C   UNL     2      -8.241  11.646  68.771  1.00  0.00    -0.055 C  
HETATM   26  C   UNL     2      -7.619  10.337  69.310  1.00  0.00    -0.125 C  
HETATM   27  C   UNL     2      -6.444  10.848  70.108  1.00  0.00    -0.145 C  
HETATM   28  O   UNL     2      -7.064   9.477  68.320  1.00  0.00    -0.073 OA 
HETATM   29  H   UNL     2      -6.682   8.673  68.650  1.00  0.00     0.000 HD 
HETATM   30  C   UNL     2      -5.845  11.930  69.211  1.00  0.00    -0.072 C  
HETATM   31  C   UNL     2      -7.013  12.525  68.380  1.00  0.00    -0.096 C  
HETATM   32  O   UNL     2      -5.168  12.856  70.046  1.00  0.00    -0.084 OA 
HETATM   33  H   UNL     2      -4.796  13.528  69.488  1.00  0.00     0.000 HD 
BRANCH  31  34
HETATM   34  C   UNL     2      -7.259  14.038  68.578  1.00  0.00    -0.109 C  
BRANCH  34  35
HETATM   35  C   UNL     2      -6.584  14.910  67.544  1.00  0.00    -0.140 C  
HETATM   36  C   UNL     2      -6.276  16.214  67.620  1.00  0.00    -0.179 C  
BRANCH  36  37
HETATM   37  C   UNL     2      -6.525  17.150  68.768  1.00  0.00    -0.185 C  
BRANCH  37  38
HETATM   38  C   UNL     2      -7.121  18.492  68.337  1.00  0.00    -0.287 C  
BRANCH  38  39
HETATM   39  C   UNL     2      -7.643  19.349  69.480  1.00  0.00    -0.042 C  
HETATM   40  C   UNL     2      -6.818  20.565  69.904  1.00  0.00     0.394 C  
HETATM   41  O   UNL     2      -6.996  20.924  71.101  1.00  0.00     0.578 OA 
HETATM   42  O   UNL     2      -6.082  21.158  69.050  1.00  0.00    -0.170 OA 
ENDBRANCH  38  39
ENDBRANCH  37  38
ENDBRANCH  36  37
ENDBRANCH  34  35
ENDBRANCH  31  34
ENDBRANCH  24  25
ENDBRANCH  17  18
ENDBRANCH  16  17
ENDBRANCH   6  16
TORSDOF 9
ENDMDL
MODEL      277
REMARK 921   NORMALIZED FREE ENERGY PREDICTED BY IDOCK:   -3.26 KCAL/MOL
REMARK 922        TOTAL FREE ENERGY PREDICTED BY IDOCK:   -6.91 KCAL/MOL
REMARK 923 INTER-LIGAND FREE ENERGY PREDICTED BY IDOCK:   -5.51 KCAL/MOL
REMARK 924 INTRA-LIGAND FREE ENERGY PREDICTED BY IDOCK:   -1.39 KCAL/MOL
REMARK 927      BINDING AFFINITY PREDICTED BY RF-SCORE:    0.00 PKD
ROOT
HETATM    1  O   UNL     1     -12.399  14.675  68.164  1.00  0.00    -0.598 OA 
HETATM    2  C   UNL     1     -11.580  14.972  67.037  1.00  0.00    -0.240 C  
HETATM    3  H   UNL     1     -13.322  14.781  67.966  1.00  0.00     0.000 HD 
HETATM    4  C   UNL     2      -8.395   8.094  62.962  1.00  0.00    -0.040 C  
HETATM    5  C   UNL     1     -10.067  14.798  67.361  1.00  0.00    -0.231 C  
HETATM    6  C   UNL     2      -7.774   8.683  64.219  1.00  0.00    -0.128 C  
HETATM    7  C   UNL     1      -9.823  13.357  67.886  1.00  0.00    -0.237 C  
HETATM    8  N   UNL     1      -9.339  14.991  66.068  1.00  0.00    -0.431 NA 
HETATM    9  C   UNL     1      -9.483  15.861  68.278  1.00  0.00    -0.201 C  
HETATM   10  H   UNL     1      -9.024  17.755  68.112  1.00  0.00     0.000 HD 
HETATM   11  H   UNL     1     -10.116  11.507  67.251  1.00  0.00     0.000 HD 
HETATM   12  H2  UNL     1      -9.556  15.875  65.607  1.00  0.00     0.000 HD 
HETATM   13  O   UNL     1     -10.265  12.388  66.931  1.00  0.00    -0.222 OA 
HETATM   14  O   UNL     1      -9.390  17.091  67.539  1.00  0.00    -0.230 OA 
HETATM   15  H1  UNL     1      -8.348  14.877  66.280  1.00  0.00     0.000 HD 
ENDROOT
BRANCH   6  16
HETATM   16  C   UNL     2      -7.666  10.209  64.195  1.00  0.00    -0.133 C  
BRANCH  16  17
HETATM   17  C   UNL     2      -8.156  10.914  65.463  1.00  0.00    -0.025 C  
BRANCH  17  18
HETATM   18  C   UNL     2      -7.053  11.219  66.504  1.00  0.00    -0.097 C  
HETATM   19  C   UNL     2      -6.504  10.053  67.357  1.00  0.00    -0.068 C  
HETATM   20  C   UNL     2      -5.290  10.413  68.226  1.00  0.00    -0.034 C  
HETATM   21  O   UNL     2      -6.068   9.035  66.449  1.00  0.00    -0.061 OA 
HETATM   22  C   UNL     2      -7.594   9.485  68.222  1.00  0.00    -0.078 C  
HETATM   23  H   UNL     2      -5.731   8.318  66.973  1.00  0.00     0.000 HD 
HETATM   24  C   UNL     2      -8.138  10.036  69.320  1.00  0.00    -0.141 C  
BRANCH  24  25
HETATM   25  C   UNL     2      -9.257   9.432  70.138  1.00  0.00    -0.268 C  
HETATM   26  C   UNL     2     -10.684   9.929  69.809  1.00  0.00    -0.267 C  
HETATM   27  C   UNL     2     -11.545   8.946  70.563  1.00  0.00    -0.189 C  
HETATM   28  O   UNL     2     -11.068   9.806  68.443  1.00  0.00    -0.430 OA 
HETATM   29  H   UNL     2     -11.945  10.111  68.241  1.00  0.00     0.000 HD 
HETATM   30  C   UNL     2     -10.879   7.599  70.284  1.00  0.00    -0.246 C  
HETATM   31  C   UNL     2      -9.366   7.878  70.080  1.00  0.00    -0.156 C  
HETATM   32  O   UNL     2     -11.191   6.733  71.364  1.00  0.00    -0.248 OA 
HETATM   33  H   UNL     2     -10.777   5.895  71.190  1.00  0.00     0.000 HD 
BRANCH  31  34
HETATM   34  C   UNL     2      -8.424   7.163  71.075  1.00  0.00    -0.129 C  
BRANCH  34  35
HETATM   35  C   UNL     2      -8.220   5.695  70.781  1.00  0.00    -0.118 C  
HETATM   36  C   UNL     2      -7.415   5.128  69.868  1.00  0.00    -0.061 C  
BRANCH  36  37
HETATM   37  C   UNL     2      -6.501   5.817  68.897  1.00  0.00    -0.045 C  
BRANCH  37  38
HETATM   38  C   UNL     2      -6.866   5.560  67.434  1.00  0.00    -0.060 C  
BRANCH  38  39
HETATM   39  C   UNL     2      -5.729   5.016  66.582  1.00  0.00    -0.018 C  
HETATM   40  C   UNL     2      -6.036   4.621  65.137  1.00  0.00    -0.030 C  
HETATM   41  O   UNL     2      -5.255   3.752  64.656  1.00  0.00    -0.008 OA 
HETATM   42  O   UNL     2      -6.976   5.207  64.508  1.00  0.00    -0.048 OA 
ENDBRANCH  38  39
ENDBRANCH  37  38
ENDBRANCH  36  37
ENDBRANCH  34  35
ENDBRANCH  31  34
ENDBRANCH  24  25
ENDBRANCH  17  18
ENDBRANCH  16  17
ENDBRANCH   6  16
TORSDOF 9
ENDMDL
MODEL      278
REMARK 921   NORMALIZED FREE ENERGY PREDICTED BY IDOCK:   -3.21 KCAL/MOL
REMARK 922        TOTAL FREE ENERGY PREDICTED BY IDOCK:   -6.82 KCAL/MOL
REMARK 923 INTER-LIGAND FREE ENERGY PREDICTED BY IDOCK:   -5.93 KCAL/MOL
REMARK 924 INTRA-LIGAND FREE ENERGY PREDICTED BY IDOCK:   -0.89 KCAL/MOL
REMARK 927      BINDING AFFINITY PREDICTED BY RF-SCORE:    0.00 PKD
ROOT
HETATM    1  O   UNL     1     -10.447  19.849  65.148  1.00  0.00    -0.210 OA 
HETATM    2  C   UNL     1      -9.376  19.038  65.620  1.00  0.00     0.602 C  
HETATM    3  H   UNL     1     -10.159  20.455  64.475  1.00  0.00     0.000 HD 
HETATM    4  C   UNL     2      -9.342  10.974  62.617  1.00  0.00    -0.348 C  
HETATM    5  C   UNL     1      -9.849  18.044  66.722  1.00  0.00    -0.335 C  
HETATM    6  C   UNL     2     -10.202  11.427  63.787  1.00  0.00    -0.433 C  
HETATM    7  C   UNL     1     -11.018  17.186  66.164  1.00  0.00     0.193 C  
HETATM    8  N   UNL     1      -8.676  17.162  67.018  1.00  0.00    -0.218 NA 
HETATM    9  C   UNL     1     -10.180  18.682  68.061  1.00  0.00    -0.385 C  
HETATM   10  H   UNL     1      -9.156  19.495  69.516  1.00  0.00     0.000 HD 
HETATM   11  H   UNL     1     -11.331  15.972  64.636  1.00  0.00     0.000 HD 
HETATM   12  H2  UNL     1      -7.833  17.677  67.272  1.00  0.00     0.000 HD 
HETATM   13  O   UNL     1     -10.617  16.496  64.976  1.00  0.00    -0.670 OA 
HETATM   14  O   UNL     1      -8.949  19.096  68.679  1.00  0.00    -0.354 OA 
HETATM   15  H1  UNL     1      -8.986  16.510  67.739  1.00  0.00     0.000 HD 
ENDROOT
BRANCH   6  16
HETATM   16  C   UNL     2      -9.455  12.300  64.797  1.00  0.00     0.196 C  
BRANCH  16  17
HETATM   17  C   UNL     2     -10.225  13.531  65.285  1.00  0.00    -0.323 C  
BRANCH  17  18
HETATM   18  C   UNL     2     -11.062  13.307  66.566  1.00  0.00    -0.313 C  
HETATM   19  C   UNL     2     -10.408  13.603  67.935  1.00  0.00    -0.249 C  
HETATM   20  C   UNL     2     -11.368  13.530  69.131  1.00  0.00    -0.333 C  
HETATM   21  O   UNL     2      -9.917  14.947  67.886  1.00  0.00    -0.217 OA 
HETATM   22  C   UNL     2      -9.245  12.679  68.164  1.00  0.00    -0.209 C  
HETATM   23  H   UNL     2      -9.514  15.128  68.727  1.00  0.00     0.000 HD 
HETATM   24  C   UNL     2      -9.286  11.370  68.463  1.00  0.00    -0.180 C  
BRANCH  24  25
HETATM   25  C   UNL     2      -8.080  10.478  68.654  1.00  0.00    -0.127 C  
HETATM   26  C   UNL     2      -6.769  11.187  69.068  1.00  0.00    -0.085 C  
HETATM   27  C   UNL     2      -5.886  10.025  69.451  1.00  0.00    -0.037 C  
HETATM   28  O   UNL     2      -6.862  11.998  70.235  1.00  0.00    -0.413 OA 
HETATM   29  H   UNL     2      -6.057  12.434  70.490  1.00  0.00     0.000 HD 
HETATM   30  C   UNL     2      -6.817   9.119  70.256  1.00  0.00    -0.055 C  
HETATM   31  C   UNL     2      -8.250   9.337  69.702  1.00  0.00    -0.126 C  
HETATM   32  O   UNL     2      -6.326   7.792  70.149  1.00  0.00    -0.033 OA 
HETATM   33  H   UNL     2      -6.905   7.229  70.649  1.00  0.00     0.000 HD 
BRANCH  31  34
HETATM   34  C   UNL     2      -8.932   8.076  69.125  1.00  0.00    -0.145 C  
BRANCH  34  35
HETATM   35  C   UNL     2      -9.861   7.382  70.095  1.00  0.00    -0.180 C  
HETATM   36  C   UNL     2     -10.393   6.153  70.011  1.00  0.00    -0.267 C  
BRANCH  36  37
HETATM   37  C   UNL     2     -10.196   5.140  68.919  1.00  0.00    -0.221 C  
BRANCH  37  38
HETATM   38  C   UNL     2      -8.825   4.463  68.961  1.00  0.00    -0.131 C  
BRANCH  38  39
HETATM   39  C   UNL     2      -8.299   4.181  70.360  1.00  0.00    -0.083 C  
HETATM   40  C   UNL     2      -8.841   2.958  71.101  1.00  0.00    -0.083 C  
HETATM   41  O   UNL     2      -8.781   3.041  72.359  1.00  0.00    -0.077 OA 
HETATM   42  O   UNL     2      -9.244   1.946  70.439  1.00  0.00    -0.085 OA 
ENDBRANCH  38  39
ENDBRANCH  37  38
ENDBRANCH  36  37
ENDBRANCH  34  35
ENDBRANCH  31  34
ENDBRANCH  24  25
ENDBRANCH  17  18
ENDBRANCH  16  17
ENDBRANCH   6  16
TORSDOF 9
ENDMDL
MODEL      279
REMARK 921   NORMALIZED FREE ENERGY PREDICTED BY IDOCK:   -3.16 KCAL/MOL
REMARK 922        TOTAL FREE ENERGY PREDICTED BY IDOCK:   -6.75 KCAL/MOL
REMARK 923 INTER-LIGAND FREE ENERGY PREDICTED BY IDOCK:   -5.68 KCAL/MOL
REMARK 924 INTRA-LIGAND FREE ENERGY PREDICTED BY IDOCK:   -1.07 KCAL/MOL
REMARK 927      BINDING AFFINITY PREDICTED BY RF-SCORE:    0.00 PKD
ROOT
HETATM    1  O   UNL     1     -10.673   6.235  66.849  1.00  0.00    -0.286 OA 
HETATM    2  C   UNL     1     -10.118   6.978  67.929  1.00  0.00    -0.169 C  
HETATM    3  H   UNL     1     -11.467   5.779  67.106  1.00  0.00     0.000 HD 
HETATM    4  C   UNL     2     -11.498  15.464  67.576  1.00  0.00    -0.228 C  
HETATM    5  C   UNL     1      -8.819   7.724  67.508  1.00  0.00    -0.124 C  
HETATM    6  C   UNL     2     -10.388  14.764  66.807  1.00  0.00    -0.268 C  
HETATM    7  C   UNL     1      -9.128   8.631  66.284  1.00  0.00    -0.186 C  
HETATM    8  N   UNL     1      -8.428   8.575  68.676  1.00  0.00    -0.130 NA 
HETATM    9  C   UNL     1      -7.610   6.829  67.280  1.00  0.00    -0.104 C  
HETATM   10  H   UNL     1      -6.405   5.789  68.417  1.00  0.00     0.000 HD 
HETATM   11  H   UNL     1     -10.370  10.104  65.842  1.00  0.00     0.000 HD 
HETATM   12  H2  UNL     1      -8.330   8.050  69.546  1.00  0.00     0.000 HD 
HETATM   13  O   UNL     1     -10.181   9.550  66.589  1.00  0.00    -0.242 OA 
HETATM   14  O   UNL     1      -7.160   6.349  68.559  1.00  0.00    -0.077 OA 
HETATM   15  H1  UNL     1      -7.577   9.064  68.400  1.00  0.00     0.000 HD 
ENDROOT
BRANCH   6  16
HETATM   16  C   UNL     2      -9.614  13.741  67.639  1.00  0.00    -0.219 C  
BRANCH  16  17
HETATM   17  C   UNL     2      -9.110  12.521  66.862  1.00  0.00    -0.213 C  
BRANCH  17  18
HETATM   18  C   UNL     2      -7.573  12.355  66.838  1.00  0.00     0.037 C  
HETATM   19  C   UNL     2      -6.771  12.738  68.104  1.00  0.00    -0.092 C  
HETATM   20  C   UNL     2      -5.282  12.368  68.053  1.00  0.00    -0.073 C  
HETATM   21  O   UNL     2      -7.337  12.008  69.198  1.00  0.00    -0.272 OA 
HETATM   22  C   UNL     2      -6.918  14.207  68.386  1.00  0.00    -0.099 C  
HETATM   23  H   UNL     2      -6.845  12.243  69.975  1.00  0.00     0.000 HD 
HETATM   24  C   UNL     2      -6.356  15.228  67.718  1.00  0.00    -0.181 C  
BRANCH  24  25
HETATM   25  C   UNL     2      -6.562  16.694  68.027  1.00  0.00    -0.146 C  
HETATM   26  C   UNL     2      -6.959  17.033  69.483  1.00  0.00    -0.052 C  
HETATM   27  C   UNL     2      -6.793  18.532  69.517  1.00  0.00    -0.097 C  
HETATM   28  O   UNL     2      -6.079  16.528  70.483  1.00  0.00     0.005 OA 
HETATM   29  H   UNL     2      -6.322  16.735  71.377  1.00  0.00     0.000 HD 
HETATM   30  C   UNL     2      -5.480  18.765  68.771  1.00  0.00    -0.194 C  
HETATM   31  C   UNL     2      -5.342  17.619  67.733  1.00  0.00    -0.137 C  
HETATM   32  O   UNL     2      -5.522  20.072  68.221  1.00  0.00    -0.200 OA 
HETATM   33  H   UNL     2      -4.706  20.216  67.757  1.00  0.00     0.000 HD 
BRANCH  31  34
HETATM   34  C   UNL     2      -5.261  18.071  66.258  1.00  0.00    -0.204 C  
BRANCH  34  35
HETATM   35  C   UNL     2      -6.510  17.781  65.457  1.00  0.00    -0.039 C  
HETATM   36  C   UNL     2      -7.659  18.474  65.418  1.00  0.00     0.513 C  
BRANCH  36  37
HETATM   37  C   UNL     2      -7.999  19.730  66.167  1.00  0.00    -0.351 C  
BRANCH  37  38
HETATM   38  C   UNL     2      -9.504  19.940  66.346  1.00  0.00    -0.513 C  
BRANCH  38  39
HETATM   39  C   UNL     2     -10.197  18.880  67.189  1.00  0.00    -0.445 C  
HETATM   40  C   UNL     2     -10.089  18.985  68.710  1.00  0.00    -0.363 C  
HETATM   41  O   UNL     2     -10.221  17.887  69.320  1.00  0.00    -0.305 OA 
HETATM   42  O   UNL     2      -9.944  20.127  69.256  1.00  0.00    -0.223 OA 
ENDBRANCH  38  39
ENDBRANCH  37  38
ENDBRANCH  36  37
ENDBRANCH  34  35
ENDBRANCH  31  34
ENDBRANCH  24  25
ENDBRANCH  17  18
ENDBRANCH  16  17
ENDBRANCH   6  16
TORSDOF 9
ENDMDL
MODEL      280
REMARK 921   NORMALIZED FREE ENERGY PREDICTED BY IDOCK:   -3.14 KCAL/MOL
REMARK 922        TOTAL FREE ENERGY PREDICTED BY IDOCK:   -6.72 KCAL/MOL
REMARK 923 INTER-LIGAND FREE ENERGY PREDICTED BY IDOCK:   -6.58 KCAL/MOL
REMARK 924 INTRA-LIGAND FREE ENERGY PREDICTED BY IDOCK:   -0.14 KCAL/MOL
REMARK 927      BINDING AFFINITY PREDICTED BY RF-SCORE:    0.00 PKD
ROOT
HETATM    1  O   UNL     1     -11.148  15.775  67.040  1.00  0.00    -0.270 OA 
HETATM    2  C   UNL     1      -9.954  15.016  67.199  1.00  0.00    -0.237 C  
HETATM    3  H   UNL     1     -11.282  16.036  66.137  1.00  0.00     0.000 HD 
HETATM    4  C   UNL     2     -11.141   6.540  68.092  1.00  0.00    -0.332 C  
HETATM    5  C   UNL     1      -9.734  14.588  68.679  1.00  0.00    -0.221 C  
HETATM    6  C   UNL     2     -11.278   7.530  69.239  1.00  0.00     0.136 C  
HETATM    7  C   UNL     1     -10.983  13.806  69.172  1.00  0.00    -0.208 C  
HETATM    8  N   UNL     1      -8.543  13.682  68.679  1.00  0.00    -0.338 NA 
HETATM    9  C   UNL     1      -9.342  15.716  69.621  1.00  0.00    -0.217 C  
HETATM   10  H   UNL     1      -7.745  16.808  69.909  1.00  0.00     0.000 HD 
HETATM   11  H   UNL     1     -11.997  12.195  68.635  1.00  0.00     0.000 HD 
HETATM   12  H2  UNL     1      -7.716  14.098  68.251  1.00  0.00     0.000 HD 
HETATM   13  O   UNL     1     -11.234  12.673  68.334  1.00  0.00    -0.242 OA 
HETATM   14  O   UNL     1      -7.990  16.103  69.321  1.00  0.00    -0.235 OA 
HETATM   15  H1  UNL     1      -8.399  13.401  69.649  1.00  0.00     0.000 HD 
ENDROOT
BRANCH   6  16
HETATM   16  C   UNL     2     -10.153   8.564  69.298  1.00  0.00    -0.203 C  
BRANCH  16  17
HETATM   17  C   UNL     2      -9.609   8.852  70.700  1.00  0.00    -0.262 C  
BRANCH  17  18
HETATM   18  C   UNL     2      -8.250   9.589  70.730  1.00  0.00    -0.084 C  
HETATM   19  C   UNL     2      -7.813  10.380  69.476  1.00  0.00    -0.155 C  
HETATM   20  C   UNL     2      -6.546  11.227  69.663  1.00  0.00    -0.136 C  
HETATM   21  O   UNL     2      -8.871  11.292  69.163  1.00  0.00    -0.374 OA 
HETATM   22  C   UNL     2      -7.630   9.447  68.312  1.00  0.00    -0.082 C  
HETATM   23  H   UNL     2      -8.603  11.778  68.392  1.00  0.00     0.000 HD 
HETATM   24  C   UNL     2      -6.628   8.573  68.114  1.00  0.00    -0.061 C  
BRANCH  24  25
HETATM   25  C   UNL     2      -6.508   7.633  66.936  1.00  0.00    -0.054 C  
HETATM   26  C   UNL     2      -5.428   6.532  67.052  1.00  0.00    -0.013 C  
HETATM   27  C   UNL     2      -5.770   5.627  65.893  1.00  0.00    -0.014 C  
HETATM   28  O   UNL     2      -5.519   5.714  68.215  1.00  0.00    -0.007 OA 
HETATM   29  H   UNL     2      -4.856   5.038  68.287  1.00  0.00     0.000 HD 
HETATM   30  C   UNL     2      -7.294   5.528  65.955  1.00  0.00    -0.077 C  
HETATM   31  C   UNL     2      -7.809   6.860  66.561  1.00  0.00    -0.106 C  
HETATM   32  O   UNL     2      -7.760   5.242  64.645  1.00  0.00    -0.080 OA 
HETATM   33  H   UNL     2      -8.708   5.180  64.684  1.00  0.00     0.000 HD 
BRANCH  31  34
HETATM   34  C   UNL     2      -8.761   7.673  65.654  1.00  0.00    -0.119 C  
BRANCH  34  35
HETATM   35  C   UNL     2      -8.051   8.527  64.628  1.00  0.00    -0.153 C  
HETATM   36  C   UNL     2      -8.529   9.569  63.931  1.00  0.00    -0.195 C  
BRANCH  36  37
HETATM   37  C   UNL     2      -9.908  10.161  63.994  1.00  0.00    -0.176 C  
BRANCH  37  38
HETATM   38  C   UNL     2     -10.135  11.278  62.974  1.00  0.00    -0.327 C  
BRANCH  38  39
HETATM   39  C   UNL     2     -11.269  12.231  63.320  1.00  0.00    -0.399 C  
HETATM   40  C   UNL     2     -11.612  12.438  64.795  1.00  0.00    -0.341 C  
HETATM   41  O   UNL     2     -12.803  12.800  65.008  1.00  0.00    -0.743 OA 
HETATM   42  O   UNL     2     -10.705  12.302  65.680  1.00  0.00    -0.253 OA 
ENDBRANCH  38  39
ENDBRANCH  37  38
ENDBRANCH  36  37
ENDBRANCH  34  35
ENDBRANCH  31  34
ENDBRANCH  24  25
ENDBRANCH  17  18
ENDBRANCH  16  17
ENDBRANCH   6  16
TORSDOF 9
ENDMDL
MODEL      281
REMARK 921   NORMALIZED FREE ENERGY PREDICTED BY IDOCK:   -3.04 KCAL/MOL
REMARK 922        TOTAL FREE ENERGY PREDICTED BY IDOCK:   -6.57 KCAL/MOL
REMARK 923 INTER-LIGAND FREE ENERGY PREDICTED BY IDOCK:   -6.43 KCAL/MOL
REMARK 924 INTRA-LIGAND FREE ENERGY PREDICTED BY IDOCK:   -0.14 KCAL/MOL
REMARK 927      BINDING AFFINITY PREDICTED BY RF-SCORE:    0.00 PKD
ROOT
HETATM    1  O   UNL     1      -9.873  19.680  69.378  1.00  0.00    -0.403 OA 
HETATM    2  C   UNL     1     -10.236  18.669  68.443  1.00  0.00    -0.371 C  
HETATM    3  H   UNL     1     -10.565  19.840  70.009  1.00  0.00     0.000 HD 
HETATM    4  C   UNL     2      -6.618  10.985  69.831  1.00  0.00    -0.142 C  
HETATM    5  C   UNL     1      -9.103  18.405  67.409  1.00  0.00    -0.264 C  
HETATM    6  C   UNL     2      -5.913  12.124  69.110  1.00  0.00    -0.075 C  
HETATM    7  C   UNL     1      -7.796  18.045  68.169  1.00  0.00    -0.272 C  
HETATM    8  N   UNL     1      -9.547  17.233  66.592  1.00  0.00    -0.265 NA 
HETATM    9  C   UNL     1      -8.897  19.513  66.387  1.00  0.00    -0.366 C  
HETATM   10  H   UNL     1      -9.881  20.187  64.837  1.00  0.00     0.000 HD 
HETATM   11  H   UNL     1      -7.203  16.690  69.481  1.00  0.00     0.000 HD 
HETATM   12  H2  UNL     1     -10.465  17.360  66.164  1.00  0.00     0.000 HD 
HETATM   13  O   UNL     1      -8.001  16.911  69.017  1.00  0.00    -0.236 OA 
HETATM   14  O   UNL     1     -10.009  19.495  65.475  1.00  0.00    -0.339 OA 
HETATM   15  H1  UNL     1      -8.805  17.060  65.915  1.00  0.00     0.000 HD 
ENDROOT
BRANCH   6  16
HETATM   16  C   UNL     2      -6.788  12.833  68.075  1.00  0.00    -0.100 C  
BRANCH  16  17
HETATM   17  C   UNL     2      -8.297  12.689  68.294  1.00  0.00    -0.165 C  
BRANCH  17  18
HETATM   18  C   UNL     2      -9.093  12.235  67.048  1.00  0.00    -0.201 C  
HETATM   19  C   UNL     2     -10.445  11.515  67.260  1.00  0.00    -0.212 C  
HETATM   20  C   UNL     2     -11.247  11.270  65.974  1.00  0.00    -0.108 C  
HETATM   21  O   UNL     2     -11.249  12.363  68.087  1.00  0.00    -0.229 OA 
HETATM   22  C   UNL     2     -10.231  10.213  67.979  1.00  0.00    -0.205 C  
HETATM   23  H   UNL     2     -12.079  11.921  68.218  1.00  0.00     0.000 HD 
HETATM   24  C   UNL     2      -9.703   9.081  67.482  1.00  0.00    -0.206 C  
BRANCH  24  25
HETATM   25  C   UNL     2      -9.482   7.804  68.261  1.00  0.00    -0.150 C  
HETATM   26  C   UNL     2     -10.757   7.039  68.688  1.00  0.00    -0.189 C  
HETATM   27  C   UNL     2     -10.194   5.720  69.157  1.00  0.00    -0.289 C  
HETATM   28  O   UNL     2     -11.653   6.718  67.629  1.00  0.00    -0.633 OA 
HETATM   29  H   UNL     2     -12.436   6.248  67.890  1.00  0.00     0.000 HD 
HETATM   30  C   UNL     2      -9.146   5.381  68.098  1.00  0.00    -0.109 C  
HETATM   31  C   UNL     2      -8.606   6.729  67.550  1.00  0.00    -0.120 C  
HETATM   32  O   UNL     2      -8.174   4.545  68.706  1.00  0.00    -0.080 OA 
HETATM   33  H   UNL     2      -7.522   4.335  68.047  1.00  0.00     0.000 HD 
BRANCH  31  34
HETATM   34  C   UNL     2      -7.089   6.956  67.739  1.00  0.00    -0.085 C  
BRANCH  34  35
HETATM   35  C   UNL     2      -6.750   8.167  68.579  1.00  0.00    -0.063 C  
HETATM   36  C   UNL     2      -6.033   9.249  68.237  1.00  0.00    -0.045 C  
BRANCH  36  37
HETATM   37  C   UNL     2      -5.379   9.537  66.916  1.00  0.00    -0.045 C  
BRANCH  37  38
HETATM   38  C   UNL     2      -6.372   9.933  65.822  1.00  0.00    -0.084 C  
BRANCH  38  39
HETATM   39  C   UNL     2      -5.804   9.910  64.411  1.00  0.00    -0.105 C  
HETATM   40  C   UNL     2      -6.393   8.913  63.413  1.00  0.00    -0.089 C  
HETATM   41  O   UNL     2      -5.608   8.583  62.480  1.00  0.00    -0.071 OA 
HETATM   42  O   UNL     2      -7.605   8.538  63.534  1.00  0.00    -0.113 OA 
ENDBRANCH  38  39
ENDBRANCH  37  38
ENDBRANCH  36  37
ENDBRANCH  34  35
ENDBRANCH  31  34
ENDBRANCH  24  25
ENDBRANCH  17  18
ENDBRANCH  16  17
ENDBRANCH   6  16
TORSDOF 9
ENDMDL
MODEL      282
REMARK 921   NORMALIZED FREE ENERGY PREDICTED BY IDOCK:   -3.04 KCAL/MOL
REMARK 922        TOTAL FREE ENERGY PREDICTED BY IDOCK:   -6.56 KCAL/MOL
REMARK 923 INTER-LIGAND FREE ENERGY PREDICTED BY IDOCK:   -5.19 KCAL/MOL
REMARK 924 INTRA-LIGAND FREE ENERGY PREDICTED BY IDOCK:   -1.37 KCAL/MOL
REMARK 927      BINDING AFFINITY PREDICTED BY RF-SCORE:    0.00 PKD
ROOT
HETATM    1  O   UNL     1     -14.110  15.647  70.419  1.00  0.00    -0.504 OA 
HETATM    2  C   UNL     1     -13.093  15.009  69.652  1.00  0.00     0.539 C  
HETATM    3  H   UNL     1     -14.907  15.766  69.916  1.00  0.00     0.000 HD 
HETATM    4  C   UNL     2     -11.885   6.681  71.455  1.00  0.00    -0.388 C  
HETATM    5  C   UNL     1     -11.787  14.813  70.476  1.00  0.00    -0.302 C  
HETATM    6  C   UNL     2     -11.281   7.811  72.274  1.00  0.00    -0.365 C  
HETATM    7  C   UNL     1     -12.117  14.018  71.770  1.00  0.00     0.051 C  
HETATM    8  N   UNL     1     -10.866  14.008  69.614  1.00  0.00    -0.454 NA 
HETATM    9  C   UNL     1     -11.010  16.090  70.757  1.00  0.00    -0.203 C  
HETATM   10  H   UNL     1      -9.922  17.327  69.703  1.00  0.00     0.000 HD 
HETATM   11  H   UNL     1     -12.926  12.277  72.241  1.00  0.00     0.000 HD 
HETATM   12  H2  UNL     1     -10.708  14.419  68.694  1.00  0.00     0.000 HD 
HETATM   13  O   UNL     1     -12.724  12.763  71.451  1.00  0.00    -0.351 OA 
HETATM   14  O   UNL     1     -10.408  16.529  69.528  1.00  0.00    -0.287 OA 
HETATM   15  H1  UNL     1     -10.010  13.879  70.153  1.00  0.00     0.000 HD 
ENDROOT
BRANCH   6  16
HETATM   16  C   UNL     2     -10.662   8.924  71.426  1.00  0.00    -0.382 C  
BRANCH  16  17
HETATM   17  C   UNL     2      -9.473   8.496  70.562  1.00  0.00    -0.193 C  
BRANCH  17  18
HETATM   18  C   UNL     2      -8.334   9.538  70.464  1.00  0.00    -0.203 C  
HETATM   19  C   UNL     2      -8.375  10.567  69.312  1.00  0.00    -0.137 C  
HETATM   20  C   UNL     2      -7.310  11.671  69.402  1.00  0.00     0.093 C  
HETATM   21  O   UNL     2      -9.647  11.221  69.376  1.00  0.00    -0.410 OA 
HETATM   22  C   UNL     2      -8.266   9.867  67.986  1.00  0.00    -0.113 C  
HETATM   23  H   UNL     2      -9.673  11.854  68.667  1.00  0.00     0.000 HD 
HETATM   24  C   UNL     2      -7.172   9.303  67.447  1.00  0.00    -0.080 C  
BRANCH  24  25
HETATM   25  C   UNL     2      -7.125   8.582  66.118  1.00  0.00    -0.077 C  
HETATM   26  C   UNL     2      -6.963   9.475  64.866  1.00  0.00    -0.106 C  
HETATM   27  C   UNL     2      -6.660   8.462  63.790  1.00  0.00    -0.076 C  
HETATM   28  O   UNL     2      -5.843  10.354  64.890  1.00  0.00    -0.121 OA 
HETATM   29  H   UNL     2      -5.743  10.903  64.121  1.00  0.00     0.000 HD 
HETATM   30  C   UNL     2      -5.669   7.512  64.461  1.00  0.00    -0.037 C  
HETATM   31  C   UNL     2      -6.001   7.511  65.977  1.00  0.00    -0.038 C  
HETATM   32  O   UNL     2      -5.779   6.251  63.820  1.00  0.00    -0.021 OA 
HETATM   33  H   UNL     2      -5.163   5.660  64.238  1.00  0.00     0.000 HD 
BRANCH  31  34
HETATM   34  C   UNL     2      -6.393   6.136  66.565  1.00  0.00    -0.045 C  
BRANCH  34  35
HETATM   35  C   UNL     2      -7.786   5.683  66.191  1.00  0.00    -0.095 C  
HETATM   36  C   UNL     2      -8.622   4.892  66.881  1.00  0.00    -0.104 C  
BRANCH  36  37
HETATM   37  C   UNL     2      -8.384   4.250  68.218  1.00  0.00    -0.098 C  
BRANCH  37  38
HETATM   38  C   UNL     2      -9.654   3.671  68.847  1.00  0.00    -0.157 C  
BRANCH  38  39
HETATM   39  C   UNL     2      -9.489   3.189  70.280  1.00  0.00    -0.224 C  
HETATM   40  C   UNL     2      -8.747   4.095  71.264  1.00  0.00    -0.101 C  
HETATM   41  O   UNL     2      -8.212   3.485  72.232  1.00  0.00    -0.076 OA 
HETATM   42  O   UNL     2      -8.763   5.358  71.096  1.00  0.00    -0.126 OA 
ENDBRANCH  38  39
ENDBRANCH  37  38
ENDBRANCH  36  37
ENDBRANCH  34  35
ENDBRANCH  31  34
ENDBRANCH  24  25
ENDBRANCH  17  18
ENDBRANCH  16  17
ENDBRANCH   6  16
TORSDOF 9
ENDMDL
MODEL      283
REMARK 921   NORMALIZED FREE ENERGY PREDICTED BY IDOCK:   -2.99 KCAL/MOL
REMARK 922        TOTAL FREE ENERGY PREDICTED BY IDOCK:   -6.48 KCAL/MOL
REMARK 923 INTER-LIGAND FREE ENERGY PREDICTED BY IDOCK:   -4.20 KCAL/MOL
REMARK 924 INTRA-LIGAND FREE ENERGY PREDICTED BY IDOCK:   -2.28 KCAL/MOL
REMARK 927      BINDING AFFINITY PREDICTED BY RF-SCORE:    0.00 PKD
ROOT
HETATM    1  O   UNL     1      -6.917  17.340  68.216  1.00  0.00    -0.174 OA 
HETATM    2  C   UNL     1      -7.878  16.624  68.985  1.00  0.00    -0.215 C  
HETATM    3  H   UNL     1      -6.468  17.997  68.736  1.00  0.00     0.000 HD 
HETATM    4  C   UNL     2      -5.447   8.721  71.371  1.00  0.00    -0.039 C  
HETATM    5  C   UNL     1      -8.611  15.548  68.133  1.00  0.00    -0.152 C  
HETATM    6  C   UNL     2      -6.020   9.042  69.999  1.00  0.00    -0.031 C  
HETATM    7  C   UNL     1      -7.558  14.598  67.498  1.00  0.00    -0.194 C  
HETATM    8  N   UNL     1      -9.472  14.777  69.085  1.00  0.00    -0.352 NA 
HETATM    9  C   UNL     1      -9.592  16.099  67.110  1.00  0.00    -0.229 C  
HETATM   10  H   UNL     1     -11.349  16.957  67.175  1.00  0.00     0.000 HD 
HETATM   11  H   UNL     1      -6.102  13.415  68.123  1.00  0.00     0.000 HD 
HETATM   12  H2  UNL     1     -10.105  15.366  69.628  1.00  0.00     0.000 HD 
HETATM   13  O   UNL     1      -6.745  13.995  68.510  1.00  0.00    -0.085 OA 
HETATM   14  O   UNL     1     -10.736  16.612  67.814  1.00  0.00    -0.334 OA 
HETATM   15  H1  UNL     1      -9.953  14.072  68.527  1.00  0.00     0.000 HD 
ENDROOT
BRANCH   6  16
HETATM   16  C   UNL     2      -7.251   9.948  70.043  1.00  0.00    -0.146 C  
BRANCH  16  17
HETATM   17  C   UNL     2      -8.257   9.623  71.151  1.00  0.00     0.497 C  
BRANCH  17  18
HETATM   18  C   UNL     2      -9.544   8.913  70.673  1.00  0.00    -0.262 C  
HETATM   19  C   UNL     2      -9.993   7.629  71.406  1.00  0.00    -0.181 C  
HETATM   20  C   UNL     2     -11.372   7.101  70.986  1.00  0.00    -0.310 C  
HETATM   21  O   UNL     2     -10.085   7.949  72.799  1.00  0.00    -0.248 OA 
HETATM   22  C   UNL     2      -8.964   6.547  71.234  1.00  0.00    -0.141 C  
HETATM   23  H   UNL     2     -10.360   7.160  73.250  1.00  0.00     0.000 HD 
HETATM   24  C   UNL     2      -8.709   5.829  70.127  1.00  0.00    -0.140 C  
BRANCH  24  25
HETATM   25  C   UNL     2      -7.637   4.770  70.000  1.00  0.00    -0.055 C  
HETATM   26  C   UNL     2      -7.992   3.373  70.562  1.00  0.00    -0.046 C  
HETATM   27  C   UNL     2      -6.871   2.519  70.022  1.00  0.00    -0.033 C  
HETATM   28  O   UNL     2      -9.191   2.800  70.049  1.00  0.00    -0.111 OA 
HETATM   29  H   UNL     2      -9.409   1.943  70.393  1.00  0.00     0.000 HD 
HETATM   30  C   UNL     2      -6.723   2.995  68.577  1.00  0.00    -0.040 C  
HETATM   31  C   UNL     2      -7.143   4.488  68.548  1.00  0.00    -0.053 C  
HETATM   32  O   UNL     2      -5.387   2.737  68.174  1.00  0.00    -0.012 OA 
HETATM   33  H   UNL     2      -5.295   3.033  67.276  1.00  0.00     0.000 HD 
BRANCH  31  34
HETATM   34  C   UNL     2      -6.048   5.472  68.076  1.00  0.00    -0.022 C  
BRANCH  34  35
HETATM   35  C   UNL     2      -6.218   5.940  66.649  1.00  0.00    -0.033 C  
HETATM   36  C   UNL     2      -7.315   6.434  66.055  1.00  0.00    -0.080 C  
BRANCH  36  37
HETATM   37  C   UNL     2      -8.670   6.653  66.665  1.00  0.00    -0.126 C  
BRANCH  37  38
HETATM   38  C   UNL     2      -9.404   7.867  66.092  1.00  0.00    -0.188 C  
BRANCH  38  39
HETATM   39  C   UNL     2      -9.351   9.111  66.966  1.00  0.00    -0.188 C  
HETATM   40  C   UNL     2      -8.924  10.429  66.318  1.00  0.00    -0.155 C  
HETATM   41  O   UNL     2      -8.424  11.266  67.120  1.00  0.00    -0.139 OA 
HETATM   42  O   UNL     2      -9.144  10.624  65.078  1.00  0.00    -0.187 OA 
ENDBRANCH  38  39
ENDBRANCH  37  38
ENDBRANCH  36  37
ENDBRANCH  34  35
ENDBRANCH  31  34
ENDBRANCH  24  25
ENDBRANCH  17  18
ENDBRANCH  16  17
ENDBRANCH   6  16
TORSDOF 9
ENDMDL
MODEL      284
REMARK 921   NORMALIZED FREE ENERGY PREDICTED BY IDOCK:   -2.92 KCAL/MOL
REMARK 922        TOTAL FREE ENERGY PREDICTED BY IDOCK:   -6.38 KCAL/MOL
REMARK 923 INTER-LIGAND FREE ENERGY PREDICTED BY IDOCK:   -6.22 KCAL/MOL
REMARK 924 INTRA-LIGAND FREE ENERGY PREDICTED BY IDOCK:   -0.16 KCAL/MOL
REMARK 927      BINDING AFFINITY PREDICTED BY RF-SCORE:    0.00 PKD
ROOT
HETATM    1  O   UNL     1     -11.877  14.372  64.168  1.00  0.00    -0.615 OA 
HETATM    2  C   UNL     1     -10.614  13.898  64.624  1.00  0.00    -0.412 C  
HETATM    3  H   UNL     1     -11.932  14.371  63.220  1.00  0.00     0.000 HD 
HETATM    4  C   UNL     2     -10.643   5.842  67.648  1.00  0.00    -0.313 C  
HETATM    5  C   UNL     1     -10.525  13.899  66.178  1.00  0.00    -0.297 C  
HETATM    6  C   UNL     2     -11.070   7.047  68.473  1.00  0.00    -0.071 C  
HETATM    7  C   UNL     1     -11.697  13.058  66.755  1.00  0.00    -0.382 C  
HETATM    8  N   UNL     1      -9.223  13.245  66.522  1.00  0.00    -0.401 NA 
HETATM    9  C   UNL     1     -10.427  15.277  66.814  1.00  0.00    -0.293 C  
HETATM   10  H   UNL     1      -9.058  16.669  66.934  1.00  0.00     0.000 HD 
HETATM   11  H   UNL     1     -12.385  11.212  66.585  1.00  0.00     0.000 HD 
HETATM   12  H2  UNL     1      -8.418  13.680  66.069  1.00  0.00     0.000 HD 
HETATM   13  O   UNL     1     -11.669  11.726  66.232  1.00  0.00    -0.482 OA 
HETATM   14  O   UNL     1      -9.119  15.808  66.537  1.00  0.00    -0.239 OA 
HETATM   15  H1  UNL     1      -9.164  13.245  67.540  1.00  0.00     0.000 HD 
ENDROOT
BRANCH   6  16
HETATM   16  C   UNL     2     -10.126   8.244  68.348  1.00  0.00    -0.227 C  
BRANCH  16  17
HETATM   17  C   UNL     2     -10.752   9.601  68.679  1.00  0.00    -0.233 C  
BRANCH  17  18
HETATM   18  C   UNL     2      -9.741  10.707  69.060  1.00  0.00    -0.214 C  
HETATM   19  C   UNL     2      -8.264  10.531  68.639  1.00  0.00    -0.130 C  
HETATM   20  C   UNL     2      -7.376  11.757  68.896  1.00  0.00    -0.093 C  
HETATM   21  O   UNL     2      -8.253  10.309  67.224  1.00  0.00    -0.120 OA 
HETATM   22  C   UNL     2      -7.671   9.327  69.315  1.00  0.00    -0.081 C  
HETATM   23  H   UNL     2      -7.346  10.200  66.966  1.00  0.00     0.000 HD 
HETATM   24  C   UNL     2      -7.321   9.204  70.606  1.00  0.00    -0.114 C  
BRANCH  24  25
HETATM   25  C   UNL     2      -6.755   7.955  71.243  1.00  0.00    -0.042 C  
HETATM   26  C   UNL     2      -6.400   8.058  72.745  1.00  0.00    -0.074 C  
HETATM   27  C   UNL     2      -6.160   6.615  73.115  1.00  0.00    -0.058 C  
HETATM   28  O   UNL     2      -7.460   8.498  73.589  1.00  0.00    -0.316 OA 
HETATM   29  H   UNL     2      -7.242   8.562  74.511  1.00  0.00     0.000 HD 
HETATM   30  C   UNL     2      -7.299   5.872  72.418  1.00  0.00    -0.091 C  
HETATM   31  C   UNL     2      -7.656   6.686  71.145  1.00  0.00    -0.089 C  
HETATM   32  O   UNL     2      -6.864   4.543  72.179  1.00  0.00    -0.046 OA 
HETATM   33  H   UNL     2      -7.573   4.081  71.745  1.00  0.00     0.000 HD 
BRANCH  31  34
HETATM   34  C   UNL     2      -7.494   5.926  69.809  1.00  0.00    -0.080 C  
BRANCH  34  35
HETATM   35  C   UNL     2      -6.173   6.174  69.117  1.00  0.00    -0.036 C  
HETATM   36  C   UNL     2      -5.457   5.333  68.356  1.00  0.00    -0.011 C  
BRANCH  36  37
HETATM   37  C   UNL     2      -5.790   3.915  67.990  1.00  0.00    -0.026 C  
BRANCH  37  38
HETATM   38  C   UNL     2      -6.951   3.801  67.001  1.00  0.00    -0.055 C  
BRANCH  38  39
HETATM   39  C   UNL     2      -7.768   2.524  67.126  1.00  0.00    -0.069 C  
HETATM   40  C   UNL     2      -9.072   2.578  67.924  1.00  0.00    -0.188 C  
HETATM   41  O   UNL     2      -9.431   1.470  68.412  1.00  0.00    -0.169 OA 
HETATM   42  O   UNL     2      -9.725   3.670  67.994  1.00  0.00    -0.152 OA 
ENDBRANCH  38  39
ENDBRANCH  37  38
ENDBRANCH  36  37
ENDBRANCH  34  35
ENDBRANCH  31  34
ENDBRANCH  24  25
ENDBRANCH  17  18
ENDBRANCH  16  17
ENDBRANCH   6  16
TORSDOF 9
ENDMDL
MODEL      285
REMARK 921   NORMALIZED FREE ENERGY PREDICTED BY IDOCK:   -2.90 KCAL/MOL
REMARK 922        TOTAL FREE ENERGY PREDICTED BY IDOCK:   -6.35 KCAL/MOL
REMARK 923 INTER-LIGAND FREE ENERGY PREDICTED BY IDOCK:   -5.66 KCAL/MOL
REMARK 924 INTRA-LIGAND FREE ENERGY PREDICTED BY IDOCK:   -0.69 KCAL/MOL
REMARK 927      BINDING AFFINITY PREDICTED BY RF-SCORE:    0.00 PKD
ROOT
HETATM    1  O   UNL     1     -11.406  15.305  66.735  1.00  0.00    -0.291 OA 
HETATM    2  C   UNL     1     -10.194  14.632  67.062  1.00  0.00    -0.261 C  
HETATM    3  H   UNL     1     -11.433  15.557  65.820  1.00  0.00     0.000 HD 
HETATM    4  C   UNL     2     -10.892   6.091  67.849  1.00  0.00    -0.378 C  
HETATM    5  C   UNL     1     -10.151  14.217  68.562  1.00  0.00    -0.246 C  
HETATM    6  C   UNL     2     -11.255   7.066  68.959  1.00  0.00    -0.054 C  
HETATM    7  C   UNL     1     -11.397  13.347  68.884  1.00  0.00    -0.287 C  
HETATM    8  N   UNL     1      -8.910  13.398  68.733  1.00  0.00    -0.382 NA 
HETATM    9  C   UNL     1      -9.973  15.368  69.540  1.00  0.00    -0.264 C  
HETATM   10  H   UNL     1      -8.512  16.570  70.036  1.00  0.00     0.000 HD 
HETATM   11  H   UNL     1     -12.211  11.670  68.226  1.00  0.00     0.000 HD 
HETATM   12  H2  UNL     1      -8.063  13.873  68.418  1.00  0.00     0.000 HD 
HETATM   13  O   UNL     1     -11.450  12.202  68.029  1.00  0.00    -0.274 OA 
HETATM   14  O   UNL     1      -8.623  15.851  69.425  1.00  0.00    -0.256 OA 
HETATM   15  H1  UNL     1      -8.881  13.126  69.715  1.00  0.00     0.000 HD 
ENDROOT
BRANCH   6  16
HETATM   16  C   UNL     2     -10.224   8.177  69.164  1.00  0.00    -0.219 C  
BRANCH  16  17
HETATM   17  C   UNL     2     -10.153   8.743  70.585  1.00  0.00    -0.248 C  
BRANCH  17  18
HETATM   18  C   UNL     2      -8.728   8.827  71.180  1.00  0.00    -0.265 C  
HETATM   19  C   UNL     2      -7.622   7.934  70.571  1.00  0.00    -0.081 C  
HETATM   20  C   UNL     2      -6.209   8.220  71.099  1.00  0.00    -0.036 C  
HETATM   21  O   UNL     2      -7.594   8.198  69.164  1.00  0.00    -0.092 OA 
HETATM   22  C   UNL     2      -7.955   6.483  70.777  1.00  0.00    -0.115 C  
HETATM   23  H   UNL     2      -6.916   7.649  68.790  1.00  0.00     0.000 HD 
HETATM   24  C   UNL     2      -7.893   5.784  71.923  1.00  0.00    -0.106 C  
BRANCH  24  25
HETATM   25  C   UNL     2      -8.270   4.328  72.080  1.00  0.00    -0.102 C  
HETATM   26  C   UNL     2      -8.283   3.782  73.527  1.00  0.00    -0.087 C  
HETATM   27  C   UNL     2      -8.965   2.447  73.357  1.00  0.00    -0.076 C  
HETATM   28  O   UNL     2      -9.095   4.512  74.443  1.00  0.00    -0.107 OA 
HETATM   29  H   UNL     2      -9.103   4.177  75.332  1.00  0.00     0.000 HD 
HETATM   30  C   UNL     2     -10.121   2.754  72.406  1.00  0.00    -0.164 C  
HETATM   31  C   UNL     2      -9.664   3.931  71.504  1.00  0.00    -0.247 C  
HETATM   32  O   UNL     2     -10.441   1.556  71.715  1.00  0.00    -0.121 OA 
HETATM   33  H   UNL     2     -11.160   1.748  71.124  1.00  0.00     0.000 HD 
BRANCH  31  34
HETATM   34  C   UNL     2      -9.633   3.629  69.989  1.00  0.00    -0.244 C  
BRANCH  34  35
HETATM   35  C   UNL     2      -8.240   3.493  69.418  1.00  0.00    -0.069 C  
HETATM   36  C   UNL     2      -7.875   3.254  68.149  1.00  0.00    -0.063 C  
BRANCH  36  37
HETATM   37  C   UNL     2      -8.769   3.061  66.958  1.00  0.00    -0.138 C  
BRANCH  37  38
HETATM   38  C   UNL     2      -8.001   2.913  65.642  1.00  0.00    -0.086 C  
BRANCH  38  39
HETATM   39  C   UNL     2      -8.427   3.880  64.548  1.00  0.00    -0.102 C  
HETATM   40  C   UNL     2      -7.432   4.957  64.112  1.00  0.00    -0.064 C  
HETATM   41  O   UNL     2      -7.965   5.988  63.612  1.00  0.00    -0.111 OA 
HETATM   42  O   UNL     2      -6.181   4.739  64.211  1.00  0.00    -0.025 OA 
ENDBRANCH  38  39
ENDBRANCH  37  38
ENDBRANCH  36  37
ENDBRANCH  34  35
ENDBRANCH  31  34
ENDBRANCH  24  25
ENDBRANCH  17  18
ENDBRANCH  16  17
ENDBRANCH   6  16
TORSDOF 9
ENDMDL
MODEL      286
REMARK 921   NORMALIZED FREE ENERGY PREDICTED BY IDOCK:   -2.87 KCAL/MOL
REMARK 922        TOTAL FREE ENERGY PREDICTED BY IDOCK:   -6.31 KCAL/MOL
REMARK 923 INTER-LIGAND FREE ENERGY PREDICTED BY IDOCK:   -4.83 KCAL/MOL
REMARK 924 INTRA-LIGAND FREE ENERGY PREDICTED BY IDOCK:   -1.48 KCAL/MOL
REMARK 927      BINDING AFFINITY PREDICTED BY RF-SCORE:    0.00 PKD
ROOT
HETATM    1  O   UNL     1     -13.950   9.648  71.505  1.00  0.00    -0.205 OA 
HETATM    2  C   UNL     1     -13.125   9.354  70.381  1.00  0.00     0.538 C  
HETATM    3  H   UNL     1     -14.731   9.106  71.520  1.00  0.00     0.000 HD 
HETATM    4  C   UNL     2      -6.153   4.627  72.141  1.00  0.00    -0.017 C  
HETATM    5  C   UNL     1     -11.846  10.240  70.357  1.00  0.00    -0.309 C  
HETATM    6  C   UNL     2      -6.219   6.132  72.353  1.00  0.00    -0.049 C  
HETATM    7  C   UNL     1     -11.079  10.061  71.697  1.00  0.00     0.398 C  
HETATM    8  N   UNL     1     -11.007   9.731  69.227  1.00  0.00    -0.315 NA 
HETATM    9  C   UNL     1     -12.085  11.702  70.012  1.00  0.00    -0.319 C  
HETATM   10  H   UNL     1     -12.564  12.699  68.399  1.00  0.00     0.000 HD 
HETATM   11  H   UNL     1     -10.286   8.574  72.732  1.00  0.00     0.000 HD 
HETATM   12  H2  UNL     1     -11.500   9.706  68.334  1.00  0.00     0.000 HD 
HETATM   13  O   UNL     1     -10.755   8.684  71.914  1.00  0.00    -0.292 OA 
HETATM   14  O   UNL     1     -12.414  11.786  68.615  1.00  0.00    -0.206 OA 
HETATM   15  H1  UNL     1     -10.168  10.311  69.211  1.00  0.00     0.000 HD 
ENDROOT
BRANCH   6  16
HETATM   16  C   UNL     2      -6.851   6.891  71.185  1.00  0.00    -0.058 C  
BRANCH  16  17
HETATM   17  C   UNL     2      -7.011   8.398  71.400  1.00  0.00    -0.072 C  
BRANCH  17  18
HETATM   18  C   UNL     2      -6.307   9.283  70.345  1.00  0.00    -0.060 C  
HETATM   19  C   UNL     2      -7.136   9.799  69.146  1.00  0.00    -0.067 C  
HETATM   20  C   UNL     2      -6.407  10.815  68.255  1.00  0.00    -0.057 C  
HETATM   21  O   UNL     2      -8.280  10.473  69.683  1.00  0.00    -0.321 OA 
HETATM   22  C   UNL     2      -7.613   8.645  68.310  1.00  0.00    -0.097 C  
HETATM   23  H   UNL     2      -8.789  10.789  68.946  1.00  0.00     0.000 HD 
HETATM   24  C   UNL     2      -6.884   7.879  67.481  1.00  0.00    -0.070 C  
BRANCH  24  25
HETATM   25  C   UNL     2      -7.410   6.707  66.684  1.00  0.00    -0.078 C  
HETATM   26  C   UNL     2      -8.427   5.794  67.408  1.00  0.00    -0.103 C  
HETATM   27  C   UNL     2      -8.953   4.944  66.278  1.00  0.00    -0.121 C  
HETATM   28  O   UNL     2      -9.565   6.462  67.945  1.00  0.00    -0.122 OA 
HETATM   29  H   UNL     2     -10.190   5.902  68.390  1.00  0.00     0.000 HD 
HETATM   30  C   UNL     2      -9.158   5.945  65.142  1.00  0.00     0.195 C  
HETATM   31  C   UNL     2      -8.108   7.071  65.338  1.00  0.00    -0.133 C  
HETATM   32  O   UNL     2      -9.057   5.234  63.918  1.00  0.00    -0.351 OA 
HETATM   33  H   UNL     2      -9.184   5.857  63.211  1.00  0.00     0.000 HD 
BRANCH  31  34
HETATM   34  C   UNL     2      -7.115   7.257  64.168  1.00  0.00    -0.067 C  
BRANCH  34  35
HETATM   35  C   UNL     2      -7.723   7.903  62.944  1.00  0.00    -0.132 C  
HETATM   36  C   UNL     2      -8.410   9.052  62.858  1.00  0.00    -0.202 C  
BRANCH  36  37
HETATM   37  C   UNL     2      -8.753  10.003  63.969  1.00  0.00    -0.222 C  
BRANCH  37  38
HETATM   38  C   UNL     2      -9.844  11.007  63.593  1.00  0.00    -0.397 C  
BRANCH  38  39
HETATM   39  C   UNL     2     -10.336  11.870  64.745  1.00  0.00    -0.323 C  
HETATM   40  C   UNL     2     -11.614  12.684  64.540  1.00  0.00    -0.345 C  
HETATM   41  O   UNL     2     -11.701  13.712  65.269  1.00  0.00    -0.317 OA 
HETATM   42  O   UNL     2     -12.507  12.268  63.731  1.00  0.00    -0.532 OA 
ENDBRANCH  38  39
ENDBRANCH  37  38
ENDBRANCH  36  37
ENDBRANCH  34  35
ENDBRANCH  31  34
ENDBRANCH  24  25
ENDBRANCH  17  18
ENDBRANCH  16  17
ENDBRANCH   6  16
TORSDOF 9
ENDMDL
MODEL      287
REMARK 921   NORMALIZED FREE ENERGY PREDICTED BY IDOCK:   -2.75 KCAL/MOL
REMARK 922        TOTAL FREE ENERGY PREDICTED BY IDOCK:   -6.12 KCAL/MOL
REMARK 923 INTER-LIGAND FREE ENERGY PREDICTED BY IDOCK:   -6.02 KCAL/MOL
REMARK 924 INTRA-LIGAND FREE ENERGY PREDICTED BY IDOCK:   -0.10 KCAL/MOL
REMARK 927      BINDING AFFINITY PREDICTED BY RF-SCORE:    0.00 PKD
ROOT
HETATM    1  O   UNL     1     -10.441   5.541  72.678  1.00  0.00    -0.196 OA 
HETATM    2  C   UNL     1      -9.196   5.437  71.994  1.00  0.00    -0.137 C  
HETATM    3  H   UNL     1     -10.358   5.311  73.596  1.00  0.00     0.000 HD 
HETATM    4  C   UNL     2      -5.295  12.941  70.408  1.00  0.00    -0.131 C  
HETATM    5  C   UNL     1      -9.330   5.813  70.490  1.00  0.00    -0.162 C  
HETATM    6  C   UNL     2      -6.409  12.377  69.539  1.00  0.00    -0.116 C  
HETATM    7  C   UNL     1      -9.931   7.241  70.376  1.00  0.00    -0.191 C  
HETATM    8  N   UNL     1      -7.941   5.808  69.933  1.00  0.00    -0.095 NA 
HETATM    9  C   UNL     1     -10.075   4.797  69.639  1.00  0.00    -0.205 C  
HETATM   10  H   UNL     1      -9.700   3.005  68.950  1.00  0.00     0.000 HD 
HETATM   11  H   UNL     1      -9.489   9.061  71.010  1.00  0.00     0.000 HD 
HETATM   12  H2  UNL     1      -7.444   4.931  70.088  1.00  0.00     0.000 HD 
HETATM   13  O   UNL     1      -9.122   8.189  71.080  1.00  0.00    -0.142 OA 
HETATM   14  O   UNL     1      -9.234   3.640  69.482  1.00  0.00    -0.124 OA 
HETATM   15  H1  UNL     1      -8.029   6.056  68.947  1.00  0.00     0.000 HD 
ENDROOT
BRANCH   6  16
HETATM   16  C   UNL     2      -6.249  10.888  69.224  1.00  0.00    -0.055 C  
BRANCH  16  17
HETATM   17  C   UNL     2      -5.362  10.572  68.017  1.00  0.00    -0.037 C  
BRANCH  17  18
HETATM   18  C   UNL     2      -6.037   9.710  66.924  1.00  0.00    -0.063 C  
HETATM   19  C   UNL     2      -6.708  10.428  65.730  1.00  0.00    -0.126 C  
HETATM   20  C   UNL     2      -7.185   9.494  64.609  1.00  0.00    -0.113 C  
HETATM   21  O   UNL     2      -5.725  11.293  65.151  1.00  0.00    -0.471 OA 
HETATM   22  C   UNL     2      -7.857  11.269  66.211  1.00  0.00    -0.069 C  
HETATM   23  H   UNL     2      -6.137  11.735  64.419  1.00  0.00     0.000 HD 
HETATM   24  C   UNL     2      -9.059  10.845  66.636  1.00  0.00    -0.175 C  
BRANCH  24  25
HETATM   25  C   UNL     2     -10.173  11.736  67.139  1.00  0.00    -0.236 C  
HETATM   26  C   UNL     2     -11.499  11.028  67.503  1.00  0.00    -0.185 C  
HETATM   27  C   UNL     2     -12.254  12.117  68.224  1.00  0.00     0.173 C  
HETATM   28  O   UNL     2     -11.379   9.961  68.440  1.00  0.00    -0.508 OA 
HETATM   29  H   UNL     2     -12.193   9.526  68.663  1.00  0.00     0.000 HD 
HETATM   30  C   UNL     2     -11.195  12.753  69.123  1.00  0.00    -0.237 C  
HETATM   31  C   UNL     2      -9.831  12.588  68.400  1.00  0.00    -0.202 C  
HETATM   32  O   UNL     2     -11.587  14.094  69.369  1.00  0.00    -0.266 OA 
HETATM   33  H   UNL     2     -10.928  14.489  69.927  1.00  0.00     0.000 HD 
BRANCH  31  34
HETATM   34  C   UNL     2      -9.099  13.907  68.064  1.00  0.00    -0.192 C  
BRANCH  34  35
HETATM   35  C   UNL     2      -9.914  15.149  68.342  1.00  0.00    -0.222 C  
HETATM   36  C   UNL     2     -10.099  16.222  67.558  1.00  0.00    -0.258 C  
BRANCH  36  37
HETATM   37  C   UNL     2      -9.538  16.464  66.185  1.00  0.00    -0.356 C  
BRANCH  37  38
HETATM   38  C   UNL     2      -8.009  16.430  66.141  1.00  0.00    -0.130 C  
BRANCH  38  39
HETATM   39  C   UNL     2      -7.337  17.770  66.400  1.00  0.00    -0.310 C  
HETATM   40  C   UNL     2      -6.357  17.871  67.570  1.00  0.00    -0.167 C  
HETATM   41  O   UNL     2      -6.227  19.034  68.043  1.00  0.00    -0.211 OA 
HETATM   42  O   UNL     2      -5.709  16.838  67.942  1.00  0.00    -0.107 OA 
ENDBRANCH  38  39
ENDBRANCH  37  38
ENDBRANCH  36  37
ENDBRANCH  34  35
ENDBRANCH  31  34
ENDBRANCH  24  25
ENDBRANCH  17  18
ENDBRANCH  16  17
ENDBRANCH   6  16
TORSDOF 9
ENDMDL
MODEL      288
REMARK 921   NORMALIZED FREE ENERGY PREDICTED BY IDOCK:   -2.63 KCAL/MOL
REMARK 922        TOTAL FREE ENERGY PREDICTED BY IDOCK:   -5.95 KCAL/MOL
REMARK 923 INTER-LIGAND FREE ENERGY PREDICTED BY IDOCK:   -4.12 KCAL/MOL
REMARK 924 INTRA-LIGAND FREE ENERGY PREDICTED BY IDOCK:   -1.82 KCAL/MOL
REMARK 927      BINDING AFFINITY PREDICTED BY RF-SCORE:    0.00 PKD
ROOT
HETATM    1  O   UNL     1     -11.178  15.732  66.379  1.00  0.00    -0.148 OA 
HETATM    2  C   UNL     1     -10.102  15.050  67.015  1.00  0.00    -0.244 C  
HETATM    3  H   UNL     1     -10.934  16.048  65.517  1.00  0.00     0.000 HD 
HETATM    4  C   UNL     2     -10.743   6.468  67.004  1.00  0.00    -0.434 C  
HETATM    5  C   UNL     1     -10.501  14.531  68.427  1.00  0.00    -0.246 C  
HETATM    6  C   UNL     2     -11.455   7.359  68.010  1.00  0.00     0.720 C  
HETATM    7  C   UNL     1     -11.760  13.629  68.299  1.00  0.00    -0.363 C  
HETATM    8  N   UNL     1      -9.346  13.714  68.914  1.00  0.00    -0.398 NA 
HETATM    9  C   UNL     1     -10.663  15.612  69.484  1.00  0.00    -0.271 C  
HETATM   10  H   UNL     1      -9.457  16.790  70.477  1.00  0.00     0.000 HD 
HETATM   11  H   UNL     1     -12.285  11.994  67.318  1.00  0.00     0.000 HD 
HETATM   12  H2  UNL     1      -8.458  14.218  68.903  1.00  0.00     0.000 HD 
HETATM   13  O   UNL     1     -11.516  12.546  67.396  1.00  0.00    -0.298 OA 
HETATM   14  O   UNL     1      -9.357  16.114  69.817  1.00  0.00    -0.082 OA 
HETATM   15  H1  UNL     1      -9.607  13.374  69.839  1.00  0.00     0.000 HD 
ENDROOT
BRANCH   6  16
HETATM   16  C   UNL     2     -10.569   8.463  68.590  1.00  0.00    -0.149 C  
BRANCH  16  17
HETATM   17  C   UNL     2     -10.450   8.466  70.116  1.00  0.00    -0.230 C  
BRANCH  17  18
HETATM   18  C   UNL     2      -9.005   8.577  70.655  1.00  0.00    -0.182 C  
HETATM   19  C   UNL     2      -8.004   9.479  69.897  1.00  0.00    -0.149 C  
HETATM   20  C   UNL     2      -6.656   9.673  70.606  1.00  0.00    -0.114 C  
HETATM   21  O   UNL     2      -8.601  10.777  69.793  1.00  0.00    -0.364 OA 
HETATM   22  C   UNL     2      -7.775   8.948  68.510  1.00  0.00    -0.098 C  
HETATM   23  H   UNL     2      -7.986  11.331  69.327  1.00  0.00     0.000 HD 
HETATM   24  C   UNL     2      -7.067   7.862  68.157  1.00  0.00    -0.089 C  
BRANCH  24  25
HETATM   25  C   UNL     2      -6.893   7.354  66.743  1.00  0.00    -0.066 C  
HETATM   26  C   UNL     2      -6.827   8.432  65.637  1.00  0.00    -0.066 C  
HETATM   27  C   UNL     2      -6.366   7.634  64.442  1.00  0.00    -0.048 C  
HETATM   28  O   UNL     2      -5.838   9.438  65.830  1.00  0.00    -0.052 OA 
HETATM   29  H   UNL     2      -5.797  10.101  65.150  1.00  0.00     0.000 HD 
HETATM   30  C   UNL     2      -5.269   6.736  65.013  1.00  0.00    -0.026 C  
HETATM   31  C   UNL     2      -5.631   6.471  66.499  1.00  0.00    -0.014 C  
HETATM   32  O   UNL     2      -5.192   5.577  64.198  1.00  0.00    -0.009 OA 
HETATM   33  H   UNL     2      -4.510   5.019  64.553  1.00  0.00     0.000 HD 
BRANCH  31  34
HETATM   34  C   UNL     2      -5.844   4.987  66.872  1.00  0.00    -0.022 C  
BRANCH  34  35
HETATM   35  C   UNL     2      -7.291   4.549  66.848  1.00  0.00    -0.081 C  
HETATM   36  C   UNL     2      -8.073   4.186  67.876  1.00  0.00    -0.090 C  
BRANCH  36  37
HETATM   37  C   UNL     2      -7.706   4.123  69.331  1.00  0.00    -0.053 C  
BRANCH  37  38
HETATM   38  C   UNL     2      -8.672   4.892  70.234  1.00  0.00    -0.122 C  
BRANCH  38  39
HETATM   39  C   UNL     2      -8.166   5.128  71.649  1.00  0.00    -0.116 C  
HETATM   40  C   UNL     2      -7.883   3.907  72.526  1.00  0.00    -0.080 C  
HETATM   41  O   UNL     2      -7.960   4.127  73.767  1.00  0.00    -0.086 OA 
HETATM   42  O   UNL     2      -7.539   2.806  71.984  1.00  0.00    -0.049 OA 
ENDBRANCH  38  39
ENDBRANCH  37  38
ENDBRANCH  36  37
ENDBRANCH  34  35
ENDBRANCH  31  34
ENDBRANCH  24  25
ENDBRANCH  17  18
ENDBRANCH  16  17
ENDBRANCH   6  16
TORSDOF 9
ENDMDL
MODEL      289
REMARK 921   NORMALIZED FREE ENERGY PREDICTED BY IDOCK:   -2.58 KCAL/MOL
REMARK 922        TOTAL FREE ENERGY PREDICTED BY IDOCK:   -5.86 KCAL/MOL
REMARK 923 INTER-LIGAND FREE ENERGY PREDICTED BY IDOCK:   -6.34 KCAL/MOL
REMARK 924 INTRA-LIGAND FREE ENERGY PREDICTED BY IDOCK:    0.48 KCAL/MOL
REMARK 927      BINDING AFFINITY PREDICTED BY RF-SCORE:    0.00 PKD
ROOT
HETATM    1  O   UNL     1     -11.475   9.054  71.368  1.00  0.00    -0.279 OA 
HETATM    2  C   UNL     1     -10.110   8.677  71.521  1.00  0.00    -0.274 C  
HETATM    3  H   UNL     1     -11.662   9.882  71.795  1.00  0.00     0.000 HD 
HETATM    4  C   UNL     2      -5.208   9.918  64.559  1.00  0.00    -0.072 C  
HETATM    5  C   UNL     1      -9.804   7.321  70.822  1.00  0.00    -0.178 C  
HETATM    6  C   UNL     2      -6.102   8.702  64.746  1.00  0.00    -0.064 C  
HETATM    7  C   UNL     1     -10.210   7.419  69.325  1.00  0.00    -0.199 C  
HETATM    8  N   UNL     1      -8.324   7.121  70.928  1.00  0.00    -0.120 NA 
HETATM    9  C   UNL     1     -10.393   6.099  71.508  1.00  0.00    -0.209 C  
HETATM   10  H   UNL     1     -10.028   5.104  73.152  1.00  0.00     0.000 HD 
HETATM   11  H   UNL     1      -9.774   8.560  67.771  1.00  0.00     0.000 HD 
HETATM   12  H2  UNL     1      -7.975   7.172  71.885  1.00  0.00     0.000 HD 
HETATM   13  O   UNL     1      -9.526   8.501  68.685  1.00  0.00    -0.142 OA 
HETATM   14  O   UNL     1      -9.660   5.868  72.723  1.00  0.00    -0.156 OA 
HETATM   15  H1  UNL     1      -8.123   6.233  70.469  1.00  0.00     0.000 HD 
ENDROOT
BRANCH   6  16
HETATM   16  C   UNL     2      -6.013   8.082  66.142  1.00  0.00    -0.041 C  
BRANCH  16  17
HETATM   17  C   UNL     2      -6.610   6.677  66.268  1.00  0.00    -0.044 C  
BRANCH  17  18
HETATM   18  C   UNL     2      -8.067   6.635  66.786  1.00  0.00    -0.113 C  
HETATM   19  C   UNL     2      -9.217   6.724  65.756  1.00  0.00     0.114 C  
HETATM   20  C   UNL     2     -10.617   6.488  66.341  1.00  0.00     0.038 C  
HETATM   21  O   UNL     2      -8.998   5.691  64.789  1.00  0.00    -0.357 OA 
HETATM   22  C   UNL     2      -9.180   8.051  65.051  1.00  0.00     0.584 C  
HETATM   23  H   UNL     2      -9.704   5.746  64.157  1.00  0.00     0.000 HD 
HETATM   24  C   UNL     2      -9.527   9.250  65.547  1.00  0.00    -0.309 C  
BRANCH  24  25
HETATM   25  C   UNL     2      -9.442  10.563  64.800  1.00  0.00    -0.312 C  
HETATM   26  C   UNL     2      -9.123  10.466  63.290  1.00  0.00    -0.263 C  
HETATM   27  C   UNL     2      -9.401  11.872  62.816  1.00  0.00     0.396 C  
HETATM   28  O   UNL     2      -9.998   9.629  62.539  1.00  0.00    -0.368 OA 
HETATM   29  H   UNL     2      -9.803   9.570  61.611  1.00  0.00     0.000 HD 
HETATM   30  C   UNL     2     -10.700  12.240  63.530  1.00  0.00    -0.451 C  
HETATM   31  C   UNL     2     -10.717  11.458  64.870  1.00  0.00    -0.350 C  
HETATM   32  O   UNL     2     -10.736  13.653  63.658  1.00  0.00    -0.399 OA 
HETATM   33  H   UNL     2     -11.544  13.882  64.103  1.00  0.00     0.000 HD 
BRANCH  31  34
HETATM   34  C   UNL     2     -10.779  12.331  66.144  1.00  0.00    -0.296 C  
BRANCH  34  35
HETATM   35  C   UNL     2     -11.791  13.451  66.071  1.00  0.00    -0.423 C  
HETATM   36  C   UNL     2     -11.873  14.556  66.828  1.00  0.00    -0.390 C  
BRANCH  36  37
HETATM   37  C   UNL     2     -10.967  14.968  67.953  1.00  0.00    -0.291 C  
BRANCH  37  38
HETATM   38  C   UNL     2     -10.665  16.467  67.970  1.00  0.00    -0.343 C  
BRANCH  38  39
HETATM   39  C   UNL     2     -10.815  17.160  66.624  1.00  0.00     0.043 C  
HETATM   40  C   UNL     2     -10.435  18.639  66.528  1.00  0.00    -0.420 C  
HETATM   41  O   UNL     2     -11.020  19.269  65.603  1.00  0.00    -0.353 OA 
HETATM   42  O   UNL     2      -9.545  19.114  67.307  1.00  0.00    -0.304 OA 
ENDBRANCH  38  39
ENDBRANCH  37  38
ENDBRANCH  36  37
ENDBRANCH  34  35
ENDBRANCH  31  34
ENDBRANCH  24  25
ENDBRANCH  17  18
ENDBRANCH  16  17
ENDBRANCH   6  16
TORSDOF 9
ENDMDL
MODEL      290
REMARK 921   NORMALIZED FREE ENERGY PREDICTED BY IDOCK:   -2.51 KCAL/MOL
REMARK 922        TOTAL FREE ENERGY PREDICTED BY IDOCK:   -5.76 KCAL/MOL
REMARK 923 INTER-LIGAND FREE ENERGY PREDICTED BY IDOCK:   -4.75 KCAL/MOL
REMARK 924 INTRA-LIGAND FREE ENERGY PREDICTED BY IDOCK:   -1.01 KCAL/MOL
REMARK 927      BINDING AFFINITY PREDICTED BY RF-SCORE:    0.00 PKD
ROOT
HETATM    1  O   UNL     1     -13.007   9.472  69.835  1.00  0.00     0.194 OA 
HETATM    2  C   UNL     1     -11.639   9.550  70.224  1.00  0.00    -0.169 C  
HETATM    3  H   UNL     1     -13.345  10.318  69.567  1.00  0.00     0.000 HD 
HETATM    4  C   UNL     2      -6.044   6.561  64.408  1.00  0.00    -0.034 C  
HETATM    5  C   UNL     1     -11.084   8.164  70.663  1.00  0.00    -0.254 C  
HETATM    6  C   UNL     2      -6.805   5.666  65.375  1.00  0.00    -0.056 C  
HETATM    7  C   UNL     1     -11.298   7.143  69.512  1.00  0.00    -0.017 C  
HETATM    8  N   UNL     1      -9.618   8.356  70.897  1.00  0.00    -0.168 NA 
HETATM    9  C   UNL     1     -11.609   7.657  71.998  1.00  0.00    -0.291 C  
HETATM   10  H   UNL     1     -11.348   8.133  73.877  1.00  0.00     0.000 HD 
HETATM   11  H   UNL     1     -10.800   6.974  67.606  1.00  0.00     0.000 HD 
HETATM   12  H2  UNL     1      -9.407   9.105  71.557  1.00  0.00     0.000 HD 
HETATM   13  O   UNL     1     -10.670   7.598  68.309  1.00  0.00    -0.155 OA 
HETATM   14  O   UNL     1     -11.020   8.450  73.043  1.00  0.00    -0.142 OA 
HETATM   15  H1  UNL     1      -9.255   7.447  71.185  1.00  0.00     0.000 HD 
ENDROOT
BRANCH   6  16
HETATM   16  C   UNL     2      -6.827   6.191  66.812  1.00  0.00    -0.062 C  
BRANCH  16  17
HETATM   17  C   UNL     2      -6.805   7.716  66.945  1.00  0.00    -0.068 C  
BRANCH  17  18
HETATM   18  C   UNL     2      -8.119   8.423  66.537  1.00  0.00    -0.101 C  
HETATM   19  C   UNL     2      -8.035   9.853  65.955  1.00  0.00    -0.114 C  
HETATM   20  C   UNL     2      -9.362  10.399  65.409  1.00  0.00    -0.252 C  
HETATM   21  O   UNL     2      -7.126   9.806  64.849  1.00  0.00    -0.112 OA 
HETATM   22  C   UNL     2      -7.484  10.800  66.984  1.00  0.00    -0.114 C  
HETATM   23  H   UNL     2      -7.074  10.685  64.493  1.00  0.00     0.000 HD 
HETATM   24  C   UNL     2      -8.108  11.277  68.074  1.00  0.00    -0.128 C  
BRANCH  24  25
HETATM   25  C   UNL     2      -7.494  12.207  69.097  1.00  0.00     0.121 C  
HETATM   26  C   UNL     2      -6.365  11.609  69.968  1.00  0.00    -0.098 C  
HETATM   27  C   UNL     2      -5.796  12.836  70.637  1.00  0.00    -0.095 C  
HETATM   28  O   UNL     2      -5.283  11.032  69.244  1.00  0.00    -0.042 OA 
HETATM   29  H   UNL     2      -4.589  10.664  69.779  1.00  0.00     0.000 HD 
HETATM   30  C   UNL     2      -5.734  13.864  69.508  1.00  0.00    -0.093 C  
HETATM   31  C   UNL     2      -6.885  13.523  68.524  1.00  0.00    -0.099 C  
HETATM   32  O   UNL     2      -5.806  15.154  70.094  1.00  0.00    -0.127 OA 
HETATM   33  H   UNL     2      -5.768  15.792  69.392  1.00  0.00     0.000 HD 
BRANCH  31  34
HETATM   34  C   UNL     2      -7.933  14.641  68.322  1.00  0.00    -0.133 C  
BRANCH  34  35
HETATM   35  C   UNL     2      -9.293  14.139  67.896  1.00  0.00    -0.204 C  
HETATM   36  C   UNL     2     -10.022  14.499  66.828  1.00  0.00    -0.267 C  
BRANCH  36  37
HETATM   37  C   UNL     2      -9.666  15.503  65.770  1.00  0.00    -0.383 C  
BRANCH  37  38
HETATM   38  C   UNL     2      -9.299  16.876  66.336  1.00  0.00    -0.303 C  
BRANCH  38  39
HETATM   39  C   UNL     2     -10.409  17.556  67.122  1.00  0.00    -0.330 C  
HETATM   40  C   UNL     2     -10.909  18.916  66.633  1.00  0.00    -0.182 C  
HETATM   41  O   UNL     2     -11.424  19.637  67.533  1.00  0.00     0.050 OA 
HETATM   42  O   UNL     2     -10.840  19.207  65.394  1.00  0.00    -0.518 OA 
ENDBRANCH  38  39
ENDBRANCH  37  38
ENDBRANCH  36  37
ENDBRANCH  34  35
ENDBRANCH  31  34
ENDBRANCH  24  25
ENDBRANCH  17  18
ENDBRANCH  16  17
ENDBRANCH   6  16
TORSDOF 9
ENDMDL
MODEL      291
REMARK 921   NORMALIZED FREE ENERGY PREDICTED BY IDOCK:   -2.46 KCAL/MOL
REMARK 922        TOTAL FREE ENERGY PREDICTED BY IDOCK:   -5.69 KCAL/MOL
REMARK 923 INTER-LIGAND FREE ENERGY PREDICTED BY IDOCK:   -4.04 KCAL/MOL
REMARK 924 INTRA-LIGAND FREE ENERGY PREDICTED BY IDOCK:   -1.65 KCAL/MOL
REMARK 927      BINDING AFFINITY PREDICTED BY RF-SCORE:    0.00 PKD
ROOT
HETATM    1  O   UNL     1     -13.007  11.809  71.671  1.00  0.00    -0.425 OA 
HETATM    2  C   UNL     1     -13.128  11.603  70.267  1.00  0.00     0.521 C  
HETATM    3  H   UNL     1     -13.770  11.493  72.140  1.00  0.00     0.000 HD 
HETATM    4  C   UNL     2      -8.555   5.006  67.165  1.00  0.00    -0.104 C  
HETATM    5  C   UNL     1     -11.877  12.121  69.499  1.00  0.00    -0.321 C  
HETATM    6  C   UNL     2      -7.963   6.381  67.436  1.00  0.00    -0.116 C  
HETATM    7  C   UNL     1     -10.607  11.434  70.074  1.00  0.00     0.606 C  
HETATM    8  N   UNL     1     -12.065  11.711  68.071  1.00  0.00    -0.572 NA 
HETATM    9  C   UNL     1     -11.744  13.634  69.436  1.00  0.00    -0.324 C  
HETATM   10  H   UNL     1     -12.669  15.083  68.502  1.00  0.00     0.000 HD 
HETATM   11  H   UNL     1      -9.944   9.590  70.338  1.00  0.00     0.000 HD 
HETATM   12  H2  UNL     1     -12.948  12.030  67.670  1.00  0.00     0.000 HD 
HETATM   13  O   UNL     1     -10.720  10.010  69.987  1.00  0.00    -0.257 OA 
HETATM   14  O   UNL     1     -12.751  14.137  68.542  1.00  0.00     0.289 OA 
HETATM   15  H1  UNL     1     -11.246  12.050  67.567  1.00  0.00     0.000 HD 
ENDROOT
BRANCH   6  16
HETATM   16  C   UNL     2      -8.834   7.535  66.937  1.00  0.00    -0.145 C  
BRANCH  16  17
HETATM   17  C   UNL     2      -8.576   8.883  67.615  1.00  0.00    -0.124 C  
BRANCH  17  18
HETATM   18  C   UNL     2      -7.213   9.531  67.275  1.00  0.00    -0.087 C  
HETATM   19  C   UNL     2      -6.626  10.569  68.258  1.00  0.00    -0.059 C  
HETATM   20  C   UNL     2      -5.193  11.017  67.934  1.00  0.00    -0.039 C  
HETATM   21  O   UNL     2      -6.578   9.949  69.548  1.00  0.00    -0.044 OA 
HETATM   22  C   UNL     2      -7.524  11.771  68.342  1.00  0.00    -0.105 C  
HETATM   23  H   UNL     2      -6.217  10.587  70.152  1.00  0.00     0.000 HD 
HETATM   24  C   UNL     2      -7.690  12.734  67.419  1.00  0.00    -0.165 C  
BRANCH  24  25
HETATM   25  C   UNL     2      -8.634  13.909  67.543  1.00  0.00    -0.195 C  
HETATM   26  C   UNL     2      -8.398  14.847  68.749  1.00  0.00    -0.170 C  
HETATM   27  C   UNL     2      -9.278  16.026  68.413  1.00  0.00    -0.196 C  
HETATM   28  O   UNL     2      -7.079  15.374  68.857  1.00  0.00    -0.116 OA 
HETATM   29  H   UNL     2      -6.933  15.950  69.598  1.00  0.00     0.000 HD 
HETATM   30  C   UNL     2      -9.024  16.249  66.923  1.00  0.00    -0.217 C  
HETATM   31  C   UNL     2      -8.678  14.865  66.312  1.00  0.00     0.000 C  
HETATM   32  O   UNL     2     -10.176  16.875  66.379  1.00  0.00    -0.302 OA 
HETATM   33  H   UNL     2     -10.017  17.014  65.452  1.00  0.00     0.000 HD 
BRANCH  31  34
HETATM   34  C   UNL     2      -9.630  14.379  65.196  1.00  0.00     0.227 C  
BRANCH  34  35
HETATM   35  C   UNL     2     -10.751  13.493  65.689  1.00  0.00    -0.284 C  
HETATM   36  C   UNL     2     -10.959  12.190  65.442  1.00  0.00    -0.346 C  
BRANCH  36  37
HETATM   37  C   UNL     2     -10.118  11.269  64.605  1.00  0.00    -0.343 C  
BRANCH  37  38
HETATM   38  C   UNL     2     -10.014  11.705  63.142  1.00  0.00    -0.400 C  
BRANCH  38  39
HETATM   39  C   UNL     2      -8.762  11.224  62.424  1.00  0.00    -0.248 C  
HETATM   40  C   UNL     2      -8.405   9.740  62.515  1.00  0.00    -0.146 C  
HETATM   41  O   UNL     2      -7.177   9.488  62.360  1.00  0.00    -0.103 OA 
HETATM   42  O   UNL     2      -9.329   8.876  62.669  1.00  0.00     0.274 OA 
ENDBRANCH  38  39
ENDBRANCH  37  38
ENDBRANCH  36  37
ENDBRANCH  34  35
ENDBRANCH  31  34
ENDBRANCH  24  25
ENDBRANCH  17  18
ENDBRANCH  16  17
ENDBRANCH   6  16
TORSDOF 9
ENDMDL
MODEL      292
REMARK 921   NORMALIZED FREE ENERGY PREDICTED BY IDOCK:   -2.41 KCAL/MOL
REMARK 922        TOTAL FREE ENERGY PREDICTED BY IDOCK:   -5.61 KCAL/MOL
REMARK 923 INTER-LIGAND FREE ENERGY PREDICTED BY IDOCK:   -4.49 KCAL/MOL
REMARK 924 INTRA-LIGAND FREE ENERGY PREDICTED BY IDOCK:   -1.12 KCAL/MOL
REMARK 927      BINDING AFFINITY PREDICTED BY RF-SCORE:    0.00 PKD
ROOT
HETATM    1  O   UNL     1      -6.722  15.101  69.832  1.00  0.00    -0.174 OA 
HETATM    2  C   UNL     1      -7.798  14.169  69.768  1.00  0.00     0.601 C  
HETATM    3  H   UNL     1      -6.917  15.823  70.418  1.00  0.00     0.000 HD 
HETATM    4  C   UNL     2      -6.580   6.916  74.235  1.00  0.00    -0.082 C  
HETATM    5  C   UNL     1      -7.479  12.986  68.809  1.00  0.00    -0.049 C  
HETATM    6  C   UNL     2      -6.013   7.146  72.843  1.00  0.00    -0.048 C  
HETATM    7  C   UNL     1      -6.156  12.307  69.262  1.00  0.00    -0.094 C  
HETATM    8  N   UNL     1      -8.612  12.018  68.949  1.00  0.00    -0.365 NA 
HETATM    9  C   UNL     1      -7.476  13.342  67.330  1.00  0.00    -0.124 C  
HETATM   10  H   UNL     1      -8.834  13.794  65.997  1.00  0.00     0.000 HD 
HETATM   11  H   UNL     1      -5.445  11.452  70.896  1.00  0.00     0.000 HD 
HETATM   12  H2  UNL     1      -9.527  12.437  68.785  1.00  0.00     0.000 HD 
HETATM   13  O   UNL     1      -6.253  11.866  70.620  1.00  0.00    -0.277 OA 
HETATM   14  O   UNL     1      -8.835  13.571  66.921  1.00  0.00    -0.227 OA 
HETATM   15  H1  UNL     1      -8.403  11.242  68.321  1.00  0.00     0.000 HD 
ENDROOT
BRANCH   6  16
HETATM   16  C   UNL     2      -7.015   7.761  71.864  1.00  0.00    -0.066 C  
BRANCH  16  17
HETATM   17  C   UNL     2      -8.112   8.614  72.509  1.00  0.00    -0.041 C  
BRANCH  17  18
HETATM   18  C   UNL     2      -9.432   8.689  71.707  1.00  0.00    -0.354 C  
HETATM   19  C   UNL     2     -10.427   7.510  71.815  1.00  0.00    -0.193 C  
HETATM   20  C   UNL     2     -11.783   7.755  71.136  1.00  0.00    -0.304 C  
HETATM   21  O   UNL     2     -10.697   7.313  73.208  1.00  0.00    -0.334 OA 
HETATM   22  C   UNL     2      -9.807   6.256  71.269  1.00  0.00    -0.197 C  
HETATM   23  H   UNL     2     -11.308   6.589  73.274  1.00  0.00     0.000 HD 
HETATM   24  C   UNL     2      -9.580   5.949  69.980  1.00  0.00    -0.200 C  
BRANCH  24  25
HETATM   25  C   UNL     2      -8.922   4.681  69.486  1.00  0.00    -0.137 C  
HETATM   26  C   UNL     2      -8.485   3.673  70.574  1.00  0.00    -0.068 C  
HETATM   27  C   UNL     2      -8.159   2.445  69.759  1.00  0.00    -0.057 C  
HETATM   28  O   UNL     2      -9.512   3.272  71.476  1.00  0.00    -0.123 OA 
HETATM   29  H   UNL     2      -9.243   2.653  72.145  1.00  0.00     0.000 HD 
HETATM   30  C   UNL     2      -9.303   2.373  68.748  1.00  0.00    -0.163 C  
HETATM   31  C   UNL     2      -9.770   3.831  68.490  1.00  0.00    -0.089 C  
HETATM   32  O   UNL     2      -8.824   1.684  67.604  1.00  0.00    -0.098 OA 
HETATM   33  H   UNL     2      -9.536   1.639  66.976  1.00  0.00     0.000 HD 
BRANCH  31  34
HETATM   34  C   UNL     2      -9.654   4.311  67.026  1.00  0.00    -0.227 C  
BRANCH  34  35
HETATM   35  C   UNL     2     -10.482   5.537  66.715  1.00  0.00    -0.355 C  
HETATM   36  C   UNL     2     -10.064   6.782  66.441  1.00  0.00    -0.048 C  
BRANCH  36  37
HETATM   37  C   UNL     2      -8.649   7.281  66.371  1.00  0.00    -0.141 C  
BRANCH  37  38
HETATM   38  C   UNL     2      -7.995   7.058  65.006  1.00  0.00    -0.129 C  
BRANCH  38  39
HETATM   39  C   UNL     2      -7.808   5.597  64.624  1.00  0.00    -0.113 C  
HETATM   40  C   UNL     2      -8.533   5.079  63.381  1.00  0.00    -0.123 C  
HETATM   41  O   UNL     2      -8.760   3.837  63.389  1.00  0.00    -0.094 OA 
HETATM   42  O   UNL     2      -8.799   5.879  62.425  1.00  0.00     0.005 OA 
ENDBRANCH  38  39
ENDBRANCH  37  38
ENDBRANCH  36  37
ENDBRANCH  34  35
ENDBRANCH  31  34
ENDBRANCH  24  25
ENDBRANCH  17  18
ENDBRANCH  16  17
ENDBRANCH   6  16
TORSDOF 9
ENDMDL
MODEL      293
REMARK 921   NORMALIZED FREE ENERGY PREDICTED BY IDOCK:   -2.28 KCAL/MOL
REMARK 922        TOTAL FREE ENERGY PREDICTED BY IDOCK:   -5.41 KCAL/MOL
REMARK 923 INTER-LIGAND FREE ENERGY PREDICTED BY IDOCK:   -4.07 KCAL/MOL
REMARK 924 INTRA-LIGAND FREE ENERGY PREDICTED BY IDOCK:   -1.34 KCAL/MOL
REMARK 927      BINDING AFFINITY PREDICTED BY RF-SCORE:    0.00 PKD
ROOT
HETATM    1  O   UNL     1      -5.724  11.513  70.864  1.00  0.00    -0.297 OA 
HETATM    2  C   UNL     1      -5.210  10.185  70.840  1.00  0.00    -0.066 C  
HETATM    3  H   UNL     1      -5.029  12.159  70.898  1.00  0.00     0.000 HD 
HETATM    4  C   UNL     2      -5.398   6.366  63.131  1.00  0.00    -0.018 C  
HETATM    5  C   UNL     1      -6.349   9.126  70.784  1.00  0.00    -0.064 C  
HETATM    6  C   UNL     2      -6.601   6.436  64.059  1.00  0.00    -0.033 C  
HETATM    7  C   UNL     1      -7.252   9.416  69.553  1.00  0.00    -0.067 C  
HETATM    8  N   UNL     1      -5.678   7.799  70.612  1.00  0.00    -0.030 NA 
HETATM    9  C   UNL     1      -7.147   8.974  72.070  1.00  0.00     0.170 C  
HETATM   10  H   UNL     1      -6.811   8.226  73.845  1.00  0.00     0.000 HD 
HETATM   11  H   UNL     1      -7.031   9.592  67.596  1.00  0.00     0.000 HD 
HETATM   12  H2  UNL     1      -4.977   7.603  71.326  1.00  0.00     0.000 HD 
HETATM   13  O   UNL     1      -6.480   9.415  68.348  1.00  0.00    -0.053 OA 
HETATM   14  O   UNL     1      -6.313   8.321  73.041  1.00  0.00    -0.079 OA 
HETATM   15  H1  UNL     1      -6.424   7.105  70.575  1.00  0.00     0.000 HD 
ENDROOT
BRANCH   6  16
HETATM   16  C   UNL     2      -6.273   6.109  65.517  1.00  0.00    -0.037 C  
BRANCH  16  17
HETATM   17  C   UNL     2      -6.796   4.758  66.012  1.00  0.00    -0.058 C  
BRANCH  17  18
HETATM   18  C   UNL     2      -7.941   4.844  67.048  1.00  0.00    -0.103 C  
HETATM   19  C   UNL     2      -9.356   5.222  66.551  1.00  0.00    -0.143 C  
HETATM   20  C   UNL     2     -10.459   5.103  67.612  1.00  0.00    -0.130 C  
HETATM   21  O   UNL     2      -9.694   4.305  65.505  1.00  0.00    -0.173 OA 
HETATM   22  C   UNL     2      -9.351   6.613  65.981  1.00  0.00    -0.035 C  
HETATM   23  H   UNL     2     -10.563   4.537  65.199  1.00  0.00     0.000 HD 
HETATM   24  C   UNL     2      -9.275   7.773  66.654  1.00  0.00    -0.220 C  
BRANCH  24  25
HETATM   25  C   UNL     2      -9.243   9.148  66.026  1.00  0.00    -0.271 C  
HETATM   26  C   UNL     2      -8.489   9.264  64.682  1.00  0.00    -0.178 C  
HETATM   27  C   UNL     2      -8.895  10.638  64.206  1.00  0.00    -0.175 C  
HETATM   28  O   UNL     2      -8.920   8.365  63.665  1.00  0.00    -0.277 OA 
HETATM   29  H   UNL     2      -8.457   8.435  62.839  1.00  0.00     0.000 HD 
HETATM   30  C   UNL     2     -10.392  10.692  64.507  1.00  0.00    -0.282 C  
HETATM   31  C   UNL     2     -10.637   9.787  65.744  1.00  0.00     0.228 C  
HETATM   32  O   UNL     2     -10.748  12.055  64.679  1.00  0.00    -0.282 OA 
HETATM   33  H   UNL     2     -11.679  12.089  64.866  1.00  0.00     0.000 HD 
BRANCH  31  34
HETATM   34  C   UNL     2     -11.240  10.502  66.974  1.00  0.00    -0.068 C  
BRANCH  34  35
HETATM   35  C   UNL     2     -10.208  11.051  67.933  1.00  0.00    -0.207 C  
HETATM   36  C   UNL     2      -9.822  12.324  68.108  1.00  0.00    -0.212 C  
BRANCH  36  37
HETATM   37  C   UNL     2     -10.326  13.543  67.389  1.00  0.00    -0.237 C  
BRANCH  37  38
HETATM   38  C   UNL     2      -9.585  14.825  67.777  1.00  0.00    -0.209 C  
BRANCH  38  39
HETATM   39  C   UNL     2      -8.431  14.621  68.747  1.00  0.00    -0.161 C  
HETATM   40  C   UNL     2      -7.078  14.194  68.177  1.00  0.00    -0.127 C  
HETATM   41  O   UNL     2      -6.340  13.575  68.994  1.00  0.00    -0.088 OA 
HETATM   42  O   UNL     2      -6.759  14.527  66.990  1.00  0.00    -0.090 OA 
ENDBRANCH  38  39
ENDBRANCH  37  38
ENDBRANCH  36  37
ENDBRANCH  34  35
ENDBRANCH  31  34
ENDBRANCH  24  25
ENDBRANCH  17  18
ENDBRANCH  16  17
ENDBRANCH   6  16
TORSDOF 9
ENDMDL
MODEL      294
REMARK 921   NORMALIZED FREE ENERGY PREDICTED BY IDOCK:   -2.18 KCAL/MOL
REMARK 922        TOTAL FREE ENERGY PREDICTED BY IDOCK:   -5.25 KCAL/MOL
REMARK 923 INTER-LIGAND FREE ENERGY PREDICTED BY IDOCK:   -5.26 KCAL/MOL
REMARK 924 INTRA-LIGAND FREE ENERGY PREDICTED BY IDOCK:    0.01 KCAL/MOL
REMARK 927      BINDING AFFINITY PREDICTED BY RF-SCORE:    0.00 PKD
ROOT
HETATM    1  O   UNL     1      -7.484  21.037  68.008  1.00  0.00    -0.046 OA 
HETATM    2  C   UNL     1      -7.822  19.698  67.660  1.00  0.00    -0.282 C  
HETATM    3  H   UNL     1      -8.254  21.549  68.225  1.00  0.00     0.000 HD 
HETATM    4  C   UNL     2      -6.266  13.858  73.787  1.00  0.00     0.783 C  
HETATM    5  C   UNL     1      -6.560  18.858  67.305  1.00  0.00    -0.197 C  
HETATM    6  C   UNL     2      -5.197  14.383  72.840  1.00  0.00    -0.254 C  
HETATM    7  C   UNL     1      -5.564  18.909  68.497  1.00  0.00    -0.197 C  
HETATM    8  N   UNL     1      -7.035  17.452  67.109  1.00  0.00    -0.164 NA 
HETATM    9  C   UNL     1      -5.904  19.216  65.981  1.00  0.00    -0.160 C  
HETATM   10  H   UNL     1      -6.347  18.980  64.090  1.00  0.00     0.000 HD 
HETATM   11  H   UNL     1      -5.577  18.466  70.424  1.00  0.00     0.000 HD 
HETATM   12  H2  UNL     1      -7.784  17.369  66.421  1.00  0.00     0.000 HD 
HETATM   13  O   UNL     1      -6.185  18.435  69.696  1.00  0.00    -0.259 OA 
HETATM   14  O   UNL     1      -6.757  18.756  64.918  1.00  0.00    -0.508 OA 
HETATM   15  H1  UNL     1      -6.209  16.902  66.877  1.00  0.00     0.000 HD 
ENDROOT
BRANCH   6  16
HETATM   16  C   UNL     2      -5.648  14.452  71.380  1.00  0.00    -0.176 C  
BRANCH  16  17
HETATM   17  C   UNL     2      -5.289  13.229  70.532  1.00  0.00    -0.140 C  
BRANCH  17  18
HETATM   18  C   UNL     2      -5.612  13.366  69.026  1.00  0.00    -0.074 C  
HETATM   19  C   UNL     2      -7.067  13.128  68.561  1.00  0.00    -0.105 C  
HETATM   20  C   UNL     2      -7.330  13.465  67.086  1.00  0.00     0.098 C  
HETATM   21  O   UNL     2      -7.904  13.996  69.334  1.00  0.00    -0.342 OA 
HETATM   22  C   UNL     2      -7.474  11.707  68.834  1.00  0.00    -0.092 C  
HETATM   23  H   UNL     2      -8.798  13.849  69.049  1.00  0.00     0.000 HD 
HETATM   24  C   UNL     2      -7.080  10.603  68.178  1.00  0.00    -0.081 C  
BRANCH  24  25
HETATM   25  C   UNL     2      -7.498   9.189  68.515  1.00  0.00    -0.081 C  
HETATM   26  C   UNL     2      -6.779   8.063  67.737  1.00  0.00    -0.068 C  
HETATM   27  C   UNL     2      -7.196   6.831  68.501  1.00  0.00    -0.085 C  
HETATM   28  O   UNL     2      -5.356   8.093  67.805  1.00  0.00    -0.032 OA 
HETATM   29  H   UNL     2      -4.914   7.401  67.327  1.00  0.00     0.000 HD 
HETATM   30  C   UNL     2      -7.071   7.257  69.963  1.00  0.00    -0.066 C  
HETATM   31  C   UNL     2      -7.342   8.784  70.013  1.00  0.00    -0.053 C  
HETATM   32  O   UNL     2      -7.968   6.462  70.722  1.00  0.00    -0.107 OA 
HETATM   33  H   UNL     2      -7.890   6.727  71.631  1.00  0.00     0.000 HD 
BRANCH  31  34
HETATM   34  C   UNL     2      -8.541   9.213  70.888  1.00  0.00    -0.259 C  
BRANCH  34  35
HETATM   35  C   UNL     2      -8.806   8.295  72.060  1.00  0.00    -0.256 C  
HETATM   36  C   UNL     2      -9.984   7.919  72.579  1.00  0.00    -0.312 C  
BRANCH  36  37
HETATM   37  C   UNL     2     -11.358   8.320  72.123  1.00  0.00    -0.419 C  
BRANCH  37  38
HETATM   38  C   UNL     2     -12.135   7.177  71.465  1.00  0.00    -0.377 C  
BRANCH  38  39
HETATM   39  C   UNL     2     -11.292   6.254  70.598  1.00  0.00    -0.409 C  
HETATM   40  C   UNL     2     -11.033   6.665  69.148  1.00  0.00    -0.287 C  
HETATM   41  O   UNL     2     -10.790   5.702  68.368  1.00  0.00    -0.204 OA 
HETATM   42  O   UNL     2     -11.013   7.900  68.835  1.00  0.00    -0.045 OA 
ENDBRANCH  38  39
ENDBRANCH  37  38
ENDBRANCH  36  37
ENDBRANCH  34  35
ENDBRANCH  31  34
ENDBRANCH  24  25
ENDBRANCH  17  18
ENDBRANCH  16  17
ENDBRANCH   6  16
TORSDOF 9
ENDMDL
MODEL      295
REMARK 921   NORMALIZED FREE ENERGY PREDICTED BY IDOCK:   -2.17 KCAL/MOL
REMARK 922        TOTAL FREE ENERGY PREDICTED BY IDOCK:   -5.24 KCAL/MOL
REMARK 923 INTER-LIGAND FREE ENERGY PREDICTED BY IDOCK:   -4.40 KCAL/MOL
REMARK 924 INTRA-LIGAND FREE ENERGY PREDICTED BY IDOCK:   -0.84 KCAL/MOL
REMARK 927      BINDING AFFINITY PREDICTED BY RF-SCORE:    0.00 PKD
ROOT
HETATM    1  O   UNL     1     -14.157  11.809  72.833  1.00  0.00     0.183 OA 
HETATM    2  C   UNL     1     -12.940  11.087  72.677  1.00  0.00     1.435 C  
HETATM    3  H   UNL     1     -14.221  12.212  73.691  1.00  0.00     0.000 HD 
HETATM    4  C   UNL     2      -6.957  15.048  67.927  1.00  0.00    -0.170 C  
HETATM    5  C   UNL     1     -12.836  10.427  71.271  1.00  0.00    -0.433 C  
HETATM    6  C   UNL     2      -8.108  14.253  67.330  1.00  0.00    -0.213 C  
HETATM    7  C   UNL     1     -12.997  11.524  70.183  1.00  0.00     0.332 C  
HETATM    8  N   UNL     1     -11.463   9.836  71.188  1.00  0.00    -0.373 NA 
HETATM    9  C   UNL     1     -13.763   9.243  71.049  1.00  0.00     0.001 C  
HETATM   10  H   UNL     1     -13.854   7.396  71.687  1.00  0.00     0.000 HD 
HETATM   11  H   UNL     1     -12.113  13.221  69.685  1.00  0.00     0.000 HD 
HETATM   12  H2  UNL     1     -11.249   9.196  71.953  1.00  0.00     0.000 HD 
HETATM   13  O   UNL     1     -12.015  12.551  70.350  1.00  0.00    -0.340 OA 
HETATM   14  O   UNL     1     -13.274   8.137  71.826  1.00  0.00    -0.331 OA 
HETATM   15  H1  UNL     1     -11.394   9.404  70.267  1.00  0.00     0.000 HD 
ENDROOT
BRANCH   6  16
HETATM   16  C   UNL     2      -8.351  12.909  68.020  1.00  0.00    -0.169 C  
BRANCH  16  17
HETATM   17  C   UNL     2      -9.623  12.177  67.584  1.00  0.00    -0.190 C  
BRANCH  17  18
HETATM   18  C   UNL     2      -9.856  10.813  68.276  1.00  0.00    -0.177 C  
HETATM   19  C   UNL     2      -8.627  10.022  68.777  1.00  0.00    -0.131 C  
HETATM   20  C   UNL     2      -8.964   8.777  69.611  1.00  0.00    -0.145 C  
HETATM   21  O   UNL     2      -7.882  10.897  69.632  1.00  0.00    -0.360 OA 
HETATM   22  C   UNL     2      -7.753   9.632  67.618  1.00  0.00    -0.095 C  
HETATM   23  H   UNL     2      -7.126  10.411  69.939  1.00  0.00     0.000 HD 
HETATM   24  C   UNL     2      -7.991   8.684  66.696  1.00  0.00    -0.096 C  
BRANCH  24  25
HETATM   25  C   UNL     2      -7.089   8.353  65.529  1.00  0.00    -0.074 C  
HETATM   26  C   UNL     2      -5.810   7.551  65.865  1.00  0.00    -0.037 C  
HETATM   27  C   UNL     2      -5.319   7.148  64.496  1.00  0.00    -0.029 C  
HETATM   28  O   UNL     2      -6.027   6.331  66.568  1.00  0.00    -0.026 OA 
HETATM   29  H   UNL     2      -5.241   5.838  66.774  1.00  0.00     0.000 HD 
HETATM   30  C   UNL     2      -6.593   6.717  63.771  1.00  0.00    -0.042 C  
HETATM   31  C   UNL     2      -7.757   7.548  64.373  1.00  0.00    -0.124 C  
HETATM   32  O   UNL     2      -6.380   6.900  62.380  1.00  0.00    -0.045 OA 
HETATM   33  H   UNL     2      -7.172   6.633  61.929  1.00  0.00     0.000 HD 
BRANCH  31  34
HETATM   34  C   UNL     2      -8.518   8.443  63.368  1.00  0.00     0.010 C  
BRANCH  34  35
HETATM   35  C   UNL     2      -8.351   9.924  63.617  1.00  0.00    -0.164 C  
HETATM   36  C   UNL     2      -9.294  10.880  63.643  1.00  0.00    -0.285 C  
BRANCH  36  37
HETATM   37  C   UNL     2     -10.771  10.718  63.430  1.00  0.00     0.163 C  
BRANCH  37  38
HETATM   38  C   UNL     2     -11.553  12.024  63.583  1.00  0.00    -0.578 C  
BRANCH  38  39
HETATM   39  C   UNL     2     -12.078  12.288  64.986  1.00  0.00    -0.392 C  
HETATM   40  C   UNL     2     -12.284  13.741  65.416  1.00  0.00    -0.440 C  
HETATM   41  O   UNL     2     -12.227  13.929  66.664  1.00  0.00    -0.437 OA 
HETATM   42  O   UNL     2     -12.553  14.627  64.541  1.00  0.00    -0.626 OA 
ENDBRANCH  38  39
ENDBRANCH  37  38
ENDBRANCH  36  37
ENDBRANCH  34  35
ENDBRANCH  31  34
ENDBRANCH  24  25
ENDBRANCH  17  18
ENDBRANCH  16  17
ENDBRANCH   6  16
TORSDOF 9
ENDMDL
MODEL      296
REMARK 921   NORMALIZED FREE ENERGY PREDICTED BY IDOCK:   -1.91 KCAL/MOL
REMARK 922        TOTAL FREE ENERGY PREDICTED BY IDOCK:   -4.84 KCAL/MOL
REMARK 923 INTER-LIGAND FREE ENERGY PREDICTED BY IDOCK:   -5.89 KCAL/MOL
REMARK 924 INTRA-LIGAND FREE ENERGY PREDICTED BY IDOCK:    1.04 KCAL/MOL
REMARK 927      BINDING AFFINITY PREDICTED BY RF-SCORE:    0.00 PKD
ROOT
HETATM    1  O   UNL     1      -9.869   9.414  70.669  1.00  0.00    -0.245 OA 
HETATM    2  C   UNL     1      -8.450   9.402  70.554  1.00  0.00    -0.212 C  
HETATM    3  H   UNL     1     -10.207  10.297  70.762  1.00  0.00     0.000 HD 
HETATM    4  C   UNL     2      -5.468   8.150  62.580  1.00  0.00    -0.069 C  
HETATM    5  C   UNL     1      -7.896   7.955  70.400  1.00  0.00    -0.089 C  
HETATM    6  C   UNL     2      -5.922   7.019  63.490  1.00  0.00    -0.043 C  
HETATM    7  C   UNL     1      -8.578   7.278  69.179  1.00  0.00    -0.133 C  
HETATM    8  N   UNL     1      -6.428   8.096  70.141  1.00  0.00    -0.036 NA 
HETATM    9  C   UNL     1      -7.971   7.103  71.658  1.00  0.00    -0.097 C  
HETATM   10  H   UNL     1      -7.040   7.062  73.378  1.00  0.00     0.000 HD 
HETATM   11  H   UNL     1      -8.781   7.632  67.245  1.00  0.00     0.000 HD 
HETATM   12  H2  UNL     1      -5.941   8.643  70.851  1.00  0.00     0.000 HD 
HETATM   13  O   UNL     1      -8.365   8.046  67.991  1.00  0.00    -0.124 OA 
HETATM   14  O   UNL     1      -6.994   7.594  72.592  1.00  0.00    -0.063 OA 
HETATM   15  H1  UNL     1      -6.065   7.148  70.040  1.00  0.00     0.000 HD 
ENDROOT
BRANCH   6  16
HETATM   16  C   UNL     2      -5.405   7.140  64.925  1.00  0.00    -0.028 C  
BRANCH  16  17
HETATM   17  C   UNL     2      -5.629   5.904  65.802  1.00  0.00    -0.016 C  
BRANCH  17  18
HETATM   18  C   UNL     2      -7.084   5.710  66.289  1.00  0.00    -0.072 C  
HETATM   19  C   UNL     2      -8.227   5.807  65.253  1.00  0.00    -0.139 C  
HETATM   20  C   UNL     2      -9.612   5.419  65.790  1.00  0.00    -0.072 C  
HETATM   21  O   UNL     2      -7.923   4.884  64.201  1.00  0.00    -0.093 OA 
HETATM   22  C   UNL     2      -8.281   7.191  64.669  1.00  0.00    -0.027 C  
HETATM   23  H   UNL     2      -8.625   4.944  63.564  1.00  0.00     0.000 HD 
HETATM   24  C   UNL     2      -8.721   8.313  65.264  1.00  0.00    -0.121 C  
BRANCH  24  25
HETATM   25  C   UNL     2      -8.725   9.690  64.639  1.00  0.00    -0.227 C  
HETATM   26  C   UNL     2      -8.633   9.736  63.096  1.00  0.00    -0.198 C  
HETATM   27  C   UNL     2      -8.955  11.181  62.801  1.00  0.00    -0.321 C  
HETATM   28  O   UNL     2      -9.621   8.976  62.407  1.00  0.00    -0.439 OA 
HETATM   29  H   UNL     2      -9.565   9.004  61.459  1.00  0.00     0.000 HD 
HETATM   30  C   UNL     2     -10.129  11.483  63.731  1.00  0.00    -0.366 C  
HETATM   31  C   UNL     2      -9.961  10.577  64.980  1.00  0.00    -0.388 C  
HETATM   32  O   UNL     2     -10.124  12.877  63.994  1.00  0.00    -0.577 OA 
HETATM   33  H   UNL     2     -10.854  13.064  64.572  1.00  0.00     0.000 HD 
BRANCH  31  34
HETATM   34  C   UNL     2      -9.822  11.326  66.324  1.00  0.00    -0.248 C  
BRANCH  34  35
HETATM   35  C   UNL     2      -8.393  11.635  66.710  1.00  0.00    -0.171 C  
HETATM   36  C   UNL     2      -7.863  12.809  67.086  1.00  0.00    -0.097 C  
BRANCH  36  37
HETATM   37  C   UNL     2      -8.563  14.131  67.223  1.00  0.00    -0.231 C  
BRANCH  37  38
HETATM   38  C   UNL     2      -8.336  14.799  68.580  1.00  0.00    -0.160 C  
BRANCH  38  39
HETATM   39  C   UNL     2      -8.352  16.320  68.549  1.00  0.00    -0.204 C  
HETATM   40  C   UNL     2      -7.011  17.056  68.567  1.00  0.00    -0.197 C  
HETATM   41  O   UNL     2      -7.066  18.228  69.033  1.00  0.00    -0.271 OA 
HETATM   42  O   UNL     2      -5.977  16.497  68.075  1.00  0.00    -0.109 OA 
ENDBRANCH  38  39
ENDBRANCH  37  38
ENDBRANCH  36  37
ENDBRANCH  34  35
ENDBRANCH  31  34
ENDBRANCH  24  25
ENDBRANCH  17  18
ENDBRANCH  16  17
ENDBRANCH   6  16
TORSDOF 9
ENDMDL
MODEL      297
REMARK 921   NORMALIZED FREE ENERGY PREDICTED BY IDOCK:   -1.75 KCAL/MOL
REMARK 922        TOTAL FREE ENERGY PREDICTED BY IDOCK:   -4.60 KCAL/MOL
REMARK 923 INTER-LIGAND FREE ENERGY PREDICTED BY IDOCK:   -3.95 KCAL/MOL
REMARK 924 INTRA-LIGAND FREE ENERGY PREDICTED BY IDOCK:   -0.66 KCAL/MOL
REMARK 927      BINDING AFFINITY PREDICTED BY RF-SCORE:    0.00 PKD
ROOT
HETATM    1  O   UNL     1     -13.419  13.703  65.253  1.00  0.00    -0.541 OA 
HETATM    2  C   UNL     1     -12.005  13.694  65.422  1.00  0.00    -0.378 C  
HETATM    3  H   UNL     1     -13.667  13.531  64.352  1.00  0.00     0.000 HD 
HETATM    4  C   UNL     2      -8.841   6.580  69.088  1.00  0.00    -0.128 C  
HETATM    5  C   UNL     1     -11.598  13.976  66.898  1.00  0.00    -0.386 C  
HETATM    6  C   UNL     2      -9.448   7.730  69.878  1.00  0.00    -0.160 C  
HETATM    7  C   UNL     1     -12.295  12.941  67.823  1.00  0.00     0.266 C  
HETATM    8  N   UNL     1     -10.115  13.789  66.965  1.00  0.00    -0.252 NA 
HETATM    9  C   UNL     1     -11.813  15.409  67.359  1.00  0.00     0.095 C  
HETATM   10  H   UNL     1     -10.964  17.135  67.005  1.00  0.00     0.000 HD 
HETATM   11  H   UNL     1     -12.381  10.973  68.001  1.00  0.00     0.000 HD 
HETATM   12  H2  UNL     1      -9.603  14.356  66.288  1.00  0.00     0.000 HD 
HETATM   13  O   UNL     1     -11.955  11.606  67.435  1.00  0.00    -0.621 OA 
HETATM   14  O   UNL     1     -10.830  16.240  66.718  1.00  0.00    -0.253 OA 
HETATM   15  H1  UNL     1      -9.848  13.974  67.932  1.00  0.00     0.000 HD 
ENDROOT
BRANCH   6  16
HETATM   16  C   UNL     2      -8.981   9.110  69.412  1.00  0.00    -0.147 C  
BRANCH  16  17
HETATM   17  C   UNL     2      -7.597   9.531  69.915  1.00  0.00    -0.123 C  
BRANCH  17  18
HETATM   18  C   UNL     2      -6.658  10.104  68.828  1.00  0.00    -0.052 C  
HETATM   19  C   UNL     2      -7.218  10.300  67.400  1.00  0.00    -0.092 C  
HETATM   20  C   UNL     2      -6.276  11.043  66.441  1.00  0.00    -0.136 C  
HETATM   21  O   UNL     2      -8.398  11.102  67.517  1.00  0.00    -0.119 OA 
HETATM   22  C   UNL     2      -7.600   8.974  66.807  1.00  0.00    -0.090 C  
HETATM   23  H   UNL     2      -8.743  11.222  66.640  1.00  0.00     0.000 HD 
HETATM   24  C   UNL     2      -6.778   8.012  66.355  1.00  0.00    -0.058 C  
BRANCH  24  25
HETATM   25  C   UNL     2      -7.218   6.679  65.793  1.00  0.00    -0.070 C  
HETATM   26  C   UNL     2      -8.322   6.728  64.711  1.00  0.00     0.012 C  
HETATM   27  C   UNL     2      -8.305   5.317  64.176  1.00  0.00    -0.131 C  
HETATM   28  O   UNL     2      -8.039   7.564  63.594  1.00  0.00    -0.266 OA 
HETATM   29  H   UNL     2      -8.717   7.595  62.929  1.00  0.00     0.000 HD 
HETATM   30  C   UNL     2      -6.816   4.998  64.054  1.00  0.00    -0.047 C  
HETATM   31  C   UNL     2      -6.088   5.816  65.153  1.00  0.00    -0.025 C  
HETATM   32  O   UNL     2      -6.667   3.590  64.153  1.00  0.00    -0.041 OA 
HETATM   33  H   UNL     2      -5.741   3.392  64.078  1.00  0.00     0.000 HD 
BRANCH  31  34
HETATM   34  C   UNL     2      -5.301   4.978  66.186  1.00  0.00    -0.013 C  
BRANCH  34  35
HETATM   35  C   UNL     2      -5.169   5.639  67.540  1.00  0.00    -0.004 C  
HETATM   36  C   UNL     2      -5.513   5.157  68.744  1.00  0.00    -0.004 C  
BRANCH  36  37
HETATM   37  C   UNL     2      -6.122   3.820  69.058  1.00  0.00    -0.028 C  
BRANCH  37  38
HETATM   38  C   UNL     2      -7.611   3.899  69.403  1.00  0.00    -0.053 C  
BRANCH  38  39
HETATM   39  C   UNL     2      -8.347   2.570  69.342  1.00  0.00    -0.081 C  
HETATM   40  C   UNL     2      -9.360   2.358  68.216  1.00  0.00    -0.209 C  
HETATM   41  O   UNL     2     -10.264   1.516  68.479  1.00  0.00     0.359 OA 
HETATM   42  O   UNL     2      -9.207   2.965  67.107  1.00  0.00    -0.170 OA 
ENDBRANCH  38  39
ENDBRANCH  37  38
ENDBRANCH  36  37
ENDBRANCH  34  35
ENDBRANCH  31  34
ENDBRANCH  24  25
ENDBRANCH  17  18
ENDBRANCH  16  17
ENDBRANCH   6  16
TORSDOF 9
ENDMDL
MODEL      298
REMARK 921   NORMALIZED FREE ENERGY PREDICTED BY IDOCK:   -1.60 KCAL/MOL
REMARK 922        TOTAL FREE ENERGY PREDICTED BY IDOCK:   -4.37 KCAL/MOL
REMARK 923 INTER-LIGAND FREE ENERGY PREDICTED BY IDOCK:   -4.76 KCAL/MOL
REMARK 924 INTRA-LIGAND FREE ENERGY PREDICTED BY IDOCK:    0.40 KCAL/MOL
REMARK 927      BINDING AFFINITY PREDICTED BY RF-SCORE:    0.00 PKD
ROOT
HETATM    1  O   UNL     1      -5.132   7.371  70.278  1.00  0.00    -0.022 OA 
HETATM    2  C   UNL     1      -6.453   7.566  70.773  1.00  0.00    -0.039 C  
HETATM    3  H   UNL     1      -4.998   6.482  69.972  1.00  0.00     0.000 HD 
HETATM    4  C   UNL     2     -11.722  11.817  65.461  1.00  0.00    -0.105 C  
HETATM    5  C   UNL     1      -6.673   9.023  71.274  1.00  0.00    -0.085 C  
HETATM    6  C   UNL     2     -10.722  12.507  66.377  1.00  0.00    -0.275 C  
HETATM    7  C   UNL     1      -6.338  10.012  70.123  1.00  0.00    -0.093 C  
HETATM    8  N   UNL     1      -8.125   9.130  71.621  1.00  0.00    -0.328 NA 
HETATM    9  C   UNL     1      -5.955   9.370  72.569  1.00  0.00     0.179 C  
HETATM   10  H   UNL     1      -6.168   8.902  74.456  1.00  0.00     0.000 HD 
HETATM   11  H   UNL     1      -6.931  10.337  68.265  1.00  0.00     0.000 HD 
HETATM   12  H2  UNL     1      -8.437   8.422  72.285  1.00  0.00     0.000 HD 
HETATM   13  O   UNL     1      -7.135   9.732  68.968  1.00  0.00    -0.063 OA 
HETATM   14  O   UNL     1      -6.617   8.685  73.647  1.00  0.00    -0.219 OA 
HETATM   15  H1  UNL     1      -8.269  10.085  71.949  1.00  0.00     0.000 HD 
ENDROOT
BRANCH   6  16
HETATM   16  C   UNL     2     -10.702  11.946  67.800  1.00  0.00    -0.243 C  
BRANCH  16  17
HETATM   17  C   UNL     2      -9.970  12.812  68.828  1.00  0.00    -0.016 C  
BRANCH  17  18
HETATM   18  C   UNL     2      -8.430  12.665  68.823  1.00  0.00     0.160 C  
HETATM   19  C   UNL     2      -7.679  12.839  67.483  1.00  0.00    -0.168 C  
HETATM   20  C   UNL     2      -6.149  12.860  67.607  1.00  0.00    -0.154 C  
HETATM   21  O   UNL     2      -8.063  14.110  66.946  1.00  0.00    -0.382 OA 
HETATM   22  C   UNL     2      -8.093  11.768  66.514  1.00  0.00    -0.035 C  
HETATM   23  H   UNL     2      -7.602  14.216  66.123  1.00  0.00     0.000 HD 
HETATM   24  C   UNL     2      -7.755  10.468  66.538  1.00  0.00    -0.131 C  
BRANCH  24  25
HETATM   25  C   UNL     2      -8.226   9.424  65.550  1.00  0.00    -0.127 C  
HETATM   26  C   UNL     2      -7.865   9.677  64.068  1.00  0.00    -0.137 C  
HETATM   27  C   UNL     2      -8.205   8.354  63.427  1.00  0.00    -0.114 C  
HETATM   28  O   UNL     2      -6.480   9.884  63.809  1.00  0.00    -0.114 OA 
HETATM   29  H   UNL     2      -6.258  10.040  62.899  1.00  0.00     0.000 HD 
HETATM   30  C   UNL     2      -7.656   7.326  64.415  1.00  0.00    -0.111 C  
HETATM   31  C   UNL     2      -7.732   7.971  65.825  1.00  0.00    -0.093 C  
HETATM   32  O   UNL     2      -8.408   6.133  64.258  1.00  0.00    -0.277 OA 
HETATM   33  H   UNL     2      -8.067   5.494  64.873  1.00  0.00     0.000 HD 
BRANCH  31  34
HETATM   34  C   UNL     2      -8.606   7.213  66.850  1.00  0.00    -0.124 C  
BRANCH  34  35
HETATM   35  C   UNL     2     -10.091   7.421  66.663  1.00  0.00    -0.253 C  
HETATM   36  C   UNL     2     -11.108   6.714  67.180  1.00  0.00    -0.427 C  
BRANCH  36  37
HETATM   37  C   UNL     2     -11.027   5.522  68.091  1.00  0.00     0.113 C  
BRANCH  37  38
HETATM   38  C   UNL     2     -11.157   5.881  69.572  1.00  0.00    -0.403 C  
BRANCH  38  39
HETATM   39  C   UNL     2      -9.850   5.845  70.351  1.00  0.00    -0.231 C  
HETATM   40  C   UNL     2      -9.324   4.486  70.814  1.00  0.00    -0.151 C  
HETATM   41  O   UNL     2      -8.573   4.535  71.827  1.00  0.00    -0.112 OA 
HETATM   42  O   UNL     2      -9.607   3.438  70.146  1.00  0.00    -0.181 OA 
ENDBRANCH  38  39
ENDBRANCH  37  38
ENDBRANCH  36  37
ENDBRANCH  34  35
ENDBRANCH  31  34
ENDBRANCH  24  25
ENDBRANCH  17  18
ENDBRANCH  16  17
ENDBRANCH   6  16
TORSDOF 9
ENDMDL
MODEL      299
REMARK 921   NORMALIZED FREE ENERGY PREDICTED BY IDOCK:   -1.59 KCAL/MOL
REMARK 922        TOTAL FREE ENERGY PREDICTED BY IDOCK:   -4.36 KCAL/MOL
REMARK 923 INTER-LIGAND FREE ENERGY PREDICTED BY IDOCK:   -7.67 KCAL/MOL
REMARK 924 INTRA-LIGAND FREE ENERGY PREDICTED BY IDOCK:    3.32 KCAL/MOL
REMARK 927      BINDING AFFINITY PREDICTED BY RF-SCORE:    0.00 PKD
ROOT
HETATM    1  O   UNL     1     -10.967   8.099  68.416  1.00  0.00    -0.434 OA 
HETATM    2  C   UNL     1     -11.433   9.324  68.972  1.00  0.00     0.440 C  
HETATM    3  H   UNL     1     -11.522   7.801  67.705  1.00  0.00     0.000 HD 
HETATM    4  C   UNL     2      -6.993  16.304  66.602  1.00  0.00    -0.056 C  
HETATM    5  C   UNL     1     -10.523   9.812  70.137  1.00  0.00    -0.286 C  
HETATM    6  C   UNL     2      -6.549  15.368  67.716  1.00  0.00    -0.178 C  
HETATM    7  C   UNL     1      -9.062   9.934  69.622  1.00  0.00    -0.227 C  
HETATM    8  N   UNL     1     -11.032  11.166  70.525  1.00  0.00    -0.207 NA 
HETATM    9  C   UNL     1     -10.626   8.997  71.416  1.00  0.00    -0.323 C  
HETATM   10  H   UNL     1     -11.963   8.765  72.825  1.00  0.00     0.000 HD 
HETATM   11  H   UNL     1      -8.099  10.893  68.186  1.00  0.00     0.000 HD 
HETATM   12  H2  UNL     1     -12.025  11.175  70.756  1.00  0.00     0.000 HD 
HETATM   13  O   UNL     1      -8.992  10.819  68.500  1.00  0.00    -0.145 OA 
HETATM   14  O   UNL     1     -11.898   9.275  72.025  1.00  0.00    -0.363 OA 
HETATM   15  H1  UNL     1     -10.435  11.486  71.288  1.00  0.00     0.000 HD 
ENDROOT
BRANCH   6  16
HETATM   16  C   UNL     2      -7.675  14.969  68.671  1.00  0.00    -0.128 C  
BRANCH  16  17
HETATM   17  C   UNL     2      -7.312  13.879  69.683  1.00  0.00     0.309 C  
BRANCH  17  18
HETATM   18  C   UNL     2      -6.987  12.500  69.064  1.00  0.00    -0.066 C  
HETATM   19  C   UNL     2      -6.572  12.440  67.576  1.00  0.00    -0.147 C  
HETATM   20  C   UNL     2      -6.091  11.061  67.102  1.00  0.00    -0.074 C  
HETATM   21  O   UNL     2      -5.469  13.337  67.409  1.00  0.00    -0.334 OA 
HETATM   22  C   UNL     2      -7.703  12.909  66.704  1.00  0.00     0.522 C  
HETATM   23  H   UNL     2      -5.214  13.301  66.495  1.00  0.00     0.000 HD 
HETATM   24  C   UNL     2      -8.840  12.254  66.416  1.00  0.00    -0.072 C  
BRANCH  24  25
HETATM   25  C   UNL     2      -9.962  12.787  65.554  1.00  0.00    -0.234 C  
HETATM   26  C   UNL     2     -10.299  11.962  64.290  1.00  0.00    -0.321 C  
HETATM   27  C   UNL     2     -11.603  12.578  63.846  1.00  0.00    -0.516 C  
HETATM   28  O   UNL     2     -10.586  10.586  64.524  1.00  0.00    -0.279 OA 
HETATM   29  H   UNL     2     -10.793  10.079  63.748  1.00  0.00     0.000 HD 
HETATM   30  C   UNL     2     -12.380  12.751  65.150  1.00  0.00    -0.496 C  
HETATM   31  C   UNL     2     -11.333  12.968  66.274  1.00  0.00    -0.354 C  
HETATM   32  O   UNL     2     -13.297  13.818  64.967  1.00  0.00    -0.586 OA 
HETATM   33  H   UNL     2     -13.780  13.925  65.778  1.00  0.00     0.000 HD 
BRANCH  31  34
HETATM   34  C   UNL     2     -11.449  14.309  67.034  1.00  0.00    -0.377 C  
BRANCH  34  35
HETATM   35  C   UNL     2     -10.648  15.434  66.420  1.00  0.00    -0.307 C  
HETATM   36  C   UNL     2     -10.408  16.658  66.915  1.00  0.00    -0.299 C  
BRANCH  36  37
HETATM   37  C   UNL     2     -10.880  17.228  68.222  1.00  0.00    -0.287 C  
BRANCH  37  38
HETATM   38  C   UNL     2      -9.862  18.164  68.877  1.00  0.00    -0.322 C  
BRANCH  38  39
HETATM   39  C   UNL     2      -8.761  18.654  67.949  1.00  0.00    -0.309 C  
HETATM   40  C   UNL     2      -9.145  19.612  66.820  1.00  0.00    -0.355 C  
HETATM   41  O   UNL     2      -8.364  19.589  65.828  1.00  0.00    -0.420 OA 
HETATM   42  O   UNL     2     -10.145  20.388  66.962  1.00  0.00    -0.445 OA 
ENDBRANCH  38  39
ENDBRANCH  37  38
ENDBRANCH  36  37
ENDBRANCH  34  35
ENDBRANCH  31  34
ENDBRANCH  24  25
ENDBRANCH  17  18
ENDBRANCH  16  17
ENDBRANCH   6  16
TORSDOF 9
ENDMDL
MODEL      300
REMARK 921   NORMALIZED FREE ENERGY PREDICTED BY IDOCK:   -1.45 KCAL/MOL
REMARK 922        TOTAL FREE ENERGY PREDICTED BY IDOCK:   -4.14 KCAL/MOL
REMARK 923 INTER-LIGAND FREE ENERGY PREDICTED BY IDOCK:   -4.71 KCAL/MOL
REMARK 924 INTRA-LIGAND FREE ENERGY PREDICTED BY IDOCK:    0.57 KCAL/MOL
REMARK 927      BINDING AFFINITY PREDICTED BY RF-SCORE:    0.00 PKD
ROOT
HETATM    1  O   UNL     1      -5.151  10.025  66.871  1.00  0.00    -0.039 OA 
HETATM    2  C   UNL     1      -5.838   9.792  65.646  1.00  0.00    -0.063 C  
HETATM    3  H   UNL     1      -4.286  10.392  66.726  1.00  0.00     0.000 HD 
HETATM    4  C   UNL     2     -11.922  15.573  63.746  1.00  0.00     0.428 C  
HETATM    5  C   UNL     1      -7.254   9.191  65.884  1.00  0.00    -0.093 C  
HETATM    6  C   UNL     2     -12.145  14.404  64.693  1.00  0.00    -0.485 C  
HETATM    7  C   UNL     1      -8.055  10.135  66.822  1.00  0.00    -0.119 C  
HETATM    8  N   UNL     1      -7.915   9.138  64.542  1.00  0.00    -0.120 NA 
HETATM    9  C   UNL     1      -7.265   7.747  66.360  1.00  0.00    -0.075 C  
HETATM   10  H   UNL     1      -6.880   6.005  65.558  1.00  0.00     0.000 HD 
HETATM   11  H   UNL     1      -8.624  12.029  66.840  1.00  0.00     0.000 HD 
HETATM   12  H2  UNL     1      -7.373   8.632  63.841  1.00  0.00     0.000 HD 
HETATM   13  O   UNL     1      -8.134  11.452  66.267  1.00  0.00    -0.149 OA 
HETATM   14  O   UNL     1      -6.873   6.907  65.261  1.00  0.00    -0.049 OA 
HETATM   15  H1  UNL     1      -8.843   8.744  64.698  1.00  0.00     0.000 HD 
ENDROOT
BRANCH   6  16
HETATM   16  C   UNL     2     -11.592  13.076  64.172  1.00  0.00    -0.462 C  
BRANCH  16  17
HETATM   17  C   UNL     2     -11.970  11.845  65.002  1.00  0.00    -0.150 C  
BRANCH  17  18
HETATM   18  C   UNL     2     -11.072  11.595  66.236  1.00  0.00    -0.345 C  
HETATM   19  C   UNL     2     -11.153  12.587  67.419  1.00  0.00    -0.272 C  
HETATM   20  C   UNL     2     -10.370  12.157  68.668  1.00  0.00    -0.211 C  
HETATM   21  O   UNL     2     -12.529  12.667  67.808  1.00  0.00    -0.085 OA 
HETATM   22  C   UNL     2     -10.701  13.952  66.983  1.00  0.00    -0.283 C  
HETATM   23  H   UNL     2     -12.579  13.277  68.535  1.00  0.00     0.000 HD 
HETATM   24  C   UNL     2      -9.445  14.355  66.728  1.00  0.00    -0.280 C  
BRANCH  24  25
HETATM   25  C   UNL     2      -9.048  15.737  66.261  1.00  0.00    -0.373 C  
HETATM   26  C   UNL     2     -10.208  16.730  66.012  1.00  0.00    -0.346 C  
HETATM   27  C   UNL     2      -9.477  18.041  65.859  1.00  0.00     0.096 C  
HETATM   28  O   UNL     2     -11.095  16.912  67.111  1.00  0.00    -0.063 OA 
HETATM   29  H   UNL     2     -11.808  17.522  66.959  1.00  0.00     0.000 HD 
HETATM   30  C   UNL     2      -8.433  18.001  66.973  1.00  0.00    -0.237 C  
HETATM   31  C   UNL     2      -8.075  16.509  67.204  1.00  0.00    -0.213 C  
HETATM   32  O   UNL     2      -7.348  18.826  66.577  1.00  0.00    -0.218 OA 
HETATM   33  H   UNL     2      -6.699  18.801  67.270  1.00  0.00     0.000 HD 
BRANCH  31  34
HETATM   34  C   UNL     2      -6.591  16.144  66.977  1.00  0.00    -0.150 C  
BRANCH  34  35
HETATM   35  C   UNL     2      -5.829  15.852  68.250  1.00  0.00    -0.112 C  
HETATM   36  C   UNL     2      -6.233  15.163  69.328  1.00  0.00    -0.112 C  
BRANCH  36  37
HETATM   37  C   UNL     2      -7.561  14.497  69.547  1.00  0.00     0.016 C  
BRANCH  37  38
HETATM   38  C   UNL     2      -8.507  15.307  70.435  1.00  0.00     1.104 C  
BRANCH  38  39
HETATM   39  C   UNL     2      -9.870  15.589  69.820  1.00  0.00    -0.268 C  
HETATM   40  C   UNL     2     -11.115  15.261  70.646  1.00  0.00    -0.308 C  
HETATM   41  O   UNL     2     -12.150  15.034  69.960  1.00  0.00    -0.302 OA 
HETATM   42  O   UNL     2     -11.056  15.297  71.918  1.00  0.00    -0.371 OA 
ENDBRANCH  38  39
ENDBRANCH  37  38
ENDBRANCH  36  37
ENDBRANCH  34  35
ENDBRANCH  31  34
ENDBRANCH  24  25
ENDBRANCH  17  18
ENDBRANCH  16  17
ENDBRANCH   6  16
TORSDOF 9
ENDMDL
MODEL      301
REMARK 921   NORMALIZED FREE ENERGY PREDICTED BY IDOCK:   -1.44 KCAL/MOL
REMARK 922        TOTAL FREE ENERGY PREDICTED BY IDOCK:   -4.12 KCAL/MOL
REMARK 923 INTER-LIGAND FREE ENERGY PREDICTED BY IDOCK:   -6.79 KCAL/MOL
REMARK 924 INTRA-LIGAND FREE ENERGY PREDICTED BY IDOCK:    2.66 KCAL/MOL
REMARK 927      BINDING AFFINITY PREDICTED BY RF-SCORE:    0.00 PKD
ROOT
HETATM    1  O   UNL     1      -9.865   9.399  70.670  1.00  0.00    -0.245 OA 
HETATM    2  C   UNL     1      -8.444   9.418  70.583  1.00  0.00    -0.193 C  
HETATM    3  H   UNL     1     -10.218  10.264  70.846  1.00  0.00     0.000 HD 
HETATM    4  C   UNL     2      -5.300   9.026  62.582  1.00  0.00    -0.074 C  
HETATM    5  C   UNL     1      -7.865   8.002  70.293  1.00  0.00    -0.088 C  
HETATM    6  C   UNL     2      -5.753   7.802  63.364  1.00  0.00    -0.054 C  
HETATM    7  C   UNL     1      -8.514   7.444  68.997  1.00  0.00    -0.129 C  
HETATM    8  N   UNL     1      -6.395   8.187  70.078  1.00  0.00    -0.032 NA 
HETATM    9  C   UNL     1      -7.950   7.025  71.456  1.00  0.00    -0.103 C  
HETATM   10  H   UNL     1      -7.050   6.821  73.180  1.00  0.00     0.000 HD 
HETATM   11  H   UNL     1      -8.689   7.991  67.105  1.00  0.00     0.000 HD 
HETATM   12  H2  UNL     1      -5.929   8.666  70.849  1.00  0.00     0.000 HD 
HETATM   13  O   UNL     1      -8.292   8.332  67.897  1.00  0.00    -0.126 OA 
HETATM   14  O   UNL     1      -6.997   7.431  72.454  1.00  0.00    -0.062 OA 
HETATM   15  H1  UNL     1      -6.016   7.260  69.888  1.00  0.00     0.000 HD 
ENDROOT
BRANCH   6  16
HETATM   16  C   UNL     2      -5.264   7.782  64.813  1.00  0.00    -0.029 C  
BRANCH  16  17
HETATM   17  C   UNL     2      -5.366   6.425  65.514  1.00  0.00    -0.014 C  
BRANCH  17  18
HETATM   18  C   UNL     2      -6.795   6.025  65.950  1.00  0.00    -0.057 C  
HETATM   19  C   UNL     2      -7.932   6.103  64.906  1.00  0.00    -0.123 C  
HETATM   20  C   UNL     2      -9.271   5.514  65.374  1.00  0.00    -0.012 C  
HETATM   21  O   UNL     2      -7.519   5.330  63.774  1.00  0.00    -0.053 OA 
HETATM   22  C   UNL     2      -8.133   7.525  64.463  1.00  0.00    -0.086 C  
HETATM   23  H   UNL     2      -8.218   5.378  63.132  1.00  0.00     0.000 HD 
HETATM   24  C   UNL     2      -8.698   8.527  65.158  1.00  0.00    -0.156 C  
BRANCH  24  25
HETATM   25  C   UNL     2      -8.848   9.951  64.674  1.00  0.00    -0.234 C  
HETATM   26  C   UNL     2      -8.817  10.155  63.141  1.00  0.00    -0.228 C  
HETATM   27  C   UNL     2      -9.277  11.586  63.001  1.00  0.00    -0.224 C  
HETATM   28  O   UNL     2      -9.759   9.377  62.408  1.00  0.00    -0.510 OA 
HETATM   29  H   UNL     2      -9.741   9.502  61.466  1.00  0.00     0.000 HD 
HETATM   30  C   UNL     2     -10.439  11.686  63.988  1.00  0.00    -0.367 C  
HETATM   31  C   UNL     2     -10.145  10.683  65.135  1.00  0.00    -0.374 C  
HETATM   32  O   UNL     2     -10.547  13.043  64.389  1.00  0.00    -0.367 OA 
HETATM   33  H   UNL     2     -11.270  13.106  65.003  1.00  0.00     0.000 HD 
BRANCH  31  34
HETATM   34  C   UNL     2     -10.023  11.308  66.543  1.00  0.00    -0.247 C  
BRANCH  34  35
HETATM   35  C   UNL     2     -10.390  12.774  66.598  1.00  0.00    -0.252 C  
HETATM   36  C   UNL     2     -11.170  13.409  67.486  1.00  0.00    -0.309 C  
BRANCH  36  37
HETATM   37  C   UNL     2     -11.886  12.818  68.667  1.00  0.00    -0.341 C  
BRANCH  37  38
HETATM   38  C   UNL     2     -11.506  13.474  69.996  1.00  0.00    -0.141 C  
BRANCH  38  39
HETATM   39  C   UNL     2     -12.599  13.444  71.053  1.00  0.00    -0.425 C  
HETATM   40  C   UNL     2     -13.362  14.739  71.339  1.00  0.00    -0.392 C  
HETATM   41  O   UNL     2     -13.862  14.805  72.496  1.00  0.00    -0.448 OA 
HETATM   42  O   UNL     2     -13.498  15.609  70.417  1.00  0.00    -0.296 OA 
ENDBRANCH  38  39
ENDBRANCH  37  38
ENDBRANCH  36  37
ENDBRANCH  34  35
ENDBRANCH  31  34
ENDBRANCH  24  25
ENDBRANCH  17  18
ENDBRANCH  16  17
ENDBRANCH   6  16
TORSDOF 9
ENDMDL
MODEL      302
REMARK 921   NORMALIZED FREE ENERGY PREDICTED BY IDOCK:   -1.41 KCAL/MOL
REMARK 922        TOTAL FREE ENERGY PREDICTED BY IDOCK:   -4.08 KCAL/MOL
REMARK 923 INTER-LIGAND FREE ENERGY PREDICTED BY IDOCK:   -2.14 KCAL/MOL
REMARK 924 INTRA-LIGAND FREE ENERGY PREDICTED BY IDOCK:   -1.95 KCAL/MOL
REMARK 927      BINDING AFFINITY PREDICTED BY RF-SCORE:    0.00 PKD
ROOT
HETATM    1  O   UNL     1     -10.196  17.116  69.663  1.00  0.00    -0.143 OA 
HETATM    2  C   UNL     1      -9.544  16.293  68.701  1.00  0.00    -0.237 C  
HETATM    3  H   UNL     1     -11.140  17.017  69.629  1.00  0.00     0.000 HD 
HETATM    4  C   UNL     2      -5.892   9.185  71.894  1.00  0.00    -0.069 C  
HETATM    5  C   UNL     1      -7.997  16.454  68.759  1.00  0.00    -0.233 C  
HETATM    6  C   UNL     2      -5.231  10.555  71.933  1.00  0.00     0.056 C  
HETATM    7  C   UNL     1      -7.508  16.150  70.202  1.00  0.00     0.919 C  
HETATM    8  N   UNL     1      -7.436  15.436  67.815  1.00  0.00    -0.141 NA 
HETATM    9  C   UNL     1      -7.470  17.779  68.231  1.00  0.00    -0.247 C  
HETATM   10  H   UNL     1      -7.291  18.613  66.470  1.00  0.00     0.000 HD 
HETATM   11  H   UNL     1      -7.612  14.652  71.488  1.00  0.00     0.000 HD 
HETATM   12  H2  UNL     1      -7.816  15.505  66.871  1.00  0.00     0.000 HD 
HETATM   13  O   UNL     1      -7.910  14.838  70.607  1.00  0.00     0.840 OA 
HETATM   14  O   UNL     1      -7.620  17.785  66.801  1.00  0.00    -0.192 OA 
HETATM   15  H1  UNL     1      -6.422  15.541  67.853  1.00  0.00     0.000 HD 
ENDROOT
BRANCH   6  16
HETATM   16  C   UNL     2      -5.333  11.325  70.615  1.00  0.00    -0.124 C  
BRANCH  16  17
HETATM   17  C   UNL     2      -6.239  10.686  69.559  1.00  0.00    -0.059 C  
BRANCH  17  18
HETATM   18  C   UNL     2      -5.720  10.794  68.106  1.00  0.00    -0.043 C  
HETATM   19  C   UNL     2      -5.895  12.137  67.360  1.00  0.00    -0.137 C  
HETATM   20  C   UNL     2      -5.188  12.208  65.999  1.00  0.00     1.290 C  
HETATM   21  O   UNL     2      -5.308  13.154  68.179  1.00  0.00    -0.079 OA 
HETATM   22  C   UNL     2      -7.355  12.448  67.188  1.00  0.00    -0.081 C  
HETATM   23  H   UNL     2      -5.416  13.979  67.721  1.00  0.00     0.000 HD 
HETATM   24  C   UNL     2      -8.222  11.863  66.345  1.00  0.00     0.049 C  
BRANCH  24  25
HETATM   25  C   UNL     2      -9.693  12.195  66.234  1.00  0.00    -0.251 C  
HETATM   26  C   UNL     2     -10.056  13.698  66.278  1.00  0.00    -0.299 C  
HETATM   27  C   UNL     2     -11.504  13.689  65.855  1.00  0.00    -0.329 C  
HETATM   28  O   UNL     2      -9.383  14.512  65.322  1.00  0.00    -0.392 OA 
HETATM   29  H   UNL     2      -9.606  15.435  65.349  1.00  0.00     0.000 HD 
HETATM   30  C   UNL     2     -11.531  12.700  64.690  1.00  0.00    -0.330 C  
HETATM   31  C   UNL     2     -10.406  11.664  64.952  1.00  0.00    -0.331 C  
HETATM   32  O   UNL     2     -12.840  12.159  64.613  1.00  0.00    -0.586 OA 
HETATM   33  H   UNL     2     -12.856  11.545  63.889  1.00  0.00     0.000 HD 
BRANCH  31  34
HETATM   34  C   UNL     2     -10.876  10.197  65.081  1.00  0.00     0.747 C  
BRANCH  34  35
HETATM   35  C   UNL     2      -9.752   9.206  65.276  1.00  0.00     0.016 C  
HETATM   36  C   UNL     2      -9.705   8.143  66.094  1.00  0.00    -0.154 C  
BRANCH  36  37
HETATM   37  C   UNL     2     -10.772   7.661  67.034  1.00  0.00    -0.340 C  
BRANCH  37  38
HETATM   38  C   UNL     2     -10.456   7.941  68.505  1.00  0.00    -0.202 C  
BRANCH  38  39
HETATM   39  C   UNL     2     -10.471   9.413  68.888  1.00  0.00    -0.236 C  
HETATM   40  C   UNL     2     -11.378   9.848  70.039  1.00  0.00    -0.249 C  
HETATM   41  O   UNL     2     -11.735  11.059  69.992  1.00  0.00    -0.293 OA 
HETATM   42  O   UNL     2     -11.658   9.025  70.970  1.00  0.00    -0.277 OA 
ENDBRANCH  38  39
ENDBRANCH  37  38
ENDBRANCH  36  37
ENDBRANCH  34  35
ENDBRANCH  31  34
ENDBRANCH  24  25
ENDBRANCH  17  18
ENDBRANCH  16  17
ENDBRANCH   6  16
TORSDOF 9
ENDMDL
MODEL      303
REMARK 921   NORMALIZED FREE ENERGY PREDICTED BY IDOCK:   -1.09 KCAL/MOL
REMARK 922        TOTAL FREE ENERGY PREDICTED BY IDOCK:   -3.59 KCAL/MOL
REMARK 923 INTER-LIGAND FREE ENERGY PREDICTED BY IDOCK:   -2.31 KCAL/MOL
REMARK 924 INTRA-LIGAND FREE ENERGY PREDICTED BY IDOCK:   -1.29 KCAL/MOL
REMARK 927      BINDING AFFINITY PREDICTED BY RF-SCORE:    0.00 PKD
ROOT
HETATM    1  O   UNL     1     -10.414  17.115  69.354  1.00  0.00    -0.321 OA 
HETATM    2  C   UNL     1      -9.724  16.259  68.448  1.00  0.00    -0.222 C  
HETATM    3  H   UNL     1     -11.353  16.973  69.326  1.00  0.00     0.000 HD 
HETATM    4  C   UNL     2      -5.772   9.546  72.102  1.00  0.00     0.043 C  
HETATM    5  C   UNL     1      -8.186  16.491  68.493  1.00  0.00    -0.212 C  
HETATM    6  C   UNL     2      -5.172  10.943  72.050  1.00  0.00     0.183 C  
HETATM    7  C   UNL     1      -7.687  16.306  69.953  1.00  0.00     0.644 C  
HETATM    8  N   UNL     1      -7.579  15.439  67.619  1.00  0.00    -0.150 NA 
HETATM    9  C   UNL     1      -7.717  17.801  67.878  1.00  0.00    -0.225 C  
HETATM   10  H   UNL     1      -7.570  18.523  66.066  1.00  0.00     0.000 HD 
HETATM   11  H   UNL     1      -7.728  14.893  71.336  1.00  0.00     0.000 HD 
HETATM   12  H2  UNL     1      -7.960  15.428  66.672  1.00  0.00     0.000 HD 
HETATM   13  O   UNL     1      -8.033  15.007  70.444  1.00  0.00     0.431 OA 
HETATM   14  O   UNL     1      -7.863  17.705  66.451  1.00  0.00    -0.246 OA 
HETATM   15  H1  UNL     1      -6.571  15.591  67.649  1.00  0.00     0.000 HD 
ENDROOT
BRANCH   6  16
HETATM   16  C   UNL     2      -5.304  11.618  70.684  1.00  0.00    -0.141 C  
BRANCH  16  17
HETATM   17  C   UNL     2      -6.183  10.874  69.674  1.00  0.00    -0.085 C  
BRANCH  17  18
HETATM   18  C   UNL     2      -5.664  10.901  68.218  1.00  0.00    -0.043 C  
HETATM   19  C   UNL     2      -5.874  12.186  67.385  1.00  0.00    -0.137 C  
HETATM   20  C   UNL     2      -5.166  12.188  66.022  1.00  0.00     1.290 C  
HETATM   21  O   UNL     2      -5.316  13.271  68.136  1.00  0.00    -0.085 OA 
HETATM   22  C   UNL     2      -7.342  12.446  67.193  1.00  0.00    -0.081 C  
HETATM   23  H   UNL     2      -5.446  14.061  67.625  1.00  0.00     0.000 HD 
HETATM   24  C   UNL     2      -8.191  11.783  66.390  1.00  0.00    -0.006 C  
BRANCH  24  25
HETATM   25  C   UNL     2      -9.670  12.068  66.257  1.00  0.00    -0.251 C  
HETATM   26  C   UNL     2     -10.077  13.560  66.241  1.00  0.00    -0.298 C  
HETATM   27  C   UNL     2     -11.522  13.491  65.810  1.00  0.00    -0.331 C  
HETATM   28  O   UNL     2      -9.422  14.355  65.258  1.00  0.00    -0.490 OA 
HETATM   29  H   UNL     2      -9.671  15.272  65.247  1.00  0.00     0.000 HD 
HETATM   30  C   UNL     2     -11.510  12.458  64.684  1.00  0.00    -0.331 C  
HETATM   31  C   UNL     2     -10.357  11.466  64.993  1.00  0.00    -0.342 C  
HETATM   32  O   UNL     2     -12.803  11.876  64.621  1.00  0.00    -0.330 OA 
HETATM   33  H   UNL     2     -12.796  11.233  63.921  1.00  0.00     0.000 HD 
BRANCH  31  34
HETATM   34  C   UNL     2     -10.786   9.993  65.176  1.00  0.00     0.704 C  
BRANCH  34  35
HETATM   35  C   UNL     2      -9.634   9.043  65.416  1.00  0.00    -0.084 C  
HETATM   36  C   UNL     2      -9.603   7.941  66.181  1.00  0.00    -0.127 C  
BRANCH  36  37
HETATM   37  C   UNL     2     -10.719   7.361  67.001  1.00  0.00    -0.389 C  
BRANCH  37  38
HETATM   38  C   UNL     2     -10.234   6.638  68.259  1.00  0.00    -0.190 C  
BRANCH  38  39
HETATM   39  C   UNL     2     -10.367   5.123  68.211  1.00  0.00    -0.140 C  
HETATM   40  C   UNL     2      -9.290   4.328  67.472  1.00  0.00    -0.162 C  
HETATM   41  O   UNL     2      -9.676   3.208  67.036  1.00  0.00    -0.081 OA 
HETATM   42  O   UNL     2      -8.105   4.789  67.397  1.00  0.00    -0.101 OA 
ENDBRANCH  38  39
ENDBRANCH  37  38
ENDBRANCH  36  37
ENDBRANCH  34  35
ENDBRANCH  31  34
ENDBRANCH  24  25
ENDBRANCH  17  18
ENDBRANCH  16  17
ENDBRANCH   6  16
TORSDOF 9
ENDMDL
MODEL      304
REMARK 921   NORMALIZED FREE ENERGY PREDICTED BY IDOCK:   -0.84 KCAL/MOL
REMARK 922        TOTAL FREE ENERGY PREDICTED BY IDOCK:   -3.21 KCAL/MOL
REMARK 923 INTER-LIGAND FREE ENERGY PREDICTED BY IDOCK:   -5.79 KCAL/MOL
REMARK 924 INTRA-LIGAND FREE ENERGY PREDICTED BY IDOCK:    2.58 KCAL/MOL
REMARK 927      BINDING AFFINITY PREDICTED BY RF-SCORE:    0.00 PKD
ROOT
HETATM    1  O   UNL     1     -12.211  14.017  69.287  1.00  0.00    -0.376 OA 
HETATM    2  C   UNL     1     -11.858  14.015  67.907  1.00  0.00    -0.376 C  
HETATM    3  H   UNL     1     -13.130  13.813  69.415  1.00  0.00     0.000 HD 
HETATM    4  C   UNL     2      -7.567   7.038  65.270  1.00  0.00    -0.099 C  
HETATM    5  C   UNL     1     -10.353  14.349  67.696  1.00  0.00    -0.237 C  
HETATM    6  C   UNL     2      -6.903   8.213  65.971  1.00  0.00    -0.057 C  
HETATM    7  C   UNL     1      -9.491  13.345  68.512  1.00  0.00    -0.121 C  
HETATM    8  N   UNL     1     -10.086  14.167  66.235  1.00  0.00    -0.290 NA 
HETATM    9  C   UNL     1      -9.973  15.797  67.966  1.00  0.00    -0.222 C  
HETATM   10  H   UNL     1     -10.272  17.511  67.073  1.00  0.00     0.000 HD 
HETATM   11  H   UNL     1      -9.259  11.385  68.625  1.00  0.00     0.000 HD 
HETATM   12  H2  UNL     1     -10.709  14.711  65.637  1.00  0.00     0.000 HD 
HETATM   13  O   UNL     1      -9.785  11.998  68.127  1.00  0.00    -0.188 OA 
HETATM   14  O   UNL     1     -10.509  16.606  66.905  1.00  0.00    -0.301 OA 
HETATM   15  H1  UNL     1      -9.099  14.386  66.097  1.00  0.00     0.000 HD 
ENDROOT
BRANCH   6  16
HETATM   16  C   UNL     2      -7.351   9.578  65.444  1.00  0.00    -0.099 C  
BRANCH  16  17
HETATM   17  C   UNL     2      -7.658  10.622  66.522  1.00  0.00    -0.134 C  
BRANCH  17  18
HETATM   18  C   UNL     2      -6.699  10.603  67.735  1.00  0.00    -0.068 C  
HETATM   19  C   UNL     2      -6.672   9.345  68.633  1.00  0.00    -0.053 C  
HETATM   20  C   UNL     2      -5.564   9.342  69.696  1.00  0.00    -0.033 C  
HETATM   21  O   UNL     2      -6.422   8.223  67.779  1.00  0.00    -0.054 OA 
HETATM   22  C   UNL     2      -8.008   9.151  69.294  1.00  0.00    -0.097 C  
HETATM   23  H   UNL     2      -6.406   7.450  68.331  1.00  0.00     0.000 HD 
HETATM   24  C   UNL     2      -8.531   9.866  70.305  1.00  0.00    -0.074 C  
BRANCH  24  25
HETATM   25  C   UNL     2      -9.897   9.646  70.915  1.00  0.00    -0.168 C  
HETATM   26  C   UNL     2     -11.087   9.622  69.926  1.00  0.00    -0.235 C  
HETATM   27  C   UNL     2     -12.209   9.103  70.792  1.00  0.00    -0.151 C  
HETATM   28  O   UNL     2     -10.966   8.689  68.856  1.00  0.00    -0.435 OA 
HETATM   29  H   UNL     2     -11.696   8.674  68.249  1.00  0.00     0.000 HD 
HETATM   30  C   UNL     2     -11.557   7.969  71.581  1.00  0.00    -0.275 C  
HETATM   31  C   UNL     2     -10.058   8.337  71.745  1.00  0.00    -0.290 C  
HETATM   32  O   UNL     2     -12.276   7.820  72.796  1.00  0.00    -0.587 OA 
HETATM   33  H   UNL     2     -11.870   7.115  73.287  1.00  0.00     0.000 HD 
BRANCH  31  34
HETATM   34  C   UNL     2      -9.569   8.477  73.205  1.00  0.00     0.010 C  
BRANCH  34  35
HETATM   35  C   UNL     2      -9.480   7.166  73.951  1.00  0.00    -0.297 C  
HETATM   36  C   UNL     2      -9.152   5.953  73.478  1.00  0.00    -0.131 C  
BRANCH  36  37
HETATM   37  C   UNL     2      -8.782   5.587  72.069  1.00  0.00    -0.131 C  
BRANCH  37  38
HETATM   38  C   UNL     2      -7.307   5.834  71.746  1.00  0.00    -0.093 C  
BRANCH  38  39
HETATM   39  C   UNL     2      -6.977   5.852  70.262  1.00  0.00    -0.062 C  
HETATM   40  C   UNL     2      -6.238   4.650  69.673  1.00  0.00    -0.027 C  
HETATM   41  O   UNL     2      -5.568   4.906  68.633  1.00  0.00    -0.014 OA 
HETATM   42  O   UNL     2      -6.382   3.499  70.201  1.00  0.00    -0.026 OA 
ENDBRANCH  38  39
ENDBRANCH  37  38
ENDBRANCH  36  37
ENDBRANCH  34  35
ENDBRANCH  31  34
ENDBRANCH  24  25
ENDBRANCH  17  18
ENDBRANCH  16  17
ENDBRANCH   6  16
TORSDOF 9
ENDMDL
MODEL      305
REMARK 921   NORMALIZED FREE ENERGY PREDICTED BY IDOCK:   -0.79 KCAL/MOL
REMARK 922        TOTAL FREE ENERGY PREDICTED BY IDOCK:   -3.14 KCAL/MOL
REMARK 923 INTER-LIGAND FREE ENERGY PREDICTED BY IDOCK:   -2.53 KCAL/MOL
REMARK 924 INTRA-LIGAND FREE ENERGY PREDICTED BY IDOCK:   -0.61 KCAL/MOL
REMARK 927      BINDING AFFINITY PREDICTED BY RF-SCORE:    0.00 PKD
ROOT
HETATM    1  O   UNL     1      -8.104   9.752  67.376  1.00  0.00    -0.112 OA 
HETATM    2  C   UNL     1      -8.174  10.674  68.460  1.00  0.00    -0.128 C  
HETATM    3  H   UNL     1      -8.967   9.523  67.053  1.00  0.00     0.000 HD 
HETATM    4  C   UNL     2      -6.254  18.811  66.423  1.00  0.00    -0.207 C  
HETATM    5  C   UNL     1      -6.759  11.049  68.990  1.00  0.00    -0.074 C  
HETATM    6  C   UNL     2      -5.203  17.751  66.714  1.00  0.00    -0.178 C  
HETATM    7  C   UNL     1      -5.908  11.605  67.815  1.00  0.00    -0.052 C  
HETATM    8  N   UNL     1      -6.968  12.124  70.010  1.00  0.00    -0.252 NA 
HETATM    9  C   UNL     1      -6.047   9.944  69.755  1.00  0.00    -0.045 C  
HETATM   10  H   UNL     1      -6.257   9.093  71.503  1.00  0.00     0.000 HD 
HETATM   11  H   UNL     1      -6.033  13.070  66.493  1.00  0.00     0.000 HD 
HETATM   12  H2  UNL     1      -7.621  11.862  70.749  1.00  0.00     0.000 HD 
HETATM   13  O   UNL     1      -6.553  12.730  67.211  1.00  0.00    -0.159 OA 
HETATM   14  O   UNL     1      -6.702   9.783  71.025  1.00  0.00    -0.267 OA 
HETATM   15  H1  UNL     1      -6.041  12.370  70.358  1.00  0.00     0.000 HD 
ENDROOT
BRANCH   6  16
HETATM   16  C   UNL     2      -5.514  16.898  67.945  1.00  0.00    -0.129 C  
BRANCH  16  17
HETATM   17  C   UNL     2      -6.321  17.605  69.038  1.00  0.00    -0.223 C  
BRANCH  17  18
HETATM   18  C   UNL     2      -7.226  16.677  69.881  1.00  0.00     0.561 C  
HETATM   19  C   UNL     2      -7.758  15.379  69.231  1.00  0.00    -0.221 C  
HETATM   20  C   UNL     2      -8.490  14.435  70.196  1.00  0.00     1.329 C  
HETATM   21  O   UNL     2      -6.623  14.659  68.737  1.00  0.00    -0.084 OA 
HETATM   22  C   UNL     2      -8.654  15.710  68.071  1.00  0.00    -0.155 C  
HETATM   23  H   UNL     2      -6.950  13.862  68.337  1.00  0.00     0.000 HD 
HETATM   24  C   UNL     2      -9.903  16.203  68.116  1.00  0.00    -0.227 C  
BRANCH  24  25
HETATM   25  C   UNL     2     -10.752  16.547  66.913  1.00  0.00    -0.175 C  
HETATM   26  C   UNL     2     -10.893  18.052  66.589  1.00  0.00     0.004 C  
HETATM   27  C   UNL     2     -11.522  18.025  65.217  1.00  0.00     1.820 C  
HETATM   28  O   UNL     2      -9.665  18.757  66.433  1.00  0.00    -0.333 OA 
HETATM   29  H   UNL     2      -9.751  19.681  66.235  1.00  0.00     0.000 HD 
HETATM   30  C   UNL     2     -10.747  16.927  64.491  1.00  0.00     0.839 C  
HETATM   31  C   UNL     2     -10.298  15.903  65.567  1.00  0.00    -0.425 C  
HETATM   32  O   UNL     2     -11.590  16.403  63.477  1.00  0.00    -1.226 OA 
HETATM   33  H   UNL     2     -11.108  15.720  63.025  1.00  0.00     0.000 HD 
BRANCH  31  34
HETATM   34  C   UNL     2     -10.828  14.465  65.371  1.00  0.00    -0.351 C  
BRANCH  34  35
HETATM   35  C   UNL     2     -12.132  14.188  66.083  1.00  0.00    -0.454 C  
HETATM   36  C   UNL     2     -12.345  13.453  67.185  1.00  0.00    -0.198 C  
BRANCH  36  37
HETATM   37  C   UNL     2     -11.329  12.711  68.004  1.00  0.00    -0.337 C  
BRANCH  37  38
HETATM   38  C   UNL     2     -11.946  11.660  68.929  1.00  0.00    -0.355 C  
BRANCH  38  39
HETATM   39  C   UNL     2     -10.999  11.110  69.985  1.00  0.00    -0.079 C  
HETATM   40  C   UNL     2     -10.851   9.592  70.099  1.00  0.00    -0.258 C  
HETATM   41  O   UNL     2     -10.489   9.187  71.239  1.00  0.00    -0.274 OA 
HETATM   42  O   UNL     2     -11.030   8.860  69.071  1.00  0.00    -0.102 OA 
ENDBRANCH  38  39
ENDBRANCH  37  38
ENDBRANCH  36  37
ENDBRANCH  34  35
ENDBRANCH  31  34
ENDBRANCH  24  25
ENDBRANCH  17  18
ENDBRANCH  16  17
ENDBRANCH   6  16
TORSDOF 9
ENDMDL
MODEL      306
REMARK 921   NORMALIZED FREE ENERGY PREDICTED BY IDOCK:   -0.75 KCAL/MOL
REMARK 922        TOTAL FREE ENERGY PREDICTED BY IDOCK:   -3.06 KCAL/MOL
REMARK 923 INTER-LIGAND FREE ENERGY PREDICTED BY IDOCK:   -2.98 KCAL/MOL
REMARK 924 INTRA-LIGAND FREE ENERGY PREDICTED BY IDOCK:   -0.08 KCAL/MOL
REMARK 927      BINDING AFFINITY PREDICTED BY RF-SCORE:    0.00 PKD
ROOT
HETATM    1  O   UNL     1      -9.845  15.060  64.322  1.00  0.00    -0.068 OA 
HETATM    2  C   UNL     1     -11.129  14.731  64.841  1.00  0.00    -0.407 C  
HETATM    3  H   UNL     1      -9.598  15.953  64.535  1.00  0.00     0.000 HD 
HETATM    4  C   UNL     2     -11.033   9.818  71.906  1.00  0.00     0.493 C  
HETATM    5  C   UNL     1     -11.534  13.268  64.493  1.00  0.00    -0.365 C  
HETATM    6  C   UNL     2     -10.887   9.262  70.497  1.00  0.00    -0.318 C  
HETATM    7  C   UNL     1     -10.436  12.300  65.016  1.00  0.00    -0.290 C  
HETATM    8  N   UNL     1     -12.818  13.008  65.217  1.00  0.00    -0.713 NA 
HETATM    9  C   UNL     1     -11.876  13.028  63.031  1.00  0.00     0.123 C  
HETATM   10  H   UNL     1     -13.354  13.507  61.843  1.00  0.00     0.000 HD 
HETATM   11  H   UNL     1      -9.573  11.875  66.743  1.00  0.00     0.000 HD 
HETATM   12  H2  UNL     1     -13.547  13.690  65.009  1.00  0.00     0.000 HD 
HETATM   13  O   UNL     1     -10.244  12.467  66.424  1.00  0.00    -0.227 OA 
HETATM   14  O   UNL     1     -13.140  13.657  62.756  1.00  0.00     0.297 OA 
HETATM   15  H1  UNL     1     -13.083  12.049  64.989  1.00  0.00     0.000 HD 
ENDROOT
BRANCH   6  16
HETATM   16  C   UNL     2     -11.884   9.850  69.497  1.00  0.00     0.108 C  
BRANCH  16  17
HETATM   17  C   UNL     2     -13.011  10.681  70.117  1.00  0.00    -0.047 C  
BRANCH  17  18
HETATM   18  C   UNL     2     -12.559  11.672  71.215  1.00  0.00    -0.425 C  
HETATM   19  C   UNL     2     -12.625  13.186  70.912  1.00  0.00    -0.295 C  
HETATM   20  C   UNL     2     -12.335  14.092  72.118  1.00  0.00    -0.125 C  
HETATM   21  O   UNL     2     -13.965  13.476  70.497  1.00  0.00     0.762 OA 
HETATM   22  C   UNL     2     -11.693  13.531  69.785  1.00  0.00    -0.363 C  
HETATM   23  H   UNL     2     -14.005  14.406  70.311  1.00  0.00     0.000 HD 
HETATM   24  C   UNL     2     -10.351  13.594  69.823  1.00  0.00     0.751 C  
BRANCH  24  25
HETATM   25  C   UNL     2      -9.457  13.918  68.647  1.00  0.00    -0.123 C  
HETATM   26  C   UNL     2      -9.760  15.242  67.907  1.00  0.00    -0.211 C  
HETATM   27  C   UNL     2      -8.547  15.396  67.022  1.00  0.00    -0.262 C  
HETATM   28  O   UNL     2      -9.782  16.404  68.731  1.00  0.00    -0.230 OA 
HETATM   29  H   UNL     2      -9.968  17.217  68.277  1.00  0.00     0.000 HD 
HETATM   30  C   UNL     2      -7.384  15.019  67.939  1.00  0.00    -0.143 C  
HETATM   31  C   UNL     2      -7.933  13.992  68.965  1.00  0.00     0.055 C  
HETATM   32  O   UNL     2      -6.326  14.546  67.121  1.00  0.00    -0.322 OA 
HETATM   33  H   UNL     2      -5.603  14.312  67.691  1.00  0.00     0.000 HD 
BRANCH  31  34
HETATM   34  C   UNL     2      -7.239  12.611  68.950  1.00  0.00    -0.045 C  
BRANCH  34  35
HETATM   35  C   UNL     2      -8.197  11.443  68.882  1.00  0.00    -0.054 C  
HETATM   36  C   UNL     2      -7.917  10.131  68.855  1.00  0.00    -0.110 C  
BRANCH  36  37
HETATM   37  C   UNL     2      -6.564   9.480  68.887  1.00  0.00    -0.047 C  
BRANCH  37  38
HETATM   38  C   UNL     2      -6.079   9.161  70.302  1.00  0.00    -0.040 C  
BRANCH  38  39
HETATM   39  C   UNL     2      -7.189   8.936  71.317  1.00  0.00    -0.111 C  
HETATM   40  C   UNL     2      -7.356   7.533  71.902  1.00  0.00    -0.072 C  
HETATM   41  O   UNL     2      -8.522   7.274  72.313  1.00  0.00    -0.114 OA 
HETATM   42  O   UNL     2      -6.345   6.763  71.997  1.00  0.00    -0.048 OA 
ENDBRANCH  38  39
ENDBRANCH  37  38
ENDBRANCH  36  37
ENDBRANCH  34  35
ENDBRANCH  31  34
ENDBRANCH  24  25
ENDBRANCH  17  18
ENDBRANCH  16  17
ENDBRANCH   6  16
TORSDOF 9
ENDMDL
MODEL      307
REMARK 921   NORMALIZED FREE ENERGY PREDICTED BY IDOCK:   -0.53 KCAL/MOL
REMARK 922        TOTAL FREE ENERGY PREDICTED BY IDOCK:   -2.74 KCAL/MOL
REMARK 923 INTER-LIGAND FREE ENERGY PREDICTED BY IDOCK:   -2.00 KCAL/MOL
REMARK 924 INTRA-LIGAND FREE ENERGY PREDICTED BY IDOCK:   -0.74 KCAL/MOL
REMARK 927      BINDING AFFINITY PREDICTED BY RF-SCORE:    0.00 PKD
ROOT
HETATM    1  O   UNL     1      -8.572   7.649  63.540  1.00  0.00    -0.363 OA 
HETATM    2  C   UNL     1      -9.227   7.315  64.760  1.00  0.00     1.210 C  
HETATM    3  H   UNL     1      -9.082   7.386  62.783  1.00  0.00     0.000 HD 
HETATM    4  C   UNL     2     -12.994  13.927  68.778  1.00  0.00     1.651 C  
HETATM    5  C   UNL     1      -8.392   7.747  66.000  1.00  0.00    -0.133 C  
HETATM    6  C   UNL     2     -11.509  13.616  68.889  1.00  0.00    -0.344 C  
HETATM    7  C   UNL     1      -8.092   9.268  65.906  1.00  0.00    -0.111 C  
HETATM    8  N   UNL     1      -9.251   7.478  67.196  1.00  0.00    -0.132 NA 
HETATM    9  C   UNL     1      -7.141   6.919  66.249  1.00  0.00    -0.074 C  
HETATM   10  H   UNL     1      -6.764   5.105  66.877  1.00  0.00     0.000 HD 
HETATM   11  H   UNL     1      -9.124  10.948  65.753  1.00  0.00     0.000 HD 
HETATM   12  H2  UNL     1      -9.587   6.516  67.247  1.00  0.00     0.000 HD 
HETATM   13  O   UNL     1      -9.307  10.018  65.810  1.00  0.00    -0.163 OA 
HETATM   14  O   UNL     1      -7.546   5.622  66.721  1.00  0.00    -0.090 OA 
HETATM   15  H1  UNL     1      -8.704   7.761  68.009  1.00  0.00     0.000 HD 
ENDROOT
BRANCH   6  16
HETATM   16  C   UNL     2     -11.205  12.134  69.112  1.00  0.00    -0.303 C  
BRANCH  16  17
HETATM   17  C   UNL     2      -9.924  11.846  69.899  1.00  0.00     1.659 C  
BRANCH  17  18
HETATM   18  C   UNL     2      -8.746  11.313  69.051  1.00  0.00     0.026 C  
HETATM   19  C   UNL     2      -7.751  12.333  68.451  1.00  0.00    -0.141 C  
HETATM   20  C   UNL     2      -6.518  11.706  67.784  1.00  0.00    -0.067 C  
HETATM   21  O   UNL     2      -7.266  13.136  69.533  1.00  0.00    -0.318 OA 
HETATM   22  C   UNL     2      -8.455  13.230  67.471  1.00  0.00    -0.202 C  
HETATM   23  H   UNL     2      -6.655  13.763  69.165  1.00  0.00     0.000 HD 
HETATM   24  C   UNL     2      -8.882  12.917  66.237  1.00  0.00     0.154 C  
BRANCH  24  25
HETATM   25  C   UNL     2      -9.614  13.853  65.302  1.00  0.00     0.113 C  
HETATM   26  C   UNL     2     -10.770  13.231  64.484  1.00  0.00    -0.411 C  
HETATM   27  C   UNL     2     -11.448  14.451  63.911  1.00  0.00     0.236 C  
HETATM   28  O   UNL     2     -11.768  12.566  65.255  1.00  0.00    -0.350 OA 
HETATM   29  H   UNL     2     -12.478  12.184  64.753  1.00  0.00     0.000 HD 
HETATM   30  C   UNL     2     -11.482  15.427  65.087  1.00  0.00    -0.208 C  
HETATM   31  C   UNL     2     -10.248  15.110  65.972  1.00  0.00    -0.325 C  
HETATM   32  O   UNL     2     -11.518  16.742  64.554  1.00  0.00    -0.866 OA 
HETATM   33  H   UNL     2     -11.539  17.348  65.286  1.00  0.00     0.000 HD 
BRANCH  31  34
HETATM   34  C   UNL     2      -9.248  16.274  66.151  1.00  0.00    -0.376 C  
BRANCH  34  35
HETATM   35  C   UNL     2      -8.317  16.109  67.331  1.00  0.00    -0.191 C  
HETATM   36  C   UNL     2      -7.783  17.057  68.116  1.00  0.00    -0.197 C  
BRANCH  36  37
HETATM   37  C   UNL     2      -7.979  18.544  68.022  1.00  0.00    -0.293 C  
BRANCH  37  38
HETATM   38  C   UNL     2      -6.669  19.332  68.080  1.00  0.00    -0.267 C  
BRANCH  38  39
HETATM   39  C   UNL     2      -6.424  20.243  66.886  1.00  0.00    -0.254 C  
HETATM   40  C   UNL     2      -6.208  19.595  65.518  1.00  0.00    -0.220 C  
HETATM   41  O   UNL     2      -5.540  20.297  64.708  1.00  0.00    -0.169 OA 
HETATM   42  O   UNL     2      -6.743  18.467  65.261  1.00  0.00    -0.485 OA 
ENDBRANCH  38  39
ENDBRANCH  37  38
ENDBRANCH  36  37
ENDBRANCH  34  35
ENDBRANCH  31  34
ENDBRANCH  24  25
ENDBRANCH  17  18
ENDBRANCH  16  17
ENDBRANCH   6  16
TORSDOF 9
ENDMDL
MODEL      308
REMARK 921   NORMALIZED FREE ENERGY PREDICTED BY IDOCK:   -0.18 KCAL/MOL
REMARK 922        TOTAL FREE ENERGY PREDICTED BY IDOCK:   -2.20 KCAL/MOL
REMARK 923 INTER-LIGAND FREE ENERGY PREDICTED BY IDOCK:   -2.69 KCAL/MOL
REMARK 924 INTRA-LIGAND FREE ENERGY PREDICTED BY IDOCK:    0.49 KCAL/MOL
REMARK 927      BINDING AFFINITY PREDICTED BY RF-SCORE:    0.00 PKD
ROOT
HETATM    1  O   UNL     1     -12.801  11.608  70.452  1.00  0.00    -0.066 OA 
HETATM    2  C   UNL     1     -12.615  11.016  69.170  1.00  0.00     0.395 C  
HETATM    3  H   UNL     1     -13.394  11.099  70.993  1.00  0.00     0.000 HD 
HETATM    4  C   UNL     2      -5.148   6.863  68.147  1.00  0.00    -0.011 C  
HETATM    5  C   UNL     1     -11.644  11.851  68.285  1.00  0.00    -0.327 C  
HETATM    6  C   UNL     2      -5.294   8.370  68.003  1.00  0.00    -0.034 C  
HETATM    7  C   UNL     1     -10.297  12.029  69.038  1.00  0.00    -0.013 C  
HETATM    8  N   UNL     1     -11.421  11.049  67.041  1.00  0.00    -0.395 NA 
HETATM    9  C   UNL     1     -12.210  13.169  67.781  1.00  0.00    -0.076 C  
HETATM   10  H   UNL     1     -13.552  13.704  66.462  1.00  0.00     0.000 HD 
HETATM   11  H   UNL     1      -8.909  10.866  69.833  1.00  0.00     0.000 HD 
HETATM   12  H2  UNL     1     -12.285  10.792  66.563  1.00  0.00     0.000 HD 
HETATM   13  O   UNL     1      -9.733  10.757  69.373  1.00  0.00    -0.173 OA 
HETATM   14  O   UNL     1     -13.198  12.880  66.777  1.00  0.00     1.274 OA 
HETATM   15  H1  UNL     1     -10.785  11.596  66.460  1.00  0.00     0.000 HD 
ENDROOT
BRANCH   6  16
HETATM   16  C   UNL     2      -6.516   8.795  67.186  1.00  0.00    -0.061 C  
BRANCH  16  17
HETATM   17  C   UNL     2      -7.057  10.191  67.506  1.00  0.00    -0.087 C  
BRANCH  17  18
HETATM   18  C   UNL     2      -6.004  11.189  68.041  1.00  0.00    -0.049 C  
HETATM   19  C   UNL     2      -6.310  11.951  69.351  1.00  0.00    -0.115 C  
HETATM   20  C   UNL     2      -5.137  12.774  69.900  1.00  0.00    -0.082 C  
HETATM   21  O   UNL     2      -6.621  10.969  70.347  1.00  0.00    -0.383 OA 
HETATM   22  C   UNL     2      -7.509  12.838  69.168  1.00  0.00     0.200 C  
HETATM   23  H   UNL     2      -6.809  11.436  71.151  1.00  0.00     0.000 HD 
HETATM   24  C   UNL     2      -7.576  13.990  68.479  1.00  0.00    -0.130 C  
BRANCH  24  25
HETATM   25  C   UNL     2      -8.821  14.830  68.301  1.00  0.00    -0.179 C  
HETATM   26  C   UNL     2      -9.690  15.034  69.563  1.00  0.00    -0.103 C  
HETATM   27  C   UNL     2     -10.641  16.120  69.123  1.00  0.00    -0.276 C  
HETATM   28  O   UNL     2      -9.002  15.563  70.693  1.00  0.00     0.595 OA 
HETATM   29  H   UNL     2      -9.536  15.689  71.469  1.00  0.00     0.000 HD 
HETATM   30  C   UNL     2      -9.741  17.102  68.374  1.00  0.00    -0.284 C  
HETATM   31  C   UNL     2      -8.583  16.273  67.758  1.00  0.00    -0.175 C  
HETATM   32  O   UNL     2     -10.548  17.796  67.436  1.00  0.00    -0.368 OA 
HETATM   33  H   UNL     2      -9.988  18.407  66.970  1.00  0.00     0.000 HD 
BRANCH  31  34
HETATM   34  C   UNL     2      -8.474  16.334  66.218  1.00  0.00    -0.369 C  
BRANCH  34  35
HETATM   35  C   UNL     2      -9.806  16.435  65.512  1.00  0.00    -0.108 C  
HETATM   36  C   UNL     2     -10.619  15.445  65.112  1.00  0.00    -0.458 C  
BRANCH  36  37
HETATM   37  C   UNL     2     -10.410  13.966  65.270  1.00  0.00    -0.396 C  
BRANCH  37  38
HETATM   38  C   UNL     2      -9.966  13.276  63.978  1.00  0.00     0.490 C  
BRANCH  38  39
HETATM   39  C   UNL     2     -10.053  11.757  64.008  1.00  0.00    -0.360 C  
HETATM   40  C   UNL     2      -9.287  10.971  62.943  1.00  0.00    -0.361 C  
HETATM   41  O   UNL     2      -9.764   9.828  62.695  1.00  0.00    -0.015 OA 
HETATM   42  O   UNL     2      -8.226  11.461  62.436  1.00  0.00    -0.193 OA 
ENDBRANCH  38  39
ENDBRANCH  37  38
ENDBRANCH  36  37
ENDBRANCH  34  35
ENDBRANCH  31  34
ENDBRANCH  24  25
ENDBRANCH  17  18
ENDBRANCH  16  17
ENDBRANCH   6  16
TORSDOF 9
ENDMDL
MODEL      309
REMARK 921   NORMALIZED FREE ENERGY PREDICTED BY IDOCK:    0.40 KCAL/MOL
REMARK 922        TOTAL FREE ENERGY PREDICTED BY IDOCK:   -1.32 KCAL/MOL
REMARK 923 INTER-LIGAND FREE ENERGY PREDICTED BY IDOCK:   -5.16 KCAL/MOL
REMARK 924 INTRA-LIGAND FREE ENERGY PREDICTED BY IDOCK:    3.85 KCAL/MOL
REMARK 927      BINDING AFFINITY PREDICTED BY RF-SCORE:    0.00 PKD
ROOT
HETATM    1  O   UNL     1      -6.529   7.271  70.533  1.00  0.00    -0.041 OA 
HETATM    2  C   UNL     1      -6.260   7.442  69.145  1.00  0.00    -0.031 C  
HETATM    3  H   UNL     1      -5.795   7.545  71.070  1.00  0.00     0.000 HD 
HETATM    4  C   UNL     2     -10.065  14.263  65.533  1.00  0.00    -0.370 C  
HETATM    5  C   UNL     1      -7.463   6.992  68.265  1.00  0.00    -0.099 C  
HETATM    6  C   UNL     2     -10.771  12.935  65.762  1.00  0.00    -0.293 C  
HETATM    7  C   UNL     1      -8.733   7.771  68.706  1.00  0.00    -0.128 C  
HETATM    8  N   UNL     1      -7.112   7.362  66.858  1.00  0.00    -0.081 NA 
HETATM    9  C   UNL     1      -7.690   5.490  68.209  1.00  0.00    -0.085 C  
HETATM   10  H   UNL     1      -6.778   3.967  67.387  1.00  0.00     0.000 HD 
HETATM   11  H   UNL     1      -9.295   9.659  68.883  1.00  0.00     0.000 HD 
HETATM   12  H2  UNL     1      -6.218   6.979  66.549  1.00  0.00     0.000 HD 
HETATM   13  O   UNL     1      -8.519   9.183  68.614  1.00  0.00    -0.124 OA 
HETATM   14  O   UNL     1      -6.637   4.906  67.423  1.00  0.00    -0.047 OA 
HETATM   15  H1  UNL     1      -7.900   7.068  66.282  1.00  0.00     0.000 HD 
ENDROOT
BRANCH   6  16
HETATM   16  C   UNL     2      -9.935  11.717  65.364  1.00  0.00    -0.284 C  
BRANCH  16  17
HETATM   17  C   UNL     2     -10.341  10.403  66.037  1.00  0.00    -0.262 C  
BRANCH  17  18
HETATM   18  C   UNL     2      -9.869  10.251  67.502  1.00  0.00    -0.204 C  
HETATM   19  C   UNL     2     -10.828  10.687  68.634  1.00  0.00    -0.227 C  
HETATM   20  C   UNL     2     -10.352  10.329  70.049  1.00  0.00    -0.255 C  
HETATM   21  O   UNL     2     -12.064   9.993  68.430  1.00  0.00    -0.308 OA 
HETATM   22  C   UNL     2     -11.093  12.164  68.548  1.00  0.00    -0.295 C  
HETATM   23  H   UNL     2     -12.653  10.261  69.125  1.00  0.00     0.000 HD 
HETATM   24  C   UNL     2     -10.256  13.165  68.868  1.00  0.00    -0.021 C  
BRANCH  24  25
HETATM   25  C   UNL     2     -10.565  14.640  68.733  1.00  0.00    -0.248 C  
HETATM   26  C   UNL     2     -12.061  15.014  68.625  1.00  0.00    -0.163 C  
HETATM   27  C   UNL     2     -12.028  16.512  68.803  1.00  0.00     0.433 C  
HETATM   28  O   UNL     2     -12.887  14.522  69.676  1.00  0.00    -0.545 OA 
HETATM   29  H   UNL     2     -13.806  14.751  69.610  1.00  0.00     0.000 HD 
HETATM   30  C   UNL     2     -11.040  16.714  69.950  1.00  0.00    -0.117 C  
HETATM   31  C   UNL     2     -10.022  15.545  69.881  1.00  0.00    -0.243 C  
HETATM   32  O   UNL     2     -10.478  18.010  69.812  1.00  0.00    -0.184 OA 
HETATM   33  H   UNL     2      -9.863  18.135  70.525  1.00  0.00     0.000 HD 
BRANCH  31  34
HETATM   34  C   UNL     2      -8.548  15.964  69.681  1.00  0.00     0.044 C  
BRANCH  34  35
HETATM   35  C   UNL     2      -7.547  14.940  70.164  1.00  0.00     0.330 C  
HETATM   36  C   UNL     2      -6.787  14.105  69.439  1.00  0.00    -0.104 C  
BRANCH  36  37
HETATM   37  C   UNL     2      -6.735  13.977  67.943  1.00  0.00    -0.171 C  
BRANCH  37  38
HETATM   38  C   UNL     2      -7.272  15.208  67.210  1.00  0.00    -0.197 C  
BRANCH  38  39
HETATM   39  C   UNL     2      -6.237  16.291  66.947  1.00  0.00     0.000 C  
HETATM   40  C   UNL     2      -6.645  17.482  66.078  1.00  0.00    -0.206 C  
HETATM   41  O   UNL     2      -5.684  18.054  65.493  1.00  0.00    -0.179 OA 
HETATM   42  O   UNL     2      -7.864  17.851  66.045  1.00  0.00    -0.459 OA 
ENDBRANCH  38  39
ENDBRANCH  37  38
ENDBRANCH  36  37
ENDBRANCH  34  35
ENDBRANCH  31  34
ENDBRANCH  24  25
ENDBRANCH  17  18
ENDBRANCH  16  17
ENDBRANCH   6  16
TORSDOF 9
ENDMDL
MODEL      310
REMARK 921   NORMALIZED FREE ENERGY PREDICTED BY IDOCK:    0.46 KCAL/MOL
REMARK 922        TOTAL FREE ENERGY PREDICTED BY IDOCK:   -1.23 KCAL/MOL
REMARK 923 INTER-LIGAND FREE ENERGY PREDICTED BY IDOCK:   -1.55 KCAL/MOL
REMARK 924 INTRA-LIGAND FREE ENERGY PREDICTED BY IDOCK:    0.32 KCAL/MOL
REMARK 927      BINDING AFFINITY PREDICTED BY RF-SCORE:    0.00 PKD
ROOT
HETATM    1  O   UNL     1     -12.472   7.669  72.820  1.00  0.00    -0.537 OA 
HETATM    2  C   UNL     1     -12.572   8.079  71.460  1.00  0.00    -0.312 C  
HETATM    3  H   UNL     1     -13.044   6.934  73.009  1.00  0.00     0.000 HD 
HETATM    4  C   UNL     2      -6.042   5.596  66.436  1.00  0.00    -0.030 C  
HETATM    5  C   UNL     1     -11.634   9.283  71.151  1.00  0.00    -0.327 C  
HETATM    6  C   UNL     2      -5.984   6.817  67.341  1.00  0.00    -0.021 C  
HETATM    7  C   UNL     1     -10.177   8.901  71.531  1.00  0.00    -0.328 C  
HETATM    8  N   UNL     1     -11.723   9.512  69.675  1.00  0.00    -0.430 NA 
HETATM    9  C   UNL     1     -12.069  10.607  71.759  1.00  0.00     0.158 C  
HETATM   10  H   UNL     1     -13.502  11.896  71.427  1.00  0.00     0.000 HD 
HETATM   11  H   UNL     1      -8.872   7.492  71.063  1.00  0.00     0.000 HD 
HETATM   12  H2  UNL     1     -12.678   9.646  69.341  1.00  0.00     0.000 HD 
HETATM   13  O   UNL     1      -9.762   7.725  70.831  1.00  0.00    -0.168 OA 
HETATM   14  O   UNL     1     -13.230  11.069  71.047  1.00  0.00    -0.237 OA 
HETATM   15  H1  UNL     1     -11.108  10.300  69.472  1.00  0.00     0.000 HD 
ENDROOT
BRANCH   6  16
HETATM   16  C   UNL     2      -7.239   7.689  67.279  1.00  0.00    -0.090 C  
BRANCH  16  17
HETATM   17  C   UNL     2      -7.017   9.170  67.599  1.00  0.00    -0.078 C  
BRANCH  17  18
HETATM   18  C   UNL     2      -6.521   9.457  69.035  1.00  0.00    -0.046 C  
HETATM   19  C   UNL     2      -7.421  10.297  69.971  1.00  0.00    -0.132 C  
HETATM   20  C   UNL     2      -6.936  10.372  71.426  1.00  0.00     1.541 C  
HETATM   21  O   UNL     2      -8.705   9.663  70.001  1.00  0.00    -0.200 OA 
HETATM   22  C   UNL     2      -7.588  11.685  69.421  1.00  0.00     0.213 C  
HETATM   23  H   UNL     2      -9.258  10.179  70.575  1.00  0.00     0.000 HD 
HETATM   24  C   UNL     2      -6.678  12.674  69.405  1.00  0.00    -0.022 C  
BRANCH  24  25
HETATM   25  C   UNL     2      -6.891  14.048  68.809  1.00  0.00    -0.103 C  
HETATM   26  C   UNL     2      -5.706  14.630  68.004  1.00  0.00    -0.138 C  
HETATM   27  C   UNL     2      -6.337  15.822  67.327  1.00  0.00    -0.105 C  
HETATM   28  O   UNL     2      -5.225  13.801  66.950  1.00  0.00     0.259 OA 
HETATM   29  H   UNL     2      -4.497  14.159  66.455  1.00  0.00     0.000 HD 
HETATM   30  C   UNL     2      -7.688  15.290  66.852  1.00  0.00    -0.073 C  
HETATM   31  C   UNL     2      -8.113  14.180  67.850  1.00  0.00    -0.154 C  
HETATM   32  O   UNL     2      -8.578  16.392  66.763  1.00  0.00    -0.191 OA 
HETATM   33  H   UNL     2      -9.418  16.061  66.467  1.00  0.00     0.000 HD 
BRANCH  31  34
HETATM   34  C   UNL     2      -9.444  14.435  68.591  1.00  0.00    -0.193 C  
BRANCH  34  35
HETATM   35  C   UNL     2     -10.658  14.438  67.690  1.00  0.00    -0.260 C  
HETATM   36  C   UNL     2     -10.872  13.728  66.571  1.00  0.00    -0.287 C  
BRANCH  36  37
HETATM   37  C   UNL     2      -9.950  12.735  65.924  1.00  0.00    -0.273 C  
BRANCH  37  38
HETATM   38  C   UNL     2     -10.654  11.820  64.919  1.00  0.00    -0.344 C  
BRANCH  38  39
HETATM   39  C   UNL     2     -10.457  10.332  65.171  1.00  0.00    -0.069 C  
HETATM   40  C   UNL     2     -11.035   9.736  66.455  1.00  0.00     0.269 C  
HETATM   41  O   UNL     2     -10.449   8.692  66.855  1.00  0.00    -0.294 OA 
HETATM   42  O   UNL     2     -12.065  10.263  66.989  1.00  0.00     1.448 OA 
ENDBRANCH  38  39
ENDBRANCH  37  38
ENDBRANCH  36  37
ENDBRANCH  34  35
ENDBRANCH  31  34
ENDBRANCH  24  25
ENDBRANCH  17  18
ENDBRANCH  16  17
ENDBRANCH   6  16
TORSDOF 9
ENDMDL
MODEL      311
REMARK 921   NORMALIZED FREE ENERGY PREDICTED BY IDOCK:    0.68 KCAL/MOL
REMARK 922        TOTAL FREE ENERGY PREDICTED BY IDOCK:   -0.89 KCAL/MOL
REMARK 923 INTER-LIGAND FREE ENERGY PREDICTED BY IDOCK:   -1.73 KCAL/MOL
REMARK 924 INTRA-LIGAND FREE ENERGY PREDICTED BY IDOCK:    0.84 KCAL/MOL
REMARK 927      BINDING AFFINITY PREDICTED BY RF-SCORE:    0.00 PKD
ROOT
HETATM    1  O   UNL     1      -5.864  14.745  69.127  1.00  0.00    -0.097 OA 
HETATM    2  C   UNL     1      -6.991  13.885  69.267  1.00  0.00    -0.067 C  
HETATM    3  H   UNL     1      -5.914  15.489  69.715  1.00  0.00     0.000 HD 
HETATM    4  C   UNL     2      -5.509   6.654  73.690  1.00  0.00    -0.046 C  
HETATM    5  C   UNL     1      -6.908  12.665  68.304  1.00  0.00    -0.084 C  
HETATM    6  C   UNL     2      -5.165   6.820  72.217  1.00  0.00    -0.032 C  
HETATM    7  C   UNL     1      -5.574  11.909  68.555  1.00  0.00    -0.052 C  
HETATM    8  N   UNL     1      -8.061  11.777  68.656  1.00  0.00    -0.256 NA 
HETATM    9  C   UNL     1      -7.127  12.992  66.835  1.00  0.00     0.505 C  
HETATM   10  H   UNL     1      -8.655  13.507  65.728  1.00  0.00     0.000 HD 
HETATM   11  H   UNL     1      -4.659  11.040  70.077  1.00  0.00     0.000 HD 
HETATM   12  H2  UNL     1      -8.963  12.253  68.630  1.00  0.00     0.000 HD 
HETATM   13  O   UNL     1      -5.474  11.502  69.923  1.00  0.00    -0.062 OA 
HETATM   14  O   UNL     1      -8.518  13.303  66.646  1.00  0.00    -0.038 OA 
HETATM   15  H1  UNL     1      -8.007  10.977  68.025  1.00  0.00     0.000 HD 
ENDROOT
BRANCH   6  16
HETATM   16  C   UNL     2      -6.275   7.480  71.397  1.00  0.00    -0.035 C  
BRANCH  16  17
HETATM   17  C   UNL     2      -6.886   8.736  72.026  1.00  0.00    -0.051 C  
BRANCH  17  18
HETATM   18  C   UNL     2      -8.076   9.340  71.244  1.00  0.00     0.043 C  
HETATM   19  C   UNL     2      -9.428   8.592  71.266  1.00  0.00    -0.205 C  
HETATM   20  C   UNL     2     -10.593   9.357  70.621  1.00  0.00    -0.354 C  
HETATM   21  O   UNL     2      -9.779   8.397  72.641  1.00  0.00    -0.278 OA 
HETATM   22  C   UNL     2      -9.286   7.244  70.616  1.00  0.00    -0.157 C  
HETATM   23  H   UNL     2     -10.610   7.936  72.655  1.00  0.00     0.000 HD 
HETATM   24  C   UNL     2      -9.157   6.978  69.305  1.00  0.00    -0.137 C  
BRANCH  24  25
HETATM   25  C   UNL     2      -8.987   5.601  68.705  1.00  0.00    -0.117 C  
HETATM   26  C   UNL     2      -9.553   4.424  69.533  1.00  0.00    -0.201 C  
HETATM   27  C   UNL     2      -9.489   3.282  68.549  1.00  0.00    -0.206 C  
HETATM   28  O   UNL     2     -10.927   4.542  69.893  1.00  0.00     1.039 OA 
HETATM   29  H   UNL     2     -11.275   3.819  70.402  1.00  0.00     0.000 HD 
HETATM   30  C   UNL     2      -9.988   3.904  67.246  1.00  0.00     0.104 C  
HETATM   31  C   UNL     2      -9.603   5.407  67.286  1.00  0.00    -0.140 C  
HETATM   32  O   UNL     2      -9.424   3.167  66.172  1.00  0.00    -0.317 OA 
HETATM   33  H   UNL     2      -9.735   3.554  65.362  1.00  0.00     0.000 HD 
BRANCH  31  34
HETATM   34  C   UNL     2      -8.671   5.880  66.148  1.00  0.00    -0.141 C  
BRANCH  34  35
HETATM   35  C   UNL     2      -7.717   6.980  66.552  1.00  0.00    -0.104 C  
HETATM   36  C   UNL     2      -6.504   6.872  67.116  1.00  0.00    -0.049 C  
BRANCH  36  37
HETATM   37  C   UNL     2      -5.776   5.613  67.491  1.00  0.00    -0.013 C  
BRANCH  37  38
HETATM   38  C   UNL     2      -5.890   4.509  66.438  1.00  0.00    -0.023 C  
BRANCH  38  39
HETATM   39  C   UNL     2      -6.409   4.975  65.085  1.00  0.00    -0.035 C  
HETATM   40  C   UNL     2      -6.731   3.913  64.033  1.00  0.00    -0.044 C  
HETATM   41  O   UNL     2      -6.665   4.324  62.840  1.00  0.00    -0.029 OA 
HETATM   42  O   UNL     2      -7.093   2.748  64.401  1.00  0.00    -0.047 OA 
ENDBRANCH  38  39
ENDBRANCH  37  38
ENDBRANCH  36  37
ENDBRANCH  34  35
ENDBRANCH  31  34
ENDBRANCH  24  25
ENDBRANCH  17  18
ENDBRANCH  16  17
ENDBRANCH   6  16
TORSDOF 9
ENDMDL
MODEL      312
REMARK 921   NORMALIZED FREE ENERGY PREDICTED BY IDOCK:    1.31 KCAL/MOL
REMARK 922        TOTAL FREE ENERGY PREDICTED BY IDOCK:    0.07 KCAL/MOL
REMARK 923 INTER-LIGAND FREE ENERGY PREDICTED BY IDOCK:   -4.41 KCAL/MOL
REMARK 924 INTRA-LIGAND FREE ENERGY PREDICTED BY IDOCK:    4.48 KCAL/MOL
REMARK 927      BINDING AFFINITY PREDICTED BY RF-SCORE:    0.00 PKD
ROOT
HETATM    1  O   UNL     1      -5.340   7.452  70.235  1.00  0.00    -0.023 OA 
HETATM    2  C   UNL     1      -6.633   7.682  70.786  1.00  0.00    -0.038 C  
HETATM    3  H   UNL     1      -5.232   6.550  69.955  1.00  0.00     0.000 HD 
HETATM    4  C   UNL     2     -12.109  11.807  65.585  1.00  0.00     0.347 C  
HETATM    5  C   UNL     1      -6.811   9.159  71.243  1.00  0.00    -0.063 C  
HETATM    6  C   UNL     2     -11.056  12.516  66.424  1.00  0.00    -0.332 C  
HETATM    7  C   UNL     1      -6.522  10.101  70.041  1.00  0.00    -0.106 C  
HETATM    8  N   UNL     1      -8.242   9.299  71.656  1.00  0.00    -0.255 NA 
HETATM    9  C   UNL     1      -6.026   9.544  72.488  1.00  0.00     0.271 C  
HETATM   10  H   UNL     1      -6.151   9.147  74.399  1.00  0.00     0.000 HD 
HETATM   11  H   UNL     1      -7.202  10.365  68.204  1.00  0.00     0.000 HD 
HETATM   12  H2  UNL     1      -8.530   8.619  72.361  1.00  0.00     0.000 HD 
HETATM   13  O   UNL     1      -7.378   9.790  68.938  1.00  0.00    -0.070 OA 
HETATM   14  O   UNL     1      -6.641   8.907  73.621  1.00  0.00    -0.315 OA 
HETATM   15  H1  UNL     1      -8.359  10.267  71.956  1.00  0.00     0.000 HD 
ENDROOT
BRANCH   6  16
HETATM   16  C   UNL     2     -10.972  12.007  67.864  1.00  0.00    -0.266 C  
BRANCH  16  17
HETATM   17  C   UNL     2     -10.059  12.819  68.787  1.00  0.00    -0.057 C  
BRANCH  17  18
HETATM   18  C   UNL     2      -8.549  12.694  68.480  1.00  0.00    -0.051 C  
HETATM   19  C   UNL     2      -8.112  12.464  67.015  1.00  0.00    -0.124 C  
HETATM   20  C   UNL     2      -6.596  12.538  66.782  1.00  0.00     0.478 C  
HETATM   21  O   UNL     2      -8.697  13.510  66.231  1.00  0.00    -0.424 OA 
HETATM   22  C   UNL     2      -8.636  11.146  66.518  1.00  0.00    -0.169 C  
HETATM   23  H   UNL     2      -8.430  13.368  65.332  1.00  0.00     0.000 HD 
HETATM   24  C   UNL     2      -8.201   9.917  66.844  1.00  0.00    -0.120 C  
BRANCH  24  25
HETATM   25  C   UNL     2      -8.787   8.619  66.336  1.00  0.00    -0.167 C  
HETATM   26  C   UNL     2      -8.244   8.113  64.979  1.00  0.00    -0.154 C  
HETATM   27  C   UNL     2      -8.793   6.709  64.920  1.00  0.00     0.356 C  
HETATM   28  O   UNL     2      -6.828   7.974  64.908  1.00  0.00    -0.057 OA 
HETATM   29  H   UNL     2      -6.494   7.663  64.074  1.00  0.00     0.000 HD 
HETATM   30  C   UNL     2      -8.568   6.177  66.335  1.00  0.00    -0.131 C  
HETATM   31  C   UNL     2      -8.638   7.397  67.292  1.00  0.00    -0.118 C  
HETATM   32  O   UNL     2      -9.536   5.168  66.575  1.00  0.00    -0.137 OA 
HETATM   33  H   UNL     2      -9.396   4.838  67.455  1.00  0.00     0.000 HD 
BRANCH  31  34
HETATM   34  C   UNL     2      -9.744   7.328  68.369  1.00  0.00    -0.151 C  
BRANCH  34  35
HETATM   35  C   UNL     2     -10.305   5.941  68.584  1.00  0.00    -0.271 C  
HETATM   36  C   UNL     2     -10.725   5.375  69.727  1.00  0.00    -0.280 C  
BRANCH  36  37
HETATM   37  C   UNL     2     -10.747   5.985  71.099  1.00  0.00    -0.323 C  
BRANCH  37  38
HETATM   38  C   UNL     2     -12.159   6.251  71.622  1.00  0.00    -0.229 C  
BRANCH  38  39
HETATM   39  C   UNL     2     -12.686   7.651  71.343  1.00  0.00    -0.357 C  
HETATM   40  C   UNL     2     -12.017   8.827  72.056  1.00  0.00    -0.376 C  
HETATM   41  O   UNL     2     -12.757   9.841  72.196  1.00  0.00    -0.376 OA 
HETATM   42  O   UNL     2     -10.791   8.747  72.394  1.00  0.00    -0.320 OA 
ENDBRANCH  38  39
ENDBRANCH  37  38
ENDBRANCH  36  37
ENDBRANCH  34  35
ENDBRANCH  31  34
ENDBRANCH  24  25
ENDBRANCH  17  18
ENDBRANCH  16  17
ENDBRANCH   6  16
TORSDOF 9
ENDMDL
MODEL      313
REMARK 921   NORMALIZED FREE ENERGY PREDICTED BY IDOCK:    1.48 KCAL/MOL
REMARK 922        TOTAL FREE ENERGY PREDICTED BY IDOCK:    0.33 KCAL/MOL
REMARK 923 INTER-LIGAND FREE ENERGY PREDICTED BY IDOCK:    1.41 KCAL/MOL
REMARK 924 INTRA-LIGAND FREE ENERGY PREDICTED BY IDOCK:   -1.09 KCAL/MOL
REMARK 927      BINDING AFFINITY PREDICTED BY RF-SCORE:    0.00 PKD
ROOT
HETATM    1  O   UNL     1     -13.644  11.020  68.936  1.00  0.00     2.183 OA 
HETATM    2  C   UNL     1     -12.404  11.287  69.582  1.00  0.00    -0.194 C  
HETATM    3  H   UNL     1     -13.943  11.764  68.426  1.00  0.00     0.000 HD 
HETATM    4  C   UNL     2      -5.536   7.663  65.874  1.00  0.00    -0.029 C  
HETATM    5  C   UNL     1     -11.914  10.067  70.416  1.00  0.00    -0.236 C  
HETATM    6  C   UNL     2      -6.463   6.920  66.824  1.00  0.00    -0.047 C  
HETATM    7  C   UNL     1     -11.825   8.822  69.491  1.00  0.00     0.942 C  
HETATM    8  N   UNL     1     -10.547  10.422  70.911  1.00  0.00    -0.127 NA 
HETATM    9  C   UNL     1     -12.709   9.797  71.684  1.00  0.00    -0.422 C  
HETATM   10  H   UNL     1     -12.897  10.660  73.429  1.00  0.00     0.000 HD 
HETATM   11  H   UNL     1     -10.903   8.316  67.817  1.00  0.00     0.000 HD 
HETATM   12  H2  UNL     1     -10.517  11.303  71.425  1.00  0.00     0.000 HD 
HETATM   13  O   UNL     1     -10.958   9.077  68.382  1.00  0.00    -0.071 OA 
HETATM   14  O   UNL     1     -12.401  10.829  72.636  1.00  0.00     1.060 OA 
HETATM   15  H1  UNL     1     -10.226   9.623  71.458  1.00  0.00     0.000 HD 
ENDROOT
BRANCH   6  16
HETATM   16  C   UNL     2      -6.829   7.719  68.077  1.00  0.00    -0.072 C  
BRANCH  16  17
HETATM   17  C   UNL     2      -6.693   9.238  67.940  1.00  0.00    -0.071 C  
BRANCH  17  18
HETATM   18  C   UNL     2      -7.980   9.966  67.485  1.00  0.00    -0.106 C  
HETATM   19  C   UNL     2      -7.842  11.341  66.792  1.00  0.00    -0.155 C  
HETATM   20  C   UNL     2      -9.150  11.899  66.213  1.00  0.00    -0.188 C  
HETATM   21  O   UNL     2      -6.947  11.168  65.687  1.00  0.00    -0.373 OA 
HETATM   22  C   UNL     2      -7.241  12.342  67.738  1.00  0.00    -0.114 C  
HETATM   23  H   UNL     2      -6.862  12.013  65.261  1.00  0.00     0.000 HD 
HETATM   24  C   UNL     2      -7.833  12.929  68.792  1.00  0.00     0.040 C  
BRANCH  24  25
HETATM   25  C   UNL     2      -7.170  13.910  69.733  1.00  0.00     0.310 C  
HETATM   26  C   UNL     2      -6.174  13.307  70.751  1.00  0.00     0.250 C  
HETATM   27  C   UNL     2      -5.499  14.539  71.303  1.00  0.00    -0.158 C  
HETATM   28  O   UNL     2      -5.130  12.520  70.185  1.00  0.00    -0.080 OA 
HETATM   29  H   UNL     2      -4.519  12.150  70.810  1.00  0.00     0.000 HD 
HETATM   30  C   UNL     2      -5.247  15.395  70.063  1.00  0.00    -0.106 C  
HETATM   31  C   UNL     2      -6.373  15.062  69.048  1.00  0.00    -0.100 C  
HETATM   32  O   UNL     2      -5.194  16.751  70.478  1.00  0.00    -0.198 OA 
HETATM   33  H   UNL     2      -5.038  17.283  69.706  1.00  0.00     0.000 HD 
BRANCH  31  34
HETATM   34  C   UNL     2      -7.262  16.255  68.633  1.00  0.00    -0.166 C  
BRANCH  34  35
HETATM   35  C   UNL     2      -8.273  16.661  69.681  1.00  0.00     0.557 C  
HETATM   36  C   UNL     2      -9.605  16.772  69.560  1.00  0.00     0.107 C  
BRANCH  36  37
HETATM   37  C   UNL     2     -10.441  16.516  68.339  1.00  0.00    -0.307 C  
BRANCH  37  38
HETATM   38  C   UNL     2      -9.727  16.867  67.032  1.00  0.00    -0.255 C  
BRANCH  38  39
HETATM   39  C   UNL     2      -9.473  18.353  66.827  1.00  0.00    -0.297 C  
HETATM   40  C   UNL     2     -10.138  19.040  65.633  1.00  0.00     0.116 C  
HETATM   41  O   UNL     2      -9.535  20.071  65.222  1.00  0.00    -0.023 OA 
HETATM   42  O   UNL     2     -11.243  18.593  65.182  1.00  0.00    -0.259 OA 
ENDBRANCH  38  39
ENDBRANCH  37  38
ENDBRANCH  36  37
ENDBRANCH  34  35
ENDBRANCH  31  34
ENDBRANCH  24  25
ENDBRANCH  17  18
ENDBRANCH  16  17
ENDBRANCH   6  16
TORSDOF 9
ENDMDL
MODEL      314
REMARK 921   NORMALIZED FREE ENERGY PREDICTED BY IDOCK:    1.57 KCAL/MOL
REMARK 922        TOTAL FREE ENERGY PREDICTED BY IDOCK:    0.47 KCAL/MOL
REMARK 923 INTER-LIGAND FREE ENERGY PREDICTED BY IDOCK:   -3.82 KCAL/MOL
REMARK 924 INTRA-LIGAND FREE ENERGY PREDICTED BY IDOCK:    4.28 KCAL/MOL
REMARK 927      BINDING AFFINITY PREDICTED BY RF-SCORE:    0.00 PKD
ROOT
HETATM    1  O   UNL     1     -10.424   9.234  70.343  1.00  0.00    -0.211 OA 
HETATM    2  C   UNL     1      -9.575   9.459  69.222  1.00  0.00    -0.171 C  
HETATM    3  H   UNL     1     -10.021   8.653  70.978  1.00  0.00     0.000 HD 
HETATM    4  C   UNL     2      -5.593  17.088  69.170  1.00  0.00    -0.155 C  
HETATM    5  C   UNL     1     -10.234  10.411  68.182  1.00  0.00    -0.161 C  
HETATM    6  C   UNL     2      -7.025  16.888  68.700  1.00  0.00    -0.191 C  
HETATM    7  C   UNL     1     -10.624  11.741  68.885  1.00  0.00    -0.180 C  
HETATM    8  N   UNL     1      -9.190  10.681  67.143  1.00  0.00    -0.147 NA 
HETATM    9  C   UNL     1     -11.388   9.804  67.399  1.00  0.00     0.515 C  
HETATM   10  H   UNL     1     -11.569   8.462  65.988  1.00  0.00     0.000 HD 
HETATM   11  H   UNL     1      -9.716  13.159  69.922  1.00  0.00     0.000 HD 
HETATM   12  H2  UNL     1      -8.801   9.834  66.728  1.00  0.00     0.000 HD 
HETATM   13  O   UNL     1      -9.478  12.346  69.493  1.00  0.00     0.931 OA 
HETATM   14  O   UNL     1     -10.848   8.841  66.477  1.00  0.00     0.010 OA 
HETATM   15  H1  UNL     1      -9.621  11.305  66.461  1.00  0.00     0.000 HD 
ENDROOT
BRANCH   6  16
HETATM   16  C   UNL     2      -7.214  15.663  67.804  1.00  0.00    -0.175 C  
BRANCH  16  17
HETATM   17  C   UNL     2      -6.102  14.615  67.896  1.00  0.00    -0.162 C  
BRANCH  17  18
HETATM   18  C   UNL     2      -6.589  13.175  68.182  1.00  0.00    -0.107 C  
HETATM   19  C   UNL     2      -6.648  12.171  67.009  1.00  0.00    -0.080 C  
HETATM   20  C   UNL     2      -6.964  10.725  67.420  1.00  0.00    -0.083 C  
HETATM   21  O   UNL     2      -5.349  12.149  66.406  1.00  0.00    -0.451 OA 
HETATM   22  C   UNL     2      -7.642  12.632  65.980  1.00  0.00     1.908 C  
HETATM   23  H   UNL     2      -5.386  11.533  65.685  1.00  0.00     0.000 HD 
HETATM   24  C   UNL     2      -8.983  12.610  66.070  1.00  0.00     0.201 C  
BRANCH  24  25
HETATM   25  C   UNL     2      -9.938  13.117  65.014  1.00  0.00    -0.163 C  
HETATM   26  C   UNL     2     -10.271  12.132  63.869  1.00  0.00    -0.400 C  
HETATM   27  C   UNL     2     -11.432  12.815  63.189  1.00  0.00    -0.100 C  
HETATM   28  O   UNL     2     -10.765  10.863  64.286  1.00  0.00    -0.368 OA 
HETATM   29  H   UNL     2     -10.969  10.258  63.583  1.00  0.00     0.000 HD 
HETATM   30  C   UNL     2     -12.292  13.303  64.354  1.00  0.00    -0.348 C  
HETATM   31  C   UNL     2     -11.331  13.584  65.539  1.00  0.00    -0.310 C  
HETATM   32  O   UNL     2     -13.034  14.425  63.902  1.00  0.00    -0.404 OA 
HETATM   33  H   UNL     2     -13.568  14.728  64.626  1.00  0.00     0.000 HD 
BRANCH  31  34
HETATM   34  C   UNL     2     -11.330  15.040  66.056  1.00  0.00    -0.270 C  
BRANCH  34  35
HETATM   35  C   UNL     2     -10.067  15.430  66.790  1.00  0.00    -0.266 C  
HETATM   36  C   UNL     2      -9.923  15.790  68.075  1.00  0.00    -0.222 C  
BRANCH  36  37
HETATM   37  C   UNL     2     -10.992  15.896  69.124  1.00  0.00    -0.284 C  
BRANCH  37  38
HETATM   38  C   UNL     2     -10.697  15.069  70.377  1.00  0.00    -0.134 C  
BRANCH  38  39
HETATM   39  C   UNL     2     -11.925  14.689  71.190  1.00  0.00    -0.405 C  
HETATM   40  C   UNL     2     -12.198  15.458  72.484  1.00  0.00    -0.404 C  
HETATM   41  O   UNL     2     -12.876  14.820  73.337  1.00  0.00    -0.515 OA 
HETATM   42  O   UNL     2     -11.801  16.664  72.598  1.00  0.00    -0.516 OA 
ENDBRANCH  38  39
ENDBRANCH  37  38
ENDBRANCH  36  37
ENDBRANCH  34  35
ENDBRANCH  31  34
ENDBRANCH  24  25
ENDBRANCH  17  18
ENDBRANCH  16  17
ENDBRANCH   6  16
TORSDOF 9
ENDMDL
MODEL      315
REMARK 921   NORMALIZED FREE ENERGY PREDICTED BY IDOCK:    1.63 KCAL/MOL
REMARK 922        TOTAL FREE ENERGY PREDICTED BY IDOCK:    0.56 KCAL/MOL
REMARK 923 INTER-LIGAND FREE ENERGY PREDICTED BY IDOCK:   -4.43 KCAL/MOL
REMARK 924 INTRA-LIGAND FREE ENERGY PREDICTED BY IDOCK:    4.99 KCAL/MOL
REMARK 927      BINDING AFFINITY PREDICTED BY RF-SCORE:    0.00 PKD
ROOT
HETATM    1  O   UNL     1     -11.166   8.117  67.499  1.00  0.00    -0.384 OA 
HETATM    2  C   UNL     1     -11.552   9.286  68.214  1.00  0.00     1.044 C  
HETATM    3  H   UNL     1     -11.708   7.979  66.730  1.00  0.00     0.000 HD 
HETATM    4  C   UNL     2      -6.400  16.086  67.091  1.00  0.00    -0.114 C  
HETATM    5  C   UNL     1     -10.664   9.511  69.473  1.00  0.00    -0.228 C  
HETATM    6  C   UNL     2      -6.098  14.959  68.067  1.00  0.00    -0.163 C  
HETATM    7  C   UNL     1      -9.173   9.567  69.039  1.00  0.00    -0.155 C  
HETATM    8  N   UNL     1     -11.071  10.834  70.040  1.00  0.00    -0.391 NA 
HETATM    9  C   UNL     1     -10.904   8.530  70.610  1.00  0.00    -0.225 C  
HETATM   10  H   UNL     1     -12.328   8.223  71.916  1.00  0.00     0.000 HD 
HETATM   11  H   UNL     1      -8.057  10.631  67.801  1.00  0.00     0.000 HD 
HETATM   12  H2  UNL     1     -12.071  10.904  70.232  1.00  0.00     0.000 HD 
HETATM   13  O   UNL     1      -8.968  10.596  68.066  1.00  0.00    -0.135 OA 
HETATM   14  O   UNL     1     -12.177   8.835  71.205  1.00  0.00    -0.295 OA 
HETATM   15  H1  UNL     1     -10.489  10.982  70.864  1.00  0.00     0.000 HD 
ENDROOT
BRANCH   6  16
HETATM   16  C   UNL     2      -7.303  14.534  68.907  1.00  0.00    -0.128 C  
BRANCH  16  17
HETATM   17  C   UNL     2      -7.048  13.362  69.860  1.00  0.00     0.541 C  
BRANCH  17  18
HETATM   18  C   UNL     2      -6.685  12.028  69.167  1.00  0.00    -0.101 C  
HETATM   19  C   UNL     2      -6.268  12.062  67.679  1.00  0.00    -0.096 C  
HETATM   20  C   UNL     2      -5.749  10.725  67.131  1.00  0.00    -0.046 C  
HETATM   21  O   UNL     2      -5.189  12.997  67.564  1.00  0.00    -0.242 OA 
HETATM   22  C   UNL     2      -7.410  12.547  66.831  1.00  0.00     0.121 C  
HETATM   23  H   UNL     2      -4.933  13.018  66.650  1.00  0.00     0.000 HD 
HETATM   24  C   UNL     2      -8.529  11.878  66.506  1.00  0.00    -0.097 C  
BRANCH  24  25
HETATM   25  C   UNL     2      -9.664  12.427  65.671  1.00  0.00    -0.183 C  
HETATM   26  C   UNL     2      -9.971  11.670  64.358  1.00  0.00    -0.262 C  
HETATM   27  C   UNL     2     -11.292  12.271  63.945  1.00  0.00    -0.501 C  
HETATM   28  O   UNL     2     -10.215  10.274  64.506  1.00  0.00    -0.314 OA 
HETATM   29  H   UNL     2     -10.403   9.809  63.700  1.00  0.00     0.000 HD 
HETATM   30  C   UNL     2     -12.079  12.338  65.253  1.00  0.00    -0.297 C  
HETATM   31  C   UNL     2     -11.043  12.520  66.394  1.00  0.00    -0.332 C  
HETATM   32  O   UNL     2     -13.029  13.385  65.131  1.00  0.00    -0.710 OA 
HETATM   33  H   UNL     2     -13.518  13.427  65.945  1.00  0.00     0.000 HD 
BRANCH  31  34
HETATM   34  C   UNL     2     -11.205  13.808  67.233  1.00  0.00    -0.329 C  
BRANCH  34  35
HETATM   35  C   UNL     2      -9.959  14.661  67.295  1.00  0.00    -0.235 C  
HETATM   36  C   UNL     2      -9.858  15.999  67.269  1.00  0.00    -0.236 C  
BRANCH  36  37
HETATM   37  C   UNL     2     -10.972  17.002  67.172  1.00  0.00     0.031 C  
BRANCH  37  38
HETATM   38  C   UNL     2     -11.173  17.811  68.455  1.00  0.00     0.506 C  
BRANCH  38  39
HETATM   39  C   UNL     2     -10.786  17.080  69.732  1.00  0.00     0.031 C  
HETATM   40  C   UNL     2     -11.853  16.239  70.432  1.00  0.00     0.004 C  
HETATM   41  O   UNL     2     -11.665  16.082  71.671  1.00  0.00    -0.444 OA 
HETATM   42  O   UNL     2     -12.792  15.713  69.750  1.00  0.00    -0.068 OA 
ENDBRANCH  38  39
ENDBRANCH  37  38
ENDBRANCH  36  37
ENDBRANCH  34  35
ENDBRANCH  31  34
ENDBRANCH  24  25
ENDBRANCH  17  18
ENDBRANCH  16  17
ENDBRANCH   6  16
TORSDOF 9
ENDMDL
MODEL      316
REMARK 921   NORMALIZED FREE ENERGY PREDICTED BY IDOCK:    1.63 KCAL/MOL
REMARK 922        TOTAL FREE ENERGY PREDICTED BY IDOCK:    0.56 KCAL/MOL
REMARK 923 INTER-LIGAND FREE ENERGY PREDICTED BY IDOCK:   -1.71 KCAL/MOL
REMARK 924 INTRA-LIGAND FREE ENERGY PREDICTED BY IDOCK:    2.27 KCAL/MOL
REMARK 927      BINDING AFFINITY PREDICTED BY RF-SCORE:    0.00 PKD
ROOT
HETATM    1  O   UNL     1      -7.442  17.970  65.537  1.00  0.00    -0.538 OA 
HETATM    2  C   UNL     1      -6.935  17.434  66.755  1.00  0.00    -0.211 C  
HETATM    3  H   UNL     1      -6.779  18.462  65.066  1.00  0.00     0.000 HD 
HETATM    4  C   UNL     2      -5.151   9.018  66.550  1.00  0.00    -0.033 C  
HETATM    5  C   UNL     1      -8.020  16.628  67.527  1.00  0.00    -0.168 C  
HETATM    6  C   UNL     2      -6.550   9.572  66.772  1.00  0.00    -0.068 C  
HETATM    7  C   UNL     1      -8.582  15.516  66.599  1.00  0.00    -0.290 C  
HETATM    8  N   UNL     1      -7.324  16.003  68.695  1.00  0.00    -0.150 NA 
HETATM    9  C   UNL     1      -9.118  17.471  68.157  1.00  0.00    -0.277 C  
HETATM   10  H   UNL     1      -9.241  18.702  69.673  1.00  0.00     0.000 HD 
HETATM   11  H   UNL     1      -7.872  13.983  65.570  1.00  0.00     0.000 HD 
HETATM   12  H2  UNL     1      -6.827  16.675  69.279  1.00  0.00     0.000 HD 
HETATM   13  O   UNL     1      -7.529  14.663  66.137  1.00  0.00     1.464 OA 
HETATM   14  O   UNL     1      -8.556  18.175  69.278  1.00  0.00     0.054 OA 
HETATM   15  H1  UNL     1      -8.035  15.474  69.200  1.00  0.00     0.000 HD 
ENDROOT
BRANCH   6  16
HETATM   16  C   UNL     2      -6.602  10.731  67.769  1.00  0.00    -0.064 C  
BRANCH  16  17
HETATM   17  C   UNL     2      -8.001  11.295  68.037  1.00  0.00    -0.119 C  
BRANCH  17  18
HETATM   18  C   UNL     2      -9.056  10.951  66.960  1.00  0.00    -0.158 C  
HETATM   19  C   UNL     2     -10.215  10.002  67.342  1.00  0.00    -0.219 C  
HETATM   20  C   UNL     2     -11.309   9.867  66.273  1.00  0.00     1.273 C  
HETATM   21  O   UNL     2     -10.846  10.553  68.504  1.00  0.00    -0.203 OA 
HETATM   22  C   UNL     2      -9.679   8.643  67.692  1.00  0.00    -0.201 C  
HETATM   23  H   UNL     2     -11.557   9.970  68.739  1.00  0.00     0.000 HD 
HETATM   24  C   UNL     2      -9.192   7.714  66.851  1.00  0.00    -0.179 C  
BRANCH  24  25
HETATM   25  C   UNL     2      -8.635   6.369  67.261  1.00  0.00    -0.110 C  
HETATM   26  C   UNL     2      -7.219   6.032  66.739  1.00  0.00    -0.071 C  
HETATM   27  C   UNL     2      -6.865   4.809  67.548  1.00  0.00    -0.060 C  
HETATM   28  O   UNL     2      -6.216   6.996  67.044  1.00  0.00    -0.037 OA 
HETATM   29  H   UNL     2      -5.346   6.790  66.723  1.00  0.00     0.000 HD 
HETATM   30  C   UNL     2      -7.341   5.161  68.956  1.00  0.00    -0.061 C  
HETATM   31  C   UNL     2      -8.550   6.120  68.798  1.00  0.00    -0.120 C  
HETATM   32  O   UNL     2      -7.621   3.945  69.633  1.00  0.00    -0.052 OA 
HETATM   33  H   UNL     2      -7.918   4.164  70.508  1.00  0.00     0.000 HD 
BRANCH  31  34
HETATM   34  C   UNL     2      -9.877   5.614  69.407  1.00  0.00    -0.232 C  
BRANCH  34  35
HETATM   35  C   UNL     2     -11.110   6.251  68.808  1.00  0.00    -0.424 C  
HETATM   36  C   UNL     2     -11.786   7.330  69.233  1.00  0.00     0.497 C  
BRANCH  36  37
HETATM   37  C   UNL     2     -11.484   8.191  70.425  1.00  0.00    -0.126 C  
BRANCH  37  38
HETATM   38  C   UNL     2     -12.604   8.198  71.467  1.00  0.00    -0.326 C  
BRANCH  38  39
HETATM   39  C   UNL     2     -12.834   6.864  72.160  1.00  0.00    -0.093 C  
HETATM   40  C   UNL     2     -11.611   6.031  72.545  1.00  0.00    -0.267 C  
HETATM   41  O   UNL     2     -11.831   4.791  72.636  1.00  0.00     0.059 OA 
HETATM   42  O   UNL     2     -10.506   6.612  72.802  1.00  0.00    -0.198 OA 
ENDBRANCH  38  39
ENDBRANCH  37  38
ENDBRANCH  36  37
ENDBRANCH  34  35
ENDBRANCH  31  34
ENDBRANCH  24  25
ENDBRANCH  17  18
ENDBRANCH  16  17
ENDBRANCH   6  16
TORSDOF 9
ENDMDL
MODEL      317
REMARK 921   NORMALIZED FREE ENERGY PREDICTED BY IDOCK:    1.92 KCAL/MOL
REMARK 922        TOTAL FREE ENERGY PREDICTED BY IDOCK:    1.01 KCAL/MOL
REMARK 923 INTER-LIGAND FREE ENERGY PREDICTED BY IDOCK:    2.31 KCAL/MOL
REMARK 924 INTRA-LIGAND FREE ENERGY PREDICTED BY IDOCK:   -1.30 KCAL/MOL
REMARK 927      BINDING AFFINITY PREDICTED BY RF-SCORE:    0.00 PKD
ROOT
HETATM    1  O   UNL     1     -10.582  20.364  64.134  1.00  0.00     1.313 OA 
HETATM    2  C   UNL     1      -9.693  19.354  64.599  1.00  0.00     4.079 C  
HETATM    3  H   UNL     1     -10.269  20.767  63.332  1.00  0.00     0.000 HD 
HETATM    4  C   UNL     2     -12.277  11.284  63.099  1.00  0.00     0.549 C  
HETATM    5  C   UNL     1     -10.207  18.693  65.911  1.00  0.00    -0.253 C  
HETATM    6  C   UNL     2     -12.771  12.116  64.273  1.00  0.00    -0.366 C  
HETATM    7  C   UNL     1     -11.637  18.136  65.673  1.00  0.00     2.376 C  
HETATM    8  N   UNL     1      -9.270  17.563  66.203  1.00  0.00    -0.486 NA 
HETATM    9  C   UNL     1     -10.122  19.574  67.148  1.00  0.00    -0.400 C  
HETATM   10  H   UNL     1      -8.684  20.251  68.288  1.00  0.00     0.000 HD 
HETATM   11  H   UNL     1     -12.517  16.866  64.440  1.00  0.00     0.000 HD 
HETATM   12  H2  UNL     1      -8.292  17.847  66.249  1.00  0.00     0.000 HD 
HETATM   13  O   UNL     1     -11.644  17.206  64.585  1.00  0.00    -0.528 OA 
HETATM   14  O   UNL     1      -8.737  19.701  67.515  1.00  0.00    -0.295 OA 
HETATM   15  H1  UNL     1      -9.607  17.129  67.063  1.00  0.00     0.000 HD 
ENDROOT
BRANCH   6  16
HETATM   16  C   UNL     2     -11.658  12.869  65.004  1.00  0.00    -0.367 C  
BRANCH  16  17
HETATM   17  C   UNL     2     -12.135  13.993  65.929  1.00  0.00    -0.448 C  
BRANCH  17  18
HETATM   18  C   UNL     2     -12.501  13.543  67.362  1.00  0.00     0.075 C  
HETATM   19  C   UNL     2     -11.796  14.233  68.553  1.00  0.00    -0.347 C  
HETATM   20  C   UNL     2     -12.354  13.854  69.932  1.00  0.00    -0.358 C  
HETATM   21  O   UNL     2     -11.998  15.643  68.403  1.00  0.00    -0.481 OA 
HETATM   22  C   UNL     2     -10.319  13.956  68.512  1.00  0.00    -0.244 C  
HETATM   23  H   UNL     2     -11.564  16.066  69.134  1.00  0.00     0.000 HD 
HETATM   24  C   UNL     2      -9.694  12.804  68.806  1.00  0.00     0.058 C  
BRANCH  24  25
HETATM   25  C   UNL     2      -8.203  12.571  68.718  1.00  0.00     0.116 C  
HETATM   26  C   UNL     2      -7.314  13.836  68.756  1.00  0.00    -0.103 C  
HETATM   27  C   UNL     2      -5.936  13.251  68.948  1.00  0.00    -0.079 C  
HETATM   28  O   UNL     2      -7.525  14.691  69.875  1.00  0.00    -0.384 OA 
HETATM   29  H   UNL     2      -6.980  15.468  69.899  1.00  0.00     0.000 HD 
HETATM   30  C   UNL     2      -6.152  12.163  69.999  1.00  0.00    -0.138 C  
HETATM   31  C   UNL     2      -7.604  11.644  69.820  1.00  0.00     0.726 C  
HETATM   32  O   UNL     2      -5.138  11.186  69.822  1.00  0.00    -0.041 OA 
HETATM   33  H   UNL     2      -5.273  10.510  70.476  1.00  0.00     0.000 HD 
BRANCH  31  34
HETATM   34  C   UNL     2      -7.730  10.141  69.486  1.00  0.00    -0.155 C  
BRANCH  34  35
HETATM   35  C   UNL     2      -8.511   9.348  70.509  1.00  0.00    -0.251 C  
HETATM   36  C   UNL     2      -9.769   8.887  70.429  1.00  0.00    -0.226 C  
BRANCH  36  37
HETATM   37  C   UNL     2     -10.732   9.041  69.287  1.00  0.00    -0.189 C  
BRANCH  37  38
HETATM   38  C   UNL     2     -10.186   8.513  67.959  1.00  0.00    -0.264 C  
BRANCH  38  39
HETATM   39  C   UNL     2      -9.296   7.286  68.082  1.00  0.00    -0.131 C  
HETATM   40  C   UNL     2      -9.906   6.009  68.661  1.00  0.00    -0.138 C  
HETATM   41  O   UNL     2      -9.070   5.227  69.194  1.00  0.00    -0.104 OA 
HETATM   42  O   UNL     2     -11.152   5.784  68.523  1.00  0.00    -0.210 OA 
ENDBRANCH  38  39
ENDBRANCH  37  38
ENDBRANCH  36  37
ENDBRANCH  34  35
ENDBRANCH  31  34
ENDBRANCH  24  25
ENDBRANCH  17  18
ENDBRANCH  16  17
ENDBRANCH   6  16
TORSDOF 9
ENDMDL
MODEL      318
REMARK 921   NORMALIZED FREE ENERGY PREDICTED BY IDOCK:    2.16 KCAL/MOL
REMARK 922        TOTAL FREE ENERGY PREDICTED BY IDOCK:    1.37 KCAL/MOL
REMARK 923 INTER-LIGAND FREE ENERGY PREDICTED BY IDOCK:    2.63 KCAL/MOL
REMARK 924 INTRA-LIGAND FREE ENERGY PREDICTED BY IDOCK:   -1.26 KCAL/MOL
REMARK 927      BINDING AFFINITY PREDICTED BY RF-SCORE:    0.00 PKD
ROOT
HETATM    1  O   UNL     1     -10.582  20.365  64.134  1.00  0.00     1.313 OA 
HETATM    2  C   UNL     1      -9.695  19.349  64.593  1.00  0.00     4.079 C  
HETATM    3  H   UNL     1     -10.264  20.776  63.338  1.00  0.00     0.000 HD 
HETATM    4  C   UNL     2     -12.279  11.296  63.000  1.00  0.00     0.666 C  
HETATM    5  C   UNL     1     -10.215  18.675  65.896  1.00  0.00    -0.253 C  
HETATM    6  C   UNL     2     -12.777  12.117  64.180  1.00  0.00    -0.416 C  
HETATM    7  C   UNL     1     -11.645  18.122  65.646  1.00  0.00     2.376 C  
HETATM    8  N   UNL     1      -9.281  17.541  66.181  1.00  0.00    -0.486 NA 
HETATM    9  C   UNL     1     -10.135  19.544  67.142  1.00  0.00    -0.400 C  
HETATM   10  H   UNL     1      -8.702  20.208  68.295  1.00  0.00     0.000 HD 
HETATM   11  H   UNL     1     -12.521  16.865  64.396  1.00  0.00     0.000 HD 
HETATM   12  H2  UNL     1      -8.302  17.824  66.234  1.00  0.00     0.000 HD 
HETATM   13  O   UNL     1     -11.647  17.203  64.549  1.00  0.00    -0.713 OA 
HETATM   14  O   UNL     1      -8.752  19.666  67.517  1.00  0.00    -0.295 OA 
HETATM   15  H1  UNL     1      -9.622  17.099  67.035  1.00  0.00     0.000 HD 
ENDROOT
BRANCH   6  16
HETATM   16  C   UNL     2     -11.667  12.862  64.924  1.00  0.00    -0.388 C  
BRANCH  16  17
HETATM   17  C   UNL     2     -12.147  13.976  65.859  1.00  0.00    -0.448 C  
BRANCH  17  18
HETATM   18  C   UNL     2     -12.517  13.510  67.287  1.00  0.00     0.007 C  
HETATM   19  C   UNL     2     -11.814  14.186  68.487  1.00  0.00    -0.355 C  
HETATM   20  C   UNL     2     -12.376  13.793  69.861  1.00  0.00    -0.334 C  
HETATM   21  O   UNL     2     -12.015  15.598  68.352  1.00  0.00    -0.481 OA 
HETATM   22  C   UNL     2     -10.338  13.910  68.446  1.00  0.00    -0.249 C  
HETATM   23  H   UNL     2     -11.583  16.013  69.089  1.00  0.00     0.000 HD 
HETATM   24  C   UNL     2      -9.714  12.754  68.729  1.00  0.00     0.058 C  
BRANCH  24  25
HETATM   25  C   UNL     2      -8.222  12.522  68.642  1.00  0.00     0.001 C  
HETATM   26  C   UNL     2      -7.333  13.786  68.696  1.00  0.00    -0.117 C  
HETATM   27  C   UNL     2      -5.955  13.198  68.884  1.00  0.00    -0.079 C  
HETATM   28  O   UNL     2      -7.547  14.629  69.824  1.00  0.00    -0.376 OA 
HETATM   29  H   UNL     2      -7.001  15.405  69.858  1.00  0.00     0.000 HD 
HETATM   30  C   UNL     2      -6.174  12.099  69.922  1.00  0.00    -0.120 C  
HETATM   31  C   UNL     2      -7.625  11.582  69.734  1.00  0.00     0.621 C  
HETATM   32  O   UNL     2      -5.160  11.124  69.737  1.00  0.00    -0.041 OA 
HETATM   33  H   UNL     2      -5.296  10.440  70.383  1.00  0.00     0.000 HD 
BRANCH  31  34
HETATM   34  C   UNL     2      -7.751  10.083  69.383  1.00  0.00    -0.129 C  
BRANCH  34  35
HETATM   35  C   UNL     2      -8.535   9.279  70.396  1.00  0.00    -0.234 C  
HETATM   36  C   UNL     2      -8.601   7.946  70.536  1.00  0.00    -0.131 C  
BRANCH  36  37
HETATM   37  C   UNL     2      -7.903   6.900  69.714  1.00  0.00    -0.115 C  
BRANCH  37  38
HETATM   38  C   UNL     2      -6.483   6.600  70.195  1.00  0.00    -0.040 C  
BRANCH  38  39
HETATM   39  C   UNL     2      -6.294   6.676  71.703  1.00  0.00    -0.042 C  
HETATM   40  C   UNL     2      -7.095   5.711  72.579  1.00  0.00    -0.085 C  
HETATM   41  O   UNL     2      -7.295   6.120  73.757  1.00  0.00    -0.090 OA 
HETATM   42  O   UNL     2      -7.444   4.577  72.114  1.00  0.00    -0.075 OA 
ENDBRANCH  38  39
ENDBRANCH  37  38
ENDBRANCH  36  37
ENDBRANCH  34  35
ENDBRANCH  31  34
ENDBRANCH  24  25
ENDBRANCH  17  18
ENDBRANCH  16  17
ENDBRANCH   6  16
TORSDOF 9
ENDMDL
MODEL      319
REMARK 921   NORMALIZED FREE ENERGY PREDICTED BY IDOCK:    2.20 KCAL/MOL
REMARK 922        TOTAL FREE ENERGY PREDICTED BY IDOCK:    1.42 KCAL/MOL
REMARK 923 INTER-LIGAND FREE ENERGY PREDICTED BY IDOCK:   -5.35 KCAL/MOL
REMARK 924 INTRA-LIGAND FREE ENERGY PREDICTED BY IDOCK:    6.77 KCAL/MOL
REMARK 927      BINDING AFFINITY PREDICTED BY RF-SCORE:    0.00 PKD
ROOT
HETATM    1  O   UNL     1     -13.086  14.795  69.707  1.00  0.00    -0.479 OA 
HETATM    2  C   UNL     1     -12.530  14.964  68.407  1.00  0.00     0.318 C  
HETATM    3  H   UNL     1     -13.967  14.442  69.671  1.00  0.00     0.000 HD 
HETATM    4  C   UNL     2      -6.791   8.977  66.112  1.00  0.00    -0.081 C  
HETATM    5  C   UNL     1     -11.086  15.542  68.466  1.00  0.00    -0.307 C  
HETATM    6  C   UNL     2      -6.446  10.177  66.980  1.00  0.00    -0.069 C  
HETATM    7  C   UNL     1     -10.206  14.618  69.353  1.00  0.00    -0.085 C  
HETATM    8  N   UNL     1     -10.572  15.527  67.061  1.00  0.00    -0.306 NA 
HETATM    9  C   UNL     1     -10.998  17.003  68.878  1.00  0.00    -0.141 C  
HETATM   10  H   UNL     1     -11.435  18.720  68.050  1.00  0.00     0.000 HD 
HETATM   11  H   UNL     1      -9.672  12.714  69.389  1.00  0.00     0.000 HD 
HETATM   12  H2  UNL     1     -11.178  16.016  66.401  1.00  0.00     0.000 HD 
HETATM   13  O   UNL     1     -10.210  13.279  68.848  1.00  0.00    -0.153 OA 
HETATM   14  O   UNL     1     -11.491  17.807  67.793  1.00  0.00     0.281 OA 
HETATM   15  H1  UNL     1      -9.626  15.905  67.100  1.00  0.00     0.000 HD 
ENDROOT
BRANCH   6  16
HETATM   16  C   UNL     2      -7.028  11.495  66.466  1.00  0.00    -0.009 C  
BRANCH  16  17
HETATM   17  C   UNL     2      -6.825  12.699  67.391  1.00  0.00    -0.141 C  
BRANCH  17  18
HETATM   18  C   UNL     2      -6.552  12.342  68.871  1.00  0.00    -0.094 C  
HETATM   19  C   UNL     2      -6.243  10.869  69.228  1.00  0.00    -0.055 C  
HETATM   20  C   UNL     2      -5.804  10.643  70.682  1.00  0.00    -0.112 C  
HETATM   21  O   UNL     2      -5.148  10.456  68.402  1.00  0.00    -0.036 OA 
HETATM   22  C   UNL     2      -7.428  10.000  68.916  1.00  0.00    -0.083 C  
HETATM   23  H   UNL     2      -4.958   9.552  68.621  1.00  0.00     0.000 HD 
HETATM   24  C   UNL     2      -8.587   9.924  69.592  1.00  0.00    -0.207 C  
BRANCH  24  25
HETATM   25  C   UNL     2      -9.763   9.051  69.215  1.00  0.00    -0.168 C  
HETATM   26  C   UNL     2      -9.503   8.000  68.111  1.00  0.00    -0.143 C  
HETATM   27  C   UNL     2     -10.740   7.139  68.194  1.00  0.00    -0.214 C  
HETATM   28  O   UNL     2      -8.409   7.122  68.356  1.00  0.00    -0.123 OA 
HETATM   29  H   UNL     2      -8.249   6.476  67.678  1.00  0.00     0.000 HD 
HETATM   30  C   UNL     2     -10.953   6.962  69.696  1.00  0.00    -0.259 C  
HETATM   31  C   UNL     2     -10.393   8.235  70.385  1.00  0.00    -0.214 C  
HETATM   32  O   UNL     2     -12.335   6.720  69.910  1.00  0.00    -0.581 OA 
HETATM   33  H   UNL     2     -12.467   6.610  70.845  1.00  0.00     0.000 HD 
BRANCH  31  34
HETATM   34  C   UNL     2     -11.420   9.044  71.209  1.00  0.00    -0.390 C  
BRANCH  34  35
HETATM   35  C   UNL     2     -11.990   8.292  72.389  1.00  0.00    -0.447 C  
HETATM   36  C   UNL     2     -11.396   7.366  73.158  1.00  0.00    -0.209 C  
BRANCH  36  37
HETATM   37  C   UNL     2      -9.996   6.837  73.042  1.00  0.00    -0.199 C  
BRANCH  37  38
HETATM   38  C   UNL     2      -8.930   7.842  73.483  1.00  0.00    -0.343 C  
BRANCH  38  39
HETATM   39  C   UNL     2      -7.568   7.650  72.832  1.00  0.00    -0.117 C  
HETATM   40  C   UNL     2      -6.485   6.923  73.630  1.00  0.00    -0.067 C  
HETATM   41  O   UNL     2      -5.304   7.219  73.295  1.00  0.00    -0.041 OA 
HETATM   42  O   UNL     2      -6.817   6.055  74.502  1.00  0.00    -0.076 OA 
ENDBRANCH  38  39
ENDBRANCH  37  38
ENDBRANCH  36  37
ENDBRANCH  34  35
ENDBRANCH  31  34
ENDBRANCH  24  25
ENDBRANCH  17  18
ENDBRANCH  16  17
ENDBRANCH   6  16
TORSDOF 9
ENDMDL
MODEL      320
REMARK 921   NORMALIZED FREE ENERGY PREDICTED BY IDOCK:    2.29 KCAL/MOL
REMARK 922        TOTAL FREE ENERGY PREDICTED BY IDOCK:    1.56 KCAL/MOL
REMARK 923 INTER-LIGAND FREE ENERGY PREDICTED BY IDOCK:   -3.32 KCAL/MOL
REMARK 924 INTRA-LIGAND FREE ENERGY PREDICTED BY IDOCK:    4.89 KCAL/MOL
REMARK 927      BINDING AFFINITY PREDICTED BY RF-SCORE:    0.00 PKD
ROOT
HETATM    1  O   UNL     1     -11.267  16.419  69.729  1.00  0.00    -0.325 OA 
HETATM    2  C   UNL     1     -11.200  15.754  70.986  1.00  0.00    -0.350 C  
HETATM    3  H   UNL     1     -10.632  17.124  69.668  1.00  0.00     0.000 HD 
HETATM    4  C   UNL     2      -7.244   8.113  70.836  1.00  0.00    -0.055 C  
HETATM    5  C   UNL     1     -12.240  14.600  71.084  1.00  0.00    -0.340 C  
HETATM    6  C   UNL     2      -8.698   8.311  70.434  1.00  0.00    -0.139 C  
HETATM    7  C   UNL     1     -12.021  13.617  69.901  1.00  0.00    -0.348 C  
HETATM    8  N   UNL     1     -11.963  13.898  72.377  1.00  0.00     0.331 NA 
HETATM    9  C   UNL     1     -13.687  15.050  71.209  1.00  0.00    -0.450 C  
HETATM   10  H   UNL     1     -14.778  15.883  72.603  1.00  0.00     0.000 HD 
HETATM   11  H   UNL     1     -10.548  12.513  69.180  1.00  0.00     0.000 HD 
HETATM   12  H2  UNL     1     -11.969  14.519  73.186  1.00  0.00     0.000 HD 
HETATM   13  O   UNL     1     -10.682  13.113  69.903  1.00  0.00     0.405 OA 
HETATM   14  O   UNL     1     -13.874  15.602  72.524  1.00  0.00    -0.534 OA 
HETATM   15  H1  UNL     1     -12.644  13.141  72.441  1.00  0.00     0.000 HD 
ENDROOT
BRANCH   6  16
HETATM   16  C   UNL     2      -9.487   9.199  71.398  1.00  0.00    -0.279 C  
BRANCH  16  17
HETATM   17  C   UNL     2     -10.994   9.263  71.134  1.00  0.00    -0.409 C  
BRANCH  17  18
HETATM   18  C   UNL     2     -11.800   8.059  71.675  1.00  0.00    -0.329 C  
HETATM   19  C   UNL     2     -11.091   6.690  71.790  1.00  0.00    -0.249 C  
HETATM   20  C   UNL     2     -11.908   5.606  72.507  1.00  0.00    -0.194 C  
HETATM   21  O   UNL     2      -9.908   6.893  72.571  1.00  0.00    -0.157 OA 
HETATM   22  C   UNL     2     -10.685   6.201  70.429  1.00  0.00    -0.347 C  
HETATM   23  H   UNL     2      -9.472   6.053  72.642  1.00  0.00     0.000 HD 
HETATM   24  C   UNL     2     -11.481   5.710  69.465  1.00  0.00     0.680 C  
BRANCH  24  25
HETATM   25  C   UNL     2     -11.022   5.258  68.097  1.00  0.00     0.424 C  
HETATM   26  C   UNL     2     -11.487   6.123  66.903  1.00  0.00     0.415 C  
HETATM   27  C   UNL     2     -10.639   5.591  65.774  1.00  0.00     0.222 C  
HETATM   28  O   UNL     2     -11.171   7.508  66.999  1.00  0.00    -0.449 OA 
HETATM   29  H   UNL     2     -11.456   8.040  66.266  1.00  0.00     0.000 HD 
HETATM   30  C   UNL     2      -9.256   5.441  66.406  1.00  0.00    -0.147 C  
HETATM   31  C   UNL     2      -9.477   5.144  67.913  1.00  0.00    -0.155 C  
HETATM   32  O   UNL     2      -8.561   4.432  65.690  1.00  0.00    -0.116 OA 
HETATM   33  H   UNL     2      -7.701   4.339  66.083  1.00  0.00     0.000 HD 
BRANCH  31  34
HETATM   34  C   UNL     2      -8.902   3.799  68.412  1.00  0.00    -0.150 C  
BRANCH  34  35
HETATM   35  C   UNL     2      -8.260   3.874  69.778  1.00  0.00    -0.067 C  
HETATM   36  C   UNL     2      -6.957   3.955  70.088  1.00  0.00    -0.041 C  
BRANCH  36  37
HETATM   37  C   UNL     2      -5.790   3.994  69.144  1.00  0.00    -0.022 C  
BRANCH  37  38
HETATM   38  C   UNL     2      -6.197   3.892  67.672  1.00  0.00    -0.036 C  
BRANCH  38  39
HETATM   39  C   UNL     2      -5.300   4.657  66.711  1.00  0.00    -0.013 C  
HETATM   40  C   UNL     2      -5.937   5.270  65.463  1.00  0.00    -0.025 C  
HETATM   41  O   UNL     2      -5.140   5.435  64.498  1.00  0.00    -0.009 OA 
HETATM   42  O   UNL     2      -7.162   5.621  65.487  1.00  0.00    -0.065 OA 
ENDBRANCH  38  39
ENDBRANCH  37  38
ENDBRANCH  36  37
ENDBRANCH  34  35
ENDBRANCH  31  34
ENDBRANCH  24  25
ENDBRANCH  17  18
ENDBRANCH  16  17
ENDBRANCH   6  16
TORSDOF 9
ENDMDL
MODEL      321
REMARK 921   NORMALIZED FREE ENERGY PREDICTED BY IDOCK:    2.61 KCAL/MOL
REMARK 922        TOTAL FREE ENERGY PREDICTED BY IDOCK:    2.06 KCAL/MOL
REMARK 923 INTER-LIGAND FREE ENERGY PREDICTED BY IDOCK:   -1.58 KCAL/MOL
REMARK 924 INTRA-LIGAND FREE ENERGY PREDICTED BY IDOCK:    3.64 KCAL/MOL
REMARK 927      BINDING AFFINITY PREDICTED BY RF-SCORE:    0.00 PKD
ROOT
HETATM    1  O   UNL     1      -6.905  16.213  66.234  1.00  0.00     0.029 OA 
HETATM    2  C   UNL     1      -6.463  15.586  67.434  1.00  0.00    -0.109 C  
HETATM    3  H   UNL     1      -6.204  16.692  65.808  1.00  0.00     0.000 HD 
HETATM    4  C   UNL     2      -5.126   7.108  66.812  1.00  0.00    -0.021 C  
HETATM    5  C   UNL     1      -7.612  14.800  68.131  1.00  0.00    -0.119 C  
HETATM    6  C   UNL     2      -6.500   7.725  67.028  1.00  0.00    -0.055 C  
HETATM    7  C   UNL     1      -8.205  13.772  67.129  1.00  0.00    -0.108 C  
HETATM    8  N   UNL     1      -6.984  14.076  69.281  1.00  0.00    -0.189 NA 
HETATM    9  C   UNL     1      -8.680  15.668  68.778  1.00  0.00    -0.197 C  
HETATM   10  H   UNL     1      -8.782  16.821  70.355  1.00  0.00     0.000 HD 
HETATM   11  H   UNL     1      -7.549  12.260  66.037  1.00  0.00     0.000 HD 
HETATM   12  H2  UNL     1      -6.469  14.688  69.914  1.00  0.00     0.000 HD 
HETATM   13  O   UNL     1      -7.187  12.888  66.649  1.00  0.00     0.359 OA 
HETATM   14  O   UNL     1      -8.114  16.279  69.950  1.00  0.00     0.333 OA 
HETATM   15  H1  UNL     1      -7.737  13.561  69.738  1.00  0.00     0.000 HD 
ENDROOT
BRANCH   6  16
HETATM   16  C   UNL     2      -6.518   8.830  68.086  1.00  0.00    -0.060 C  
BRANCH  16  17
HETATM   17  C   UNL     2      -7.897   9.434  68.369  1.00  0.00    -0.090 C  
BRANCH  17  18
HETATM   18  C   UNL     2      -9.018   8.971  67.409  1.00  0.00    -0.135 C  
HETATM   19  C   UNL     2     -10.065   7.962  67.933  1.00  0.00    -0.191 C  
HETATM   20  C   UNL     2     -11.239   7.705  66.977  1.00  0.00     0.510 C  
HETATM   21  O   UNL     2     -10.626   8.518  69.128  1.00  0.00    -0.255 OA 
HETATM   22  C   UNL     2      -9.401   6.659  68.281  1.00  0.00    -0.119 C  
HETATM   23  H   UNL     2     -11.268   7.898  69.450  1.00  0.00     0.000 HD 
HETATM   24  C   UNL     2      -8.927   5.731  67.433  1.00  0.00    -0.108 C  
BRANCH  24  25
HETATM   25  C   UNL     2      -8.238   4.447  67.839  1.00  0.00    -0.095 C  
HETATM   26  C   UNL     2      -6.895   4.145  67.135  1.00  0.00    -0.051 C  
HETATM   27  C   UNL     2      -6.356   3.000  67.957  1.00  0.00    -0.032 C  
HETATM   28  O   UNL     2      -5.916   5.176  67.228  1.00  0.00    -0.024 OA 
HETATM   29  H   UNL     2      -5.091   4.991  66.796  1.00  0.00     0.000 HD 
HETATM   30  C   UNL     2      -6.643   3.425  69.396  1.00  0.00    -0.034 C  
HETATM   31  C   UNL     2      -7.918   4.310  69.359  1.00  0.00    -0.060 C  
HETATM   32  O   UNL     2      -6.751   2.248  70.180  1.00  0.00    -0.032 OA 
HETATM   33  H   UNL     2      -6.930   2.512  71.075  1.00  0.00     0.000 HD 
BRANCH  31  34
HETATM   34  C   UNL     2      -9.111   3.784  70.188  1.00  0.00    -0.195 C  
BRANCH  34  35
HETATM   35  C   UNL     2     -10.457   4.271  69.704  1.00  0.00     0.780 C  
HETATM   36  C   UNL     2     -11.127   5.376  70.064  1.00  0.00     0.167 C  
BRANCH  36  37
HETATM   37  C   UNL     2     -10.702   6.426  71.052  1.00  0.00    -0.301 C  
BRANCH  37  38
HETATM   38  C   UNL     2     -11.677   6.589  72.219  1.00  0.00    -0.320 C  
BRANCH  38  39
HETATM   39  C   UNL     2     -11.762   5.386  73.147  1.00  0.00    -0.107 C  
HETATM   40  C   UNL     2     -10.613   5.149  74.127  1.00  0.00    -0.276 C  
HETATM   41  O   UNL     2     -10.475   3.946  74.488  1.00  0.00    -0.206 OA 
HETATM   42  O   UNL     2      -9.931   6.137  74.553  1.00  0.00    -0.266 OA 
ENDBRANCH  38  39
ENDBRANCH  37  38
ENDBRANCH  36  37
ENDBRANCH  34  35
ENDBRANCH  31  34
ENDBRANCH  24  25
ENDBRANCH  17  18
ENDBRANCH  16  17
ENDBRANCH   6  16
TORSDOF 9
ENDMDL
MODEL      322
REMARK 921   NORMALIZED FREE ENERGY PREDICTED BY IDOCK:    2.77 KCAL/MOL
REMARK 922        TOTAL FREE ENERGY PREDICTED BY IDOCK:    2.31 KCAL/MOL
REMARK 923 INTER-LIGAND FREE ENERGY PREDICTED BY IDOCK:    0.16 KCAL/MOL
REMARK 924 INTRA-LIGAND FREE ENERGY PREDICTED BY IDOCK:    2.15 KCAL/MOL
REMARK 927      BINDING AFFINITY PREDICTED BY RF-SCORE:    0.00 PKD
ROOT
HETATM    1  O   UNL     1      -5.945  12.648  71.982  1.00  0.00     0.064 OA 
HETATM    2  C   UNL     1      -5.193  11.477  71.681  1.00  0.00     0.086 C  
HETATM    3  H   UNL     1      -5.423  13.436  71.884  1.00  0.00     0.000 HD 
HETATM    4  C   UNL     2      -6.848   7.986  63.991  1.00  0.00    -0.066 C  
HETATM    5  C   UNL     1      -6.048  10.186  71.841  1.00  0.00     0.569 C  
HETATM    6  C   UNL     2      -7.708   7.745  65.222  1.00  0.00    -0.102 C  
HETATM    7  C   UNL     1      -7.315  10.302  70.948  1.00  0.00     0.894 C  
HETATM    8  N   UNL     1      -5.194   9.057  71.355  1.00  0.00    -0.036 NA 
HETATM    9  C   UNL     1      -6.378   9.810  73.277  1.00  0.00     1.081 C  
HETATM   10  H   UNL     1      -5.381   9.098  74.802  1.00  0.00     0.000 HD 
HETATM   11  H   UNL     1      -7.726  10.591  69.036  1.00  0.00     0.000 HD 
HETATM   12  H2  UNL     1      -4.288   9.003  71.820  1.00  0.00     0.000 HD 
HETATM   13  O   UNL     1      -6.952  10.521  69.581  1.00  0.00    -0.102 OA 
HETATM   14  O   UNL     1      -5.175   9.333  73.904  1.00  0.00    -0.110 OA 
HETATM   15  H1  UNL     1      -5.754   8.211  71.459  1.00  0.00     0.000 HD 
ENDROOT
BRANCH   6  16
HETATM   16  C   UNL     2      -6.901   7.452  66.488  1.00  0.00    -0.062 C  
BRANCH  16  17
HETATM   17  C   UNL     2      -7.236   6.126  67.178  1.00  0.00    -0.075 C  
BRANCH  17  18
HETATM   18  C   UNL     2      -8.559   6.127  67.979  1.00  0.00    -0.115 C  
HETATM   19  C   UNL     2      -9.833   6.672  67.295  1.00  0.00    -0.146 C  
HETATM   20  C   UNL     2     -11.127   6.462  68.095  1.00  0.00    -0.358 C  
HETATM   21  O   UNL     2      -9.992   5.955  66.066  1.00  0.00    -0.372 OA 
HETATM   22  C   UNL     2      -9.667   8.131  66.977  1.00  0.00    -0.275 C  
HETATM   23  H   UNL     2     -10.774   6.290  65.645  1.00  0.00     0.000 HD 
HETATM   24  C   UNL     2      -9.683   9.163  67.837  1.00  0.00    -0.182 C  
BRANCH  24  25
HETATM   25  C   UNL     2      -9.480  10.615  67.465  1.00  0.00    -0.169 C  
HETATM   26  C   UNL     2      -8.044  11.164  67.628  1.00  0.00    -0.117 C  
HETATM   27  C   UNL     2      -8.127  12.491  66.914  1.00  0.00    -0.039 C  
HETATM   28  O   UNL     2      -7.032  10.426  66.949  1.00  0.00    -0.086 OA 
HETATM   29  H   UNL     2      -6.150  10.763  67.049  1.00  0.00     0.000 HD 
HETATM   30  C   UNL     2      -8.923  12.167  65.651  1.00  0.00     0.241 C  
HETATM   31  C   UNL     2      -9.875  10.994  66.005  1.00  0.00    -0.273 C  
HETATM   32  O   UNL     2      -9.568  13.360  65.231  1.00  0.00    -0.511 OA 
HETATM   33  H   UNL     2     -10.064  13.158  64.446  1.00  0.00     0.000 HD 
BRANCH  31  34
HETATM   34  C   UNL     2     -11.382  11.294  65.840  1.00  0.00     0.008 C  
BRANCH  34  35
HETATM   35  C   UNL     2     -11.924  12.286  66.843  1.00  0.00    -0.214 C  
HETATM   36  C   UNL     2     -12.453  13.499  66.619  1.00  0.00    -0.263 C  
BRANCH  36  37
HETATM   37  C   UNL     2     -12.645  14.187  65.298  1.00  0.00    -0.460 C  
BRANCH  37  38
HETATM   38  C   UNL     2     -12.572  15.712  65.393  1.00  0.00     1.267 C  
BRANCH  38  39
HETATM   39  C   UNL     2     -11.768  16.236  66.573  1.00  0.00     1.038 C  
HETATM   40  C   UNL     2     -10.242  16.150  66.501  1.00  0.00    -0.297 C  
HETATM   41  O   UNL     2      -9.668  16.114  67.626  1.00  0.00    -0.229 OA 
HETATM   42  O   UNL     2      -9.660  16.183  65.368  1.00  0.00    -0.428 OA 
ENDBRANCH  38  39
ENDBRANCH  37  38
ENDBRANCH  36  37
ENDBRANCH  34  35
ENDBRANCH  31  34
ENDBRANCH  24  25
ENDBRANCH  17  18
ENDBRANCH  16  17
ENDBRANCH   6  16
TORSDOF 9
ENDMDL
MODEL      323
REMARK 921   NORMALIZED FREE ENERGY PREDICTED BY IDOCK:    2.93 KCAL/MOL
REMARK 922        TOTAL FREE ENERGY PREDICTED BY IDOCK:    2.54 KCAL/MOL
REMARK 923 INTER-LIGAND FREE ENERGY PREDICTED BY IDOCK:   -3.84 KCAL/MOL
REMARK 924 INTRA-LIGAND FREE ENERGY PREDICTED BY IDOCK:    6.39 KCAL/MOL
REMARK 927      BINDING AFFINITY PREDICTED BY RF-SCORE:    0.00 PKD
ROOT
HETATM    1  O   UNL     1     -11.264  16.426  69.722  1.00  0.00    -0.325 OA 
HETATM    2  C   UNL     1     -11.177  15.717  70.954  1.00  0.00    -0.369 C  
HETATM    3  H   UNL     1     -10.701  17.192  69.716  1.00  0.00     0.000 HD 
HETATM    4  C   UNL     2      -6.469   8.519  70.664  1.00  0.00    -0.038 C  
HETATM    5  C   UNL     1     -12.098  14.462  70.964  1.00  0.00    -0.349 C  
HETATM    6  C   UNL     2      -7.920   8.589  70.211  1.00  0.00    -0.103 C  
HETATM    7  C   UNL     1     -11.738  13.559  69.753  1.00  0.00    -0.295 C  
HETATM    8  N   UNL     1     -11.799  13.736  72.238  1.00  0.00     0.558 NA 
HETATM    9  C   UNL     1     -13.587  14.761  71.048  1.00  0.00    -0.310 C  
HETATM   10  H   UNL     1     -14.807  15.421  72.427  1.00  0.00     0.000 HD 
HETATM   11  H   UNL     1     -10.136  12.638  69.049  1.00  0.00     0.000 HD 
HETATM   12  H2  UNL     1     -11.898  14.317  73.070  1.00  0.00     0.000 HD 
HETATM   13  O   UNL     1     -10.356  13.190  69.789  1.00  0.00     0.652 OA 
HETATM   14  O   UNL     1     -13.876  15.234  72.374  1.00  0.00    -0.460 OA 
HETATM   15  H1  UNL     1     -12.403  12.913  72.245  1.00  0.00     0.000 HD 
ENDROOT
BRANCH   6  16
HETATM   16  C   UNL     2      -8.829   9.352  71.176  1.00  0.00     0.014 C  
BRANCH  16  17
HETATM   17  C   UNL     2     -10.322   9.302  70.837  1.00  0.00    -0.367 C  
BRANCH  17  18
HETATM   18  C   UNL     2     -11.036   7.990  71.237  1.00  0.00    -0.269 C  
HETATM   19  C   UNL     2     -10.196   6.695  71.335  1.00  0.00    -0.199 C  
HETATM   20  C   UNL     2     -10.948   5.489  71.916  1.00  0.00    -0.264 C  
HETATM   21  O   UNL     2      -9.107   6.965  72.224  1.00  0.00    -0.135 OA 
HETATM   22  C   UNL     2      -9.633   6.340  69.988  1.00  0.00    -0.176 C  
HETATM   23  H   UNL     2      -8.591   6.170  72.284  1.00  0.00     0.000 HD 
HETATM   24  C   UNL     2     -10.294   5.835  68.932  1.00  0.00    -0.295 C  
BRANCH  24  25
HETATM   25  C   UNL     2      -9.682   5.523  67.585  1.00  0.00    -0.145 C  
HETATM   26  C   UNL     2     -10.134   6.419  66.409  1.00  0.00    -0.014 C  
HETATM   27  C   UNL     2      -9.148   6.048  65.329  1.00  0.00     0.153 C  
HETATM   28  O   UNL     2      -9.967   7.818  66.615  1.00  0.00    -0.268 OA 
HETATM   29  H   UNL     2     -10.245   8.369  65.892  1.00  0.00     0.000 HD 
HETATM   30  C   UNL     2      -7.812   5.988  66.069  1.00  0.00    -0.105 C  
HETATM   31  C   UNL     2      -8.124   5.569  67.530  1.00  0.00    -0.101 C  
HETATM   32  O   UNL     2      -6.964   5.100  65.357  1.00  0.00    -0.059 OA 
HETATM   33  H   UNL     2      -6.134   5.063  65.818  1.00  0.00     0.000 HD 
BRANCH  31  34
HETATM   34  C   UNL     2      -7.459   4.254  67.996  1.00  0.00    -0.068 C  
BRANCH  34  35
HETATM   35  C   UNL     2      -5.949   4.277  67.940  1.00  0.00    -0.027 C  
HETATM   36  C   UNL     2      -5.135   3.688  67.050  1.00  0.00    -0.008 C  
BRANCH  36  37
HETATM   37  C   UNL     2      -5.523   2.847  65.868  1.00  0.00    -0.017 C  
BRANCH  37  38
HETATM   38  C   UNL     2      -7.032   2.624  65.751  1.00  0.00    -0.048 C  
BRANCH  38  39
HETATM   39  C   UNL     2      -7.541   2.462  64.327  1.00  0.00    -0.067 C  
HETATM   40  C   UNL     2      -8.951   2.960  64.004  1.00  0.00    -0.103 C  
HETATM   41  O   UNL     2      -9.496   2.383  63.023  1.00  0.00    -0.091 OA 
HETATM   42  O   UNL     2      -9.446   3.927  64.670  1.00  0.00    -0.146 OA 
ENDBRANCH  38  39
ENDBRANCH  37  38
ENDBRANCH  36  37
ENDBRANCH  34  35
ENDBRANCH  31  34
ENDBRANCH  24  25
ENDBRANCH  17  18
ENDBRANCH  16  17
ENDBRANCH   6  16
TORSDOF 9
ENDMDL
MODEL      324
REMARK 921   NORMALIZED FREE ENERGY PREDICTED BY IDOCK:    3.09 KCAL/MOL
REMARK 922        TOTAL FREE ENERGY PREDICTED BY IDOCK:    2.79 KCAL/MOL
REMARK 923 INTER-LIGAND FREE ENERGY PREDICTED BY IDOCK:    3.78 KCAL/MOL
REMARK 924 INTRA-LIGAND FREE ENERGY PREDICTED BY IDOCK:   -0.98 KCAL/MOL
REMARK 927      BINDING AFFINITY PREDICTED BY RF-SCORE:    0.00 PKD
ROOT
HETATM    1  O   UNL     1      -9.405  20.116  71.119  1.00  0.00     0.949 OA 
HETATM    2  C   UNL     1     -10.291  19.190  70.498  1.00  0.00     1.700 C  
HETATM    3  H   UNL     1      -9.642  20.275  72.025  1.00  0.00     0.000 HD 
HETATM    4  C   UNL     2      -7.147  11.234  69.564  1.00  0.00    -0.058 C  
HETATM    5  C   UNL     1      -9.903  18.928  69.013  1.00  0.00    -0.323 C  
HETATM    6  C   UNL     2      -6.837  12.374  68.606  1.00  0.00    -0.087 C  
HETATM    7  C   UNL     1      -8.428  18.443  68.952  1.00  0.00    -0.147 C  
HETATM    8  N   UNL     1     -10.810  17.839  68.531  1.00  0.00    -0.268 NA 
HETATM    9  C   UNL     1     -10.178  20.085  68.065  1.00  0.00    -0.398 C  
HETATM   10  H   UNL     1     -11.772  20.915  67.293  1.00  0.00     0.000 HD 
HETATM   11  H   UNL     1      -7.347  16.974  69.714  1.00  0.00     0.000 HD 
HETATM   12  H2  UNL     1     -11.800  18.047  68.661  1.00  0.00     0.000 HD 
HETATM   13  O   UNL     1      -8.248  17.271  69.752  1.00  0.00     0.669 OA 
HETATM   14  O   UNL     1     -11.600  20.191  67.886  1.00  0.00     0.869 OA 
HETATM   15  H1  UNL     1     -10.556  17.667  67.558  1.00  0.00     0.000 HD 
ENDROOT
BRANCH   6  16
HETATM   16  C   UNL     2      -8.065  13.198  68.213  1.00  0.00    -0.152 C  
BRANCH  16  17
HETATM   17  C   UNL     2      -9.413  12.561  68.562  1.00  0.00    -0.100 C  
BRANCH  17  18
HETATM   18  C   UNL     2     -10.400  12.440  67.377  1.00  0.00    -0.217 C  
HETATM   19  C   UNL     2     -11.482  11.338  67.430  1.00  0.00    -0.221 C  
HETATM   20  C   UNL     2     -12.526  11.412  66.307  1.00  0.00     2.729 C  
HETATM   21  O   UNL     2     -12.195  11.506  68.661  1.00  0.00    -0.492 OA 
HETATM   22  C   UNL     2     -10.840   9.980  67.434  1.00  0.00    -0.313 C  
HETATM   23  H   UNL     2     -12.859  10.828  68.694  1.00  0.00     0.000 HD 
HETATM   24  C   UNL     2     -10.247   9.352  66.404  1.00  0.00    -0.300 C  
BRANCH  24  25
HETATM   25  C   UNL     2      -9.587   7.993  66.471  1.00  0.00    -0.295 C  
HETATM   26  C   UNL     2     -10.530   6.790  66.706  1.00  0.00    -0.228 C  
HETATM   27  C   UNL     2      -9.624   5.616  66.427  1.00  0.00    -0.175 C  
HETATM   28  O   UNL     2     -11.605   6.673  65.779  1.00  0.00     1.830 OA 
HETATM   29  H   UNL     2     -12.184   5.934  65.923  1.00  0.00     0.000 HD 
HETATM   30  C   UNL     2      -8.861   6.043  65.174  1.00  0.00     0.058 C  
HETATM   31  C   UNL     2      -8.753   7.591  65.217  1.00  0.00     0.043 C  
HETATM   32  O   UNL     2      -7.621   5.354  65.169  1.00  0.00    -0.075 OA 
HETATM   33  H   UNL     2      -7.146   5.620  64.390  1.00  0.00     0.000 HD 
BRANCH  31  34
HETATM   34  C   UNL     2      -7.313   8.151  65.238  1.00  0.00    -0.073 C  
BRANCH  34  35
HETATM   35  C   UNL     2      -6.373   7.396  66.151  1.00  0.00    -0.042 C  
HETATM   36  C   UNL     2      -6.351   7.369  67.492  1.00  0.00    -0.052 C  
BRANCH  36  37
HETATM   37  C   UNL     2      -7.266   8.090  68.440  1.00  0.00    -0.089 C  
BRANCH  37  38
HETATM   38  C   UNL     2      -8.037   7.151  69.369  1.00  0.00    -0.130 C  
BRANCH  38  39
HETATM   39  C   UNL     2      -9.230   7.787  70.067  1.00  0.00    -0.153 C  
HETATM   40  C   UNL     2     -10.420   6.893  70.419  1.00  0.00    -0.206 C  
HETATM   41  O   UNL     2     -11.521   7.504  70.515  1.00  0.00    -0.280 OA 
HETATM   42  O   UNL     2     -10.233   5.653  70.648  1.00  0.00    -0.200 OA 
ENDBRANCH  38  39
ENDBRANCH  37  38
ENDBRANCH  36  37
ENDBRANCH  34  35
ENDBRANCH  31  34
ENDBRANCH  24  25
ENDBRANCH  17  18
ENDBRANCH  16  17
ENDBRANCH   6  16
TORSDOF 9
ENDMDL
MODEL      325
REMARK 921   NORMALIZED FREE ENERGY PREDICTED BY IDOCK:    3.11 KCAL/MOL
REMARK 922        TOTAL FREE ENERGY PREDICTED BY IDOCK:    2.82 KCAL/MOL
REMARK 923 INTER-LIGAND FREE ENERGY PREDICTED BY IDOCK:    1.97 KCAL/MOL
REMARK 924 INTRA-LIGAND FREE ENERGY PREDICTED BY IDOCK:    0.85 KCAL/MOL
REMARK 927      BINDING AFFINITY PREDICTED BY RF-SCORE:    0.00 PKD
ROOT
HETATM    1  O   UNL     1      -6.904  16.213  66.233  1.00  0.00     0.029 OA 
HETATM    2  C   UNL     1      -6.451  15.600  67.437  1.00  0.00    -0.138 C  
HETATM    3  H   UNL     1      -6.206  16.684  65.794  1.00  0.00     0.000 HD 
HETATM    4  C   UNL     2      -5.143   7.111  66.912  1.00  0.00    -0.017 C  
HETATM    5  C   UNL     1      -7.595  14.827  68.156  1.00  0.00    -0.119 C  
HETATM    6  C   UNL     2      -6.513   7.735  67.134  1.00  0.00    -0.055 C  
HETATM    7  C   UNL     1      -8.201  13.787  67.174  1.00  0.00    -0.108 C  
HETATM    8  N   UNL     1      -6.957  14.116  69.309  1.00  0.00    -0.160 NA 
HETATM    9  C   UNL     1      -8.654  15.706  68.803  1.00  0.00    -0.193 C  
HETATM   10  H   UNL     1      -8.736  16.879  70.366  1.00  0.00     0.000 HD 
HETATM   11  H   UNL     1      -7.560  12.259  66.095  1.00  0.00     0.000 HD 
HETATM   12  H2  UNL     1      -6.433  14.735  69.928  1.00  0.00     0.000 HD 
HETATM   13  O   UNL     1      -7.190  12.895  66.695  1.00  0.00     0.359 OA 
HETATM   14  O   UNL     1      -8.074  16.330  69.961  1.00  0.00     0.569 OA 
HETATM   15  H1  UNL     1      -7.706  13.609  69.780  1.00  0.00     0.000 HD 
ENDROOT
BRANCH   6  16
HETATM   16  C   UNL     2      -6.517   8.853  68.178  1.00  0.00    -0.060 C  
BRANCH  16  17
HETATM   17  C   UNL     2      -7.890   9.467  68.464  1.00  0.00    -0.085 C  
BRANCH  17  18
HETATM   18  C   UNL     2      -8.973   9.162  67.403  1.00  0.00    -0.128 C  
HETATM   19  C   UNL     2     -10.373   9.794  67.577  1.00  0.00    -0.237 C  
HETATM   20  C   UNL     2     -11.320   9.587  66.386  1.00  0.00     1.618 C  
HETATM   21  O   UNL     2     -10.185  11.207  67.709  1.00  0.00    -0.174 OA 
HETATM   22  C   UNL     2     -11.021   9.281  68.832  1.00  0.00    -0.050 C  
HETATM   23  H   UNL     2     -11.045  11.595  67.816  1.00  0.00     0.000 HD 
HETATM   24  C   UNL     2     -11.542   8.061  69.044  1.00  0.00     1.021 C  
BRANCH  24  25
HETATM   25  C   UNL     2     -12.157   7.586  70.342  1.00  0.00     0.075 C  
HETATM   26  C   UNL     2     -11.656   6.223  70.872  1.00  0.00    -0.272 C  
HETATM   27  C   UNL     2     -12.223   6.198  72.271  1.00  0.00    -0.175 C  
HETATM   28  O   UNL     2     -10.244   6.116  71.030  1.00  0.00    -0.187 OA 
HETATM   29  H   UNL     2      -9.936   5.278  71.356  1.00  0.00     0.000 HD 
HETATM   30  C   UNL     2     -11.967   7.613  72.786  1.00  0.00    -0.076 C  
HETATM   31  C   UNL     2     -11.997   8.555  71.553  1.00  0.00    -0.354 C  
HETATM   32  O   UNL     2     -12.941   7.893  73.780  1.00  0.00     1.714 OA 
HETATM   33  H   UNL     2     -12.782   8.773  74.100  1.00  0.00     0.000 HD 
BRANCH  31  34
HETATM   34  C   UNL     2     -13.075   9.662  71.594  1.00  0.00    -0.503 C  
BRANCH  34  35
HETATM   35  C   UNL     2     -13.493  10.163  70.230  1.00  0.00     0.413 C  
HETATM   36  C   UNL     2     -12.969  11.167  69.511  1.00  0.00     0.694 C  
BRANCH  36  37
HETATM   37  C   UNL     2     -11.818  12.058  69.880  1.00  0.00    -0.405 C  
BRANCH  37  38
HETATM   38  C   UNL     2     -12.192  13.541  69.934  1.00  0.00    -0.356 C  
BRANCH  38  39
HETATM   39  C   UNL     2     -13.166  13.910  71.042  1.00  0.00    -0.260 C  
HETATM   40  C   UNL     2     -13.434  15.393  71.302  1.00  0.00    -0.519 C  
HETATM   41  O   UNL     2     -13.813  15.656  72.477  1.00  0.00    -0.534 OA 
HETATM   42  O   UNL     2     -13.328  16.231  70.348  1.00  0.00     0.642 OA 
ENDBRANCH  38  39
ENDBRANCH  37  38
ENDBRANCH  36  37
ENDBRANCH  34  35
ENDBRANCH  31  34
ENDBRANCH  24  25
ENDBRANCH  17  18
ENDBRANCH  16  17
ENDBRANCH   6  16
TORSDOF 9
ENDMDL
MODEL      326
REMARK 921   NORMALIZED FREE ENERGY PREDICTED BY IDOCK:    3.15 KCAL/MOL
REMARK 922        TOTAL FREE ENERGY PREDICTED BY IDOCK:    2.88 KCAL/MOL
REMARK 923 INTER-LIGAND FREE ENERGY PREDICTED BY IDOCK:   -5.00 KCAL/MOL
REMARK 924 INTRA-LIGAND FREE ENERGY PREDICTED BY IDOCK:    7.88 KCAL/MOL
REMARK 927      BINDING AFFINITY PREDICTED BY RF-SCORE:    0.00 PKD
ROOT
HETATM    1  O   UNL     1      -6.312   9.791  68.717  1.00  0.00    -0.046 OA 
HETATM    2  C   UNL     1      -6.606   9.748  67.324  1.00  0.00    -0.070 C  
HETATM    3  H   UNL     1      -5.424  10.084  68.880  1.00  0.00     0.000 HD 
HETATM    4  C   UNL     2     -11.442  16.255  64.439  1.00  0.00    -0.114 C  
HETATM    5  C   UNL     1      -8.062   9.268  67.056  1.00  0.00    -0.112 C  
HETATM    6  C   UNL     2     -12.017  15.026  65.125  1.00  0.00    -0.135 C  
HETATM    7  C   UNL     1      -9.050  10.189  67.824  1.00  0.00    -0.130 C  
HETATM    8  N   UNL     1      -8.285   9.412  65.583  1.00  0.00    -0.117 NA 
HETATM    9  C   UNL     1      -8.310   7.792  67.325  1.00  0.00    -0.118 C  
HETATM   10  H   UNL     1      -7.810   6.108  66.464  1.00  0.00     0.000 HD 
HETATM   11  H   UNL     1      -9.476  12.118  67.907  1.00  0.00     0.000 HD 
HETATM   12  H2  UNL     1      -7.588   8.928  65.017  1.00  0.00     0.000 HD 
HETATM   13  O   UNL     1      -8.873  11.555  67.438  1.00  0.00    -0.151 OA 
HETATM   14  O   UNL     1      -7.655   7.031  66.296  1.00  0.00    -0.088 OA 
HETATM   15  H1  UNL     1      -9.239   9.098  65.407  1.00  0.00     0.000 HD 
ENDROOT
BRANCH   6  16
HETATM   16  C   UNL     2     -11.417  13.708  64.631  1.00  0.00    -0.383 C  
BRANCH  16  17
HETATM   17  C   UNL     2     -11.922  12.454  65.351  1.00  0.00    -0.457 C  
BRANCH  17  18
HETATM   18  C   UNL     2     -11.799  12.496  66.892  1.00  0.00    -0.404 C  
HETATM   19  C   UNL     2     -11.823  13.873  67.595  1.00  0.00    -0.386 C  
HETATM   20  C   UNL     2     -11.882  13.806  69.128  1.00  0.00    -0.398 C  
HETATM   21  O   UNL     2     -13.015  14.543  67.170  1.00  0.00     0.171 OA 
HETATM   22  C   UNL     2     -10.638  14.693  67.170  1.00  0.00    -0.282 C  
HETATM   23  H   UNL     2     -13.029  15.389  67.601  1.00  0.00     0.000 HD 
HETATM   24  C   UNL     2      -9.355  14.526  67.533  1.00  0.00    -0.193 C  
BRANCH  24  25
HETATM   25  C   UNL     2      -8.193  15.365  67.050  1.00  0.00    -0.270 C  
HETATM   26  C   UNL     2      -8.459  16.241  65.803  1.00  0.00     0.347 C  
HETATM   27  C   UNL     2      -7.244  17.135  65.777  1.00  0.00     0.289 C  
HETATM   28  O   UNL     2      -9.577  17.118  65.907  1.00  0.00    -0.497 OA 
HETATM   29  H   UNL     2      -9.741  17.656  65.141  1.00  0.00     0.000 HD 
HETATM   30  C   UNL     2      -7.059  17.531  67.241  1.00  0.00    -0.167 C  
HETATM   31  C   UNL     2      -7.600  16.355  68.098  1.00  0.00    -0.157 C  
HETATM   32  O   UNL     2      -5.686  17.835  67.435  1.00  0.00    -0.141 OA 
HETATM   33  H   UNL     2      -5.572  18.080  68.346  1.00  0.00     0.000 HD 
BRANCH  31  34
HETATM   34  C   UNL     2      -6.568  15.698  69.042  1.00  0.00    -0.130 C  
BRANCH  34  35
HETATM   35  C   UNL     2      -5.312  16.514  69.243  1.00  0.00    -0.134 C  
HETATM   36  C   UNL     2      -5.144  17.625  69.977  1.00  0.00    -0.202 C  
BRANCH  36  37
HETATM   37  C   UNL     2      -6.174  18.347  70.798  1.00  0.00     0.656 C  
BRANCH  37  38
HETATM   38  C   UNL     2      -6.514  19.737  70.257  1.00  0.00    -0.239 C  
BRANCH  38  39
HETATM   39  C   UNL     2      -7.523  19.745  69.119  1.00  0.00    -0.256 C  
HETATM   40  C   UNL     2      -7.284  20.702  67.951  1.00  0.00    -0.215 C  
HETATM   41  O   UNL     2      -8.330  21.035  67.326  1.00  0.00    -0.192 OA 
HETATM   42  O   UNL     2      -6.095  21.044  67.648  1.00  0.00    -0.279 OA 
ENDBRANCH  38  39
ENDBRANCH  37  38
ENDBRANCH  36  37
ENDBRANCH  34  35
ENDBRANCH  31  34
ENDBRANCH  24  25
ENDBRANCH  17  18
ENDBRANCH  16  17
ENDBRANCH   6  16
TORSDOF 9
ENDMDL
MODEL      327
REMARK 921   NORMALIZED FREE ENERGY PREDICTED BY IDOCK:    4.16 KCAL/MOL
REMARK 922        TOTAL FREE ENERGY PREDICTED BY IDOCK:    4.43 KCAL/MOL
REMARK 923 INTER-LIGAND FREE ENERGY PREDICTED BY IDOCK:    4.56 KCAL/MOL
REMARK 924 INTRA-LIGAND FREE ENERGY PREDICTED BY IDOCK:   -0.13 KCAL/MOL
REMARK 927      BINDING AFFINITY PREDICTED BY RF-SCORE:    0.00 PKD
ROOT
HETATM    1  O   UNL     1      -7.423  14.062  73.067  1.00  0.00     3.099 OA 
HETATM    2  C   UNL     1      -6.633  14.521  71.975  1.00  0.00     1.433 C  
HETATM    3  H   UNL     1      -7.200  14.509  73.875  1.00  0.00     0.000 HD 
HETATM    4  C   UNL     2     -10.669  19.878  66.584  1.00  0.00    -0.451 C  
HETATM    5  C   UNL     1      -6.999  13.788  70.651  1.00  0.00     1.062 C  
HETATM    6  C   UNL     2     -10.808  18.365  66.520  1.00  0.00    -0.066 C  
HETATM    7  C   UNL     1      -8.518  13.964  70.376  1.00  0.00     3.101 C  
HETATM    8  N   UNL     1      -6.213  14.463  69.570  1.00  0.00    -0.112 NA 
HETATM    9  C   UNL     1      -6.557  12.335  70.579  1.00  0.00     0.944 C  
HETATM   10  H   UNL     1      -4.850  11.398  70.391  1.00  0.00     0.000 HD 
HETATM   11  H   UNL     1      -9.793  15.459  70.149  1.00  0.00     0.000 HD 
HETATM   12  H2  UNL     1      -5.210  14.490  69.754  1.00  0.00     0.000 HD 
HETATM   13  O   UNL     1      -8.864  15.351  70.317  1.00  0.00     0.281 OA 
HETATM   14  O   UNL     1      -5.127  12.307  70.436  1.00  0.00    -0.084 OA 
HETATM   15  H1  UNL     1      -6.453  13.983  68.702  1.00  0.00     0.000 HD 
ENDROOT
BRANCH   6  16
HETATM   16  C   UNL     2      -9.479  17.619  66.647  1.00  0.00    -0.288 C  
BRANCH  16  17
HETATM   17  C   UNL     2      -9.196  16.603  65.537  1.00  0.00     0.414 C  
BRANCH  17  18
HETATM   18  C   UNL     2     -10.439  15.842  65.021  1.00  0.00    -0.295 C  
HETATM   19  C   UNL     2     -11.216  14.944  66.010  1.00  0.00    -0.327 C  
HETATM   20  C   UNL     2     -12.534  14.379  65.461  1.00  0.00    -0.356 C  
HETATM   21  O   UNL     2     -11.559  15.758  67.138  1.00  0.00    -0.024 OA 
HETATM   22  C   UNL     2     -10.342  13.818  66.485  1.00  0.00    -0.286 C  
HETATM   23  H   UNL     2     -12.036  15.207  67.746  1.00  0.00     0.000 HD 
HETATM   24  C   UNL     2      -9.961  12.731  65.794  1.00  0.00    -0.259 C  
BRANCH  24  25
HETATM   25  C   UNL     2      -9.052  11.639  66.312  1.00  0.00    -0.219 C  
HETATM   26  C   UNL     2      -7.534  11.901  66.184  1.00  0.00     0.575 C  
HETATM   27  C   UNL     2      -6.948  10.800  67.035  1.00  0.00    -0.100 C  
HETATM   28  O   UNL     2      -7.078  13.118  66.766  1.00  0.00    -0.326 OA 
HETATM   29  H   UNL     2      -6.145  13.279  66.688  1.00  0.00     0.000 HD 
HETATM   30  C   UNL     2      -7.847  10.785  68.270  1.00  0.00    -0.115 C  
HETATM   31  C   UNL     2      -9.253  11.255  67.810  1.00  0.00    -0.156 C  
HETATM   32  O   UNL     2      -7.800   9.479  68.822  1.00  0.00    -0.082 OA 
HETATM   33  H   UNL     2      -8.360   9.470  69.590  1.00  0.00     0.000 HD 
BRANCH  31  34
HETATM   34  C   UNL     2     -10.394  10.236  68.030  1.00  0.00    -0.215 C  
BRANCH  34  35
HETATM   35  C   UNL     2     -11.427  10.679  69.040  1.00  0.00    -0.342 C  
HETATM   36  C   UNL     2     -11.618  10.236  70.293  1.00  0.00    -0.396 C  
BRANCH  36  37
HETATM   37  C   UNL     2     -10.841   9.176  71.020  1.00  0.00    -0.362 C  
BRANCH  37  38
HETATM   38  C   UNL     2     -11.123   7.762  70.509  1.00  0.00    -0.265 C  
BRANCH  38  39
HETATM   39  C   UNL     2     -11.679   6.809  71.556  1.00  0.00    -0.361 C  
HETATM   40  C   UNL     2     -11.012   6.780  72.932  1.00  0.00    -0.263 C  
HETATM   41  O   UNL     2     -11.151   5.692  73.557  1.00  0.00    -0.256 OA 
HETATM   42  O   UNL     2     -10.436   7.826  73.377  1.00  0.00    -0.338 OA 
ENDBRANCH  38  39
ENDBRANCH  37  38
ENDBRANCH  36  37
ENDBRANCH  34  35
ENDBRANCH  31  34
ENDBRANCH  24  25
ENDBRANCH  17  18
ENDBRANCH  16  17
ENDBRANCH   6  16
TORSDOF 9
ENDMDL
MODEL      328
REMARK 921   NORMALIZED FREE ENERGY PREDICTED BY IDOCK:    4.32 KCAL/MOL
REMARK 922        TOTAL FREE ENERGY PREDICTED BY IDOCK:    4.67 KCAL/MOL
REMARK 923 INTER-LIGAND FREE ENERGY PREDICTED BY IDOCK:   -4.84 KCAL/MOL
REMARK 924 INTRA-LIGAND FREE ENERGY PREDICTED BY IDOCK:    9.51 KCAL/MOL
REMARK 927      BINDING AFFINITY PREDICTED BY RF-SCORE:    0.00 PKD
ROOT
HETATM    1  O   UNL     1     -12.250  15.020  69.161  1.00  0.00    -0.521 OA 
HETATM    2  C   UNL     1     -11.692  14.889  67.857  1.00  0.00    -0.321 C  
HETATM    3  H   UNL     1     -13.100  14.601  69.224  1.00  0.00     0.000 HD 
HETATM    4  C   UNL     2      -5.475   8.981  67.152  1.00  0.00    -0.041 C  
HETATM    5  C   UNL     1     -10.298  15.574  67.755  1.00  0.00    -0.263 C  
HETATM    6  C   UNL     2      -5.236  10.388  67.676  1.00  0.00    -0.036 C  
HETATM    7  C   UNL     1      -9.361  14.983  68.844  1.00  0.00    -0.208 C  
HETATM    8  N   UNL     1      -9.766  15.236  66.397  1.00  0.00    -0.266 NA 
HETATM    9  C   UNL     1     -10.328  17.094  67.773  1.00  0.00    -0.347 C  
HETATM   10  H   UNL     1     -10.887  18.498  66.531  1.00  0.00     0.000 HD 
HETATM   11  H   UNL     1      -8.682  13.202  69.368  1.00  0.00     0.000 HD 
HETATM   12  H2  UNL     1     -10.399  15.489  65.638  1.00  0.00     0.000 HD 
HETATM   13  O   UNL     1      -9.254  13.563  68.703  1.00  0.00    -0.141 OA 
HETATM   14  O   UNL     1     -10.868  17.548  66.519  1.00  0.00    -0.139 OA 
HETATM   15  H1  UNL     1      -8.852  15.684  66.330  1.00  0.00     0.000 HD 
ENDROOT
BRANCH   6  16
HETATM   16  C   UNL     2      -5.912  11.479  66.842  1.00  0.00    -0.136 C  
BRANCH  16  17
HETATM   17  C   UNL     2      -6.666  12.539  67.649  1.00  0.00    -0.136 C  
BRANCH  17  18
HETATM   18  C   UNL     2      -7.215  12.051  69.009  1.00  0.00    -0.053 C  
HETATM   19  C   UNL     2      -6.582  10.795  69.651  1.00  0.00    -0.114 C  
HETATM   20  C   UNL     2      -7.062  10.496  71.079  1.00  0.00     1.244 C  
HETATM   21  O   UNL     2      -5.172  11.030  69.735  1.00  0.00    -0.041 OA 
HETATM   22  C   UNL     2      -6.813   9.594  68.778  1.00  0.00    -0.051 C  
HETATM   23  H   UNL     2      -4.782  10.258  70.128  1.00  0.00     0.000 HD 
HETATM   24  C   UNL     2      -7.963   8.924  68.596  1.00  0.00    -0.103 C  
BRANCH  24  25
HETATM   25  C   UNL     2      -8.147   7.736  67.678  1.00  0.00    -0.124 C  
HETATM   26  C   UNL     2      -8.590   6.417  68.355  1.00  0.00    -0.115 C  
HETATM   27  C   UNL     2      -8.957   5.559  67.169  1.00  0.00    -0.112 C  
HETATM   28  O   UNL     2      -9.773   6.508  69.142  1.00  0.00    -0.137 OA 
HETATM   29  H   UNL     2     -10.045   5.698  69.558  1.00  0.00     0.000 HD 
HETATM   30  C   UNL     2      -9.733   6.514  66.263  1.00  0.00    -0.010 C  
HETATM   31  C   UNL     2      -9.169   7.937  66.518  1.00  0.00    -0.238 C  
HETATM   32  O   UNL     2      -9.603   6.045  64.930  1.00  0.00     0.073 OA 
HETATM   33  H   UNL     2     -10.085   6.639  64.367  1.00  0.00     0.000 HD 
BRANCH  31  34
HETATM   34  C   UNL     2      -8.558   8.636  65.283  1.00  0.00    -0.206 C  
BRANCH  34  35
HETATM   35  C   UNL     2      -9.296   9.884  64.856  1.00  0.00    -0.329 C  
HETATM   36  C   UNL     2     -10.329  10.493  65.458  1.00  0.00    -0.287 C  
BRANCH  36  37
HETATM   37  C   UNL     2     -11.022  10.086  66.727  1.00  0.00    -0.017 C  
BRANCH  37  38
HETATM   38  C   UNL     2     -10.667  10.971  67.923  1.00  0.00    -0.263 C  
BRANCH  38  39
HETATM   39  C   UNL     2     -11.826  11.259  68.865  1.00  0.00    -0.413 C  
HETATM   40  C   UNL     2     -11.855  10.537  70.213  1.00  0.00    -0.331 C  
HETATM   41  O   UNL     2     -13.009  10.409  70.712  1.00  0.00    -0.375 OA 
HETATM   42  O   UNL     2     -10.763  10.180  70.762  1.00  0.00    -0.282 OA 
ENDBRANCH  38  39
ENDBRANCH  37  38
ENDBRANCH  36  37
ENDBRANCH  34  35
ENDBRANCH  31  34
ENDBRANCH  24  25
ENDBRANCH  17  18
ENDBRANCH  16  17
ENDBRANCH   6  16
TORSDOF 9
ENDMDL
MODEL      329
REMARK 921   NORMALIZED FREE ENERGY PREDICTED BY IDOCK:    4.68 KCAL/MOL
REMARK 922        TOTAL FREE ENERGY PREDICTED BY IDOCK:    5.22 KCAL/MOL
REMARK 923 INTER-LIGAND FREE ENERGY PREDICTED BY IDOCK:   -1.44 KCAL/MOL
REMARK 924 INTRA-LIGAND FREE ENERGY PREDICTED BY IDOCK:    6.66 KCAL/MOL
REMARK 927      BINDING AFFINITY PREDICTED BY RF-SCORE:    0.00 PKD
ROOT
HETATM    1  O   UNL     1      -5.214   7.357  65.847  1.00  0.00    -0.024 OA 
HETATM    2  C   UNL     1      -6.526   7.338  66.400  1.00  0.00    -0.048 C  
HETATM    3  H   UNL     1      -4.583   6.939  66.422  1.00  0.00     0.000 HD 
HETATM    4  C   UNL     2     -11.819   1.483  62.971  1.00  0.00     0.308 C  
HETATM    5  C   UNL     1      -7.559   8.023  65.459  1.00  0.00    -0.085 C  
HETATM    6  C   UNL     2     -11.546   2.838  62.337  1.00  0.00     0.307 C  
HETATM    7  C   UNL     1      -7.511   7.334  64.067  1.00  0.00    -0.100 C  
HETATM    8  N   UNL     1      -8.902   7.802  66.081  1.00  0.00    -0.157 NA 
HETATM    9  C   UNL     1      -7.438   9.536  65.366  1.00  0.00    -0.099 C  
HETATM   10  H   UNL     1      -7.817  11.045  66.550  1.00  0.00     0.000 HD 
HETATM   11  H   UNL     1      -7.737   5.510  63.337  1.00  0.00     0.000 HD 
HETATM   12  H2  UNL     1      -8.959   8.123  67.048  1.00  0.00     0.000 HD 
HETATM   13  O   UNL     1      -7.766   5.931  64.187  1.00  0.00    -0.091 OA 
HETATM   14  O   UNL     1      -7.893  10.100  66.608  1.00  0.00    -0.107 OA 
HETATM   15  H1  UNL     1      -9.579   8.250  65.464  1.00  0.00     0.000 HD 
ENDROOT
BRANCH   6  16
HETATM   16  C   UNL     2     -11.577   4.001  63.331  1.00  0.00     1.205 C  
BRANCH  16  17
HETATM   17  C   UNL     2     -10.419   4.995  63.203  1.00  0.00     1.266 C  
BRANCH  17  18
HETATM   18  C   UNL     2      -9.013   4.352  63.157  1.00  0.00    -0.128 C  
HETATM   19  C   UNL     2      -8.826   2.946  63.774  1.00  0.00    -0.092 C  
HETATM   20  C   UNL     2      -7.450   2.315  63.518  1.00  0.00    -0.054 C  
HETATM   21  O   UNL     2      -9.792   2.085  63.159  1.00  0.00    -0.099 OA 
HETATM   22  C   UNL     2      -9.097   2.987  65.251  1.00  0.00    -0.149 C  
HETATM   23  H   UNL     2      -9.677   1.222  63.538  1.00  0.00     0.000 HD 
HETATM   24  C   UNL     2      -8.319   3.515  66.211  1.00  0.00    -0.102 C  
BRANCH  24  25
HETATM   25  C   UNL     2      -8.655   3.556  67.685  1.00  0.00    -0.116 C  
HETATM   26  C   UNL     2      -8.135   2.373  68.534  1.00  0.00    -0.056 C  
HETATM   27  C   UNL     2      -8.374   2.862  69.942  1.00  0.00    -0.077 C  
HETATM   28  O   UNL     2      -6.734   2.132  68.445  1.00  0.00    -0.029 OA 
HETATM   29  H   UNL     2      -6.415   1.406  68.966  1.00  0.00     0.000 HD 
HETATM   30  C   UNL     2      -7.919   4.320  69.895  1.00  0.00    -0.056 C  
HETATM   31  C   UNL     2      -8.165   4.824  68.448  1.00  0.00    -0.084 C  
HETATM   32  O   UNL     2      -8.624   5.024  70.906  1.00  0.00    -0.116 OA 
HETATM   33  H   UNL     2      -8.341   5.930  70.877  1.00  0.00     0.000 HD 
BRANCH  31  34
HETATM   34  C   UNL     2      -9.133   6.022  68.323  1.00  0.00    -0.111 C  
BRANCH  34  35
HETATM   35  C   UNL     2     -10.536   5.732  68.808  1.00  0.00    -0.312 C  
HETATM   36  C   UNL     2     -11.181   6.251  69.864  1.00  0.00    -0.498 C  
BRANCH  36  37
HETATM   37  C   UNL     2     -10.668   7.266  70.845  1.00  0.00    -0.251 C  
BRANCH  37  38
HETATM   38  C   UNL     2     -10.543   8.671  70.252  1.00  0.00    -0.240 C  
BRANCH  38  39
HETATM   39  C   UNL     2     -11.639   9.638  70.675  1.00  0.00    -0.371 C  
HETATM   40  C   UNL     2     -11.551  11.085  70.188  1.00  0.00    -0.334 C  
HETATM   41  O   UNL     2     -12.144  11.921  70.927  1.00  0.00    -0.321 OA 
HETATM   42  O   UNL     2     -10.969  11.346  69.085  1.00  0.00    -0.220 OA 
ENDBRANCH  38  39
ENDBRANCH  37  38
ENDBRANCH  36  37
ENDBRANCH  34  35
ENDBRANCH  31  34
ENDBRANCH  24  25
ENDBRANCH  17  18
ENDBRANCH  16  17
ENDBRANCH   6  16
TORSDOF 9
ENDMDL
MODEL      330
REMARK 921   NORMALIZED FREE ENERGY PREDICTED BY IDOCK:    4.71 KCAL/MOL
REMARK 922        TOTAL FREE ENERGY PREDICTED BY IDOCK:    5.27 KCAL/MOL
REMARK 923 INTER-LIGAND FREE ENERGY PREDICTED BY IDOCK:   -1.34 KCAL/MOL
REMARK 924 INTRA-LIGAND FREE ENERGY PREDICTED BY IDOCK:    6.61 KCAL/MOL
REMARK 927      BINDING AFFINITY PREDICTED BY RF-SCORE:    0.00 PKD
ROOT
HETATM    1  O   UNL     1     -12.303   7.835  72.943  1.00  0.00    -0.573 OA 
HETATM    2  C   UNL     1     -12.561   8.541  71.734  1.00  0.00    -0.346 C  
HETATM    3  H   UNL     1     -12.963   7.173  73.112  1.00  0.00     0.000 HD 
HETATM    4  C   UNL     2      -7.628   6.240  65.069  1.00  0.00    -0.090 C  
HETATM    5  C   UNL     1     -11.479   9.626  71.457  1.00  0.00    -0.369 C  
HETATM    6  C   UNL     2      -7.177   7.213  66.148  1.00  0.00    -0.074 C  
HETATM    7  C   UNL     1     -10.079   8.953  71.442  1.00  0.00    -0.309 C  
HETATM    8  N   UNL     1     -11.783  10.181  70.100  1.00  0.00    -0.340 NA 
HETATM    9  C   UNL     1     -11.536  10.837  72.374  1.00  0.00     3.613 C  
HETATM   10  H   UNL     1     -12.730  12.371  72.595  1.00  0.00     0.000 HD 
HETATM   11  H   UNL     1      -9.174   7.496  70.458  1.00  0.00     0.000 HD 
HETATM   12  H2  UNL     1     -12.738  10.528  70.007  1.00  0.00     0.000 HD 
HETATM   13  O   UNL     1     -10.030   7.907  70.467  1.00  0.00    -0.189 OA 
HETATM   14  O   UNL     1     -12.694  11.614  72.022  1.00  0.00    -0.229 OA 
HETATM   15  H1  UNL     1     -11.074  10.891  69.918  1.00  0.00     0.000 HD 
ENDROOT
BRANCH   6  16
HETATM   16  C   UNL     2      -8.232   8.259  66.514  1.00  0.00    -0.106 C  
BRANCH  16  17
HETATM   17  C   UNL     2      -7.675   9.582  67.048  1.00  0.00    -0.091 C  
BRANCH  17  18
HETATM   18  C   UNL     2      -7.077   9.507  68.472  1.00  0.00    -0.070 C  
HETATM   19  C   UNL     2      -7.765  10.306  69.602  1.00  0.00    -0.160 C  
HETATM   20  C   UNL     2      -7.217  10.026  71.009  1.00  0.00     0.493 C  
HETATM   21  O   UNL     2      -9.143   9.916  69.616  1.00  0.00    -0.201 OA 
HETATM   22  C   UNL     2      -7.691  11.780  69.315  1.00  0.00     0.217 C  
HETATM   23  H   UNL     2      -9.566  10.407  70.310  1.00  0.00     0.000 HD 
HETATM   24  C   UNL     2      -6.613  12.577  69.404  1.00  0.00    -0.073 C  
BRANCH  24  25
HETATM   25  C   UNL     2      -6.588  14.052  69.073  1.00  0.00    -0.106 C  
HETATM   26  C   UNL     2      -5.461  14.516  68.120  1.00  0.00    -0.122 C  
HETATM   27  C   UNL     2      -5.893  15.920  67.775  1.00  0.00    -0.166 C  
HETATM   28  O   UNL     2      -5.393  13.820  66.879  1.00  0.00     0.216 OA 
HETATM   29  H   UNL     2      -4.701  14.105  66.294  1.00  0.00     0.000 HD 
HETATM   30  C   UNL     2      -7.396  15.783  67.535  1.00  0.00    -0.178 C  
HETATM   31  C   UNL     2      -7.892  14.618  68.432  1.00  0.00    -0.131 C  
HETATM   32  O   UNL     2      -7.991  17.043  67.802  1.00  0.00    -0.180 OA 
HETATM   33  H   UNL     2      -8.926  16.957  67.652  1.00  0.00     0.000 HD 
BRANCH  31  34
HETATM   34  C   UNL     2      -8.967  15.000  69.475  1.00  0.00    -0.059 C  
BRANCH  34  35
HETATM   35  C   UNL     2     -10.069  15.878  68.927  1.00  0.00    -0.225 C  
HETATM   36  C   UNL     2     -10.335  16.188  67.649  1.00  0.00    -0.288 C  
BRANCH  36  37
HETATM   37  C   UNL     2      -9.599  15.733  66.422  1.00  0.00    -0.311 C  
BRANCH  37  38
HETATM   38  C   UNL     2     -10.443  15.806  65.147  1.00  0.00    -0.394 C  
BRANCH  38  39
HETATM   39  C   UNL     2     -10.419  14.545  64.297  1.00  0.00     0.520 C  
HETATM   40  C   UNL     2     -11.742  14.037  63.725  1.00  0.00    -0.027 C  
HETATM   41  O   UNL     2     -11.764  12.798  63.481  1.00  0.00    -0.480 OA 
HETATM   42  O   UNL     2     -12.682  14.861  63.478  1.00  0.00    -0.510 OA 
ENDBRANCH  38  39
ENDBRANCH  37  38
ENDBRANCH  36  37
ENDBRANCH  34  35
ENDBRANCH  31  34
ENDBRANCH  24  25
ENDBRANCH  17  18
ENDBRANCH  16  17
ENDBRANCH   6  16
TORSDOF 9
ENDMDL
MODEL      331
REMARK 921   NORMALIZED FREE ENERGY PREDICTED BY IDOCK:    4.92 KCAL/MOL
REMARK 922        TOTAL FREE ENERGY PREDICTED BY IDOCK:    5.58 KCAL/MOL
REMARK 923 INTER-LIGAND FREE ENERGY PREDICTED BY IDOCK:   -4.27 KCAL/MOL
REMARK 924 INTRA-LIGAND FREE ENERGY PREDICTED BY IDOCK:    9.86 KCAL/MOL
REMARK 927      BINDING AFFINITY PREDICTED BY RF-SCORE:    0.00 PKD
ROOT
HETATM    1  O   UNL     1     -12.396  14.861  69.843  1.00  0.00    -0.402 OA 
HETATM    2  C   UNL     1     -11.979  14.910  68.482  1.00  0.00    -0.241 C  
HETATM    3  H   UNL     1     -13.242  14.438  69.937  1.00  0.00     0.000 HD 
HETATM    4  C   UNL     2      -5.956   9.153  66.329  1.00  0.00    -0.059 C  
HETATM    5  C   UNL     1     -10.593  15.602  68.329  1.00  0.00    -0.262 C  
HETATM    6  C   UNL     2      -5.644  10.475  67.013  1.00  0.00    -0.043 C  
HETATM    7  C   UNL     1      -9.557  14.867  69.222  1.00  0.00    -0.128 C  
HETATM    8  N   UNL     1     -10.210  15.453  66.889  1.00  0.00    -0.268 NA 
HETATM    9  C   UNL     1     -10.599  17.106  68.557  1.00  0.00    -0.361 C  
HETATM   10  H   UNL     1     -11.263  18.667  67.584  1.00  0.00     0.000 HD 
HETATM   11  H   UNL     1      -8.853  13.030  69.425  1.00  0.00     0.000 HD 
HETATM   12  H2  UNL     1     -10.914  15.808  66.242  1.00  0.00     0.000 HD 
HETATM   13  O   UNL     1      -9.486  13.480  68.879  1.00  0.00    -0.018 OA 
HETATM   14  O   UNL     1     -11.259  17.727  67.441  1.00  0.00    -0.030 OA 
HETATM   15  H1  UNL     1      -9.301  15.907  66.789  1.00  0.00     0.000 HD 
ENDROOT
BRANCH   6  16
HETATM   16  C   UNL     2      -6.386  11.670  66.411  1.00  0.00     0.095 C  
BRANCH  16  17
HETATM   17  C   UNL     2      -6.851  12.721  67.422  1.00  0.00    -0.137 C  
BRANCH  17  18
HETATM   18  C   UNL     2      -7.057  12.193  68.861  1.00  0.00    -0.098 C  
HETATM   19  C   UNL     2      -6.523  10.785  69.211  1.00  0.00    -0.067 C  
HETATM   20  C   UNL     2      -6.606  10.422  70.701  1.00  0.00    -0.002 C  
HETATM   21  O   UNL     2      -5.134  10.762  68.863  1.00  0.00    -0.042 OA 
HETATM   22  C   UNL     2      -7.235   9.742  68.396  1.00  0.00    -0.077 C  
HETATM   23  H   UNL     2      -4.806   9.897  69.077  1.00  0.00     0.000 HD 
HETATM   24  C   UNL     2      -8.496   9.305  68.549  1.00  0.00    -0.123 C  
BRANCH  24  25
HETATM   25  C   UNL     2      -9.175   8.272  67.679  1.00  0.00    -0.150 C  
HETATM   26  C   UNL     2      -8.260   7.504  66.696  1.00  0.00    -0.125 C  
HETATM   27  C   UNL     2      -9.164   6.392  66.223  1.00  0.00    -0.162 C  
HETATM   28  O   UNL     2      -7.139   6.858  67.291  1.00  0.00    -0.078 OA 
HETATM   29  H   UNL     2      -6.577   6.386  66.688  1.00  0.00     0.000 HD 
HETATM   30  C   UNL     2      -9.854   5.922  67.503  1.00  0.00    -0.125 C  
HETATM   31  C   UNL     2      -9.946   7.153  68.444  1.00  0.00    -0.166 C  
HETATM   32  O   UNL     2     -11.100   5.352  67.136  1.00  0.00    -0.295 OA 
HETATM   33  H   UNL     2     -11.529   5.060  67.932  1.00  0.00     0.000 HD 
BRANCH  31  34
HETATM   34  C   UNL     2     -11.378   7.568  68.849  1.00  0.00     0.414 C  
BRANCH  34  35
HETATM   35  C   UNL     2     -11.828   7.004  70.177  1.00  0.00    -0.190 C  
HETATM   36  C   UNL     2     -11.100   6.361  71.103  1.00  0.00    -0.344 C  
BRANCH  36  37
HETATM   37  C   UNL     2      -9.635   6.036  71.056  1.00  0.00    -0.197 C  
BRANCH  37  38
HETATM   38  C   UNL     2      -9.328   4.572  71.379  1.00  0.00    -0.206 C  
BRANCH  38  39
HETATM   39  C   UNL     2      -9.468   3.620  70.200  1.00  0.00    -0.258 C  
HETATM   40  C   UNL     2      -8.322   2.646  69.921  1.00  0.00    -0.041 C  
HETATM   41  O   UNL     2      -8.245   2.262  68.721  1.00  0.00    -0.055 OA 
HETATM   42  O   UNL     2      -7.586   2.245  70.881  1.00  0.00    -0.033 OA 
ENDBRANCH  38  39
ENDBRANCH  37  38
ENDBRANCH  36  37
ENDBRANCH  34  35
ENDBRANCH  31  34
ENDBRANCH  24  25
ENDBRANCH  17  18
ENDBRANCH  16  17
ENDBRANCH   6  16
TORSDOF 9
ENDMDL
MODEL      332
REMARK 921   NORMALIZED FREE ENERGY PREDICTED BY IDOCK:    5.39 KCAL/MOL
REMARK 922        TOTAL FREE ENERGY PREDICTED BY IDOCK:    6.31 KCAL/MOL
REMARK 923 INTER-LIGAND FREE ENERGY PREDICTED BY IDOCK:    1.99 KCAL/MOL
REMARK 924 INTRA-LIGAND FREE ENERGY PREDICTED BY IDOCK:    4.31 KCAL/MOL
REMARK 927      BINDING AFFINITY PREDICTED BY RF-SCORE:    0.00 PKD
ROOT
HETATM    1  O   UNL     1     -12.142  17.559  70.290  1.00  0.00     2.751 OA 
HETATM    2  C   UNL     1     -11.528  17.759  69.021  1.00  0.00     1.798 C  
HETATM    3  H   UNL     1     -12.929  18.082  70.386  1.00  0.00     0.000 HD 
HETATM    4  C   UNL     2     -12.803  11.423  63.339  1.00  0.00     0.396 C  
HETATM    5  C   UNL     1     -10.239  16.901  68.862  1.00  0.00    -0.314 C  
HETATM    6  C   UNL     2     -11.739  11.372  64.425  1.00  0.00     0.002 C  
HETATM    7  C   UNL     1     -10.590  15.407  69.102  1.00  0.00    -0.248 C  
HETATM    8  N   UNL     1      -9.784  17.089  67.449  1.00  0.00    -0.247 NA 
HETATM    9  C   UNL     1      -9.055  17.364  69.697  1.00  0.00     0.823 C  
HETATM   10  H   UNL     1      -7.814  18.875  69.650  1.00  0.00     0.000 HD 
HETATM   11  H   UNL     1     -11.830  14.065  68.347  1.00  0.00     0.000 HD 
HETATM   12  H2  UNL     1      -9.654  18.067  67.190  1.00  0.00     0.000 HD 
HETATM   13  O   UNL     1     -11.615  14.978  68.201  1.00  0.00    -0.326 OA 
HETATM   14  O   UNL     1      -8.554  18.586  69.129  1.00  0.00    -0.105 OA 
HETATM   15  H1  UNL     1      -8.939  16.526  67.345  1.00  0.00     0.000 HD 
ENDROOT
BRANCH   6  16
HETATM   16  C   UNL     2     -10.942  12.670  64.567  1.00  0.00    -0.365 C  
BRANCH  16  17
HETATM   17  C   UNL     2     -11.385  13.581  65.715  1.00  0.00    -0.318 C  
BRANCH  17  18
HETATM   18  C   UNL     2     -10.440  13.590  66.939  1.00  0.00    -0.271 C  
HETATM   19  C   UNL     2      -8.915  13.536  66.692  1.00  0.00    -0.117 C  
HETATM   20  C   UNL     2      -8.056  13.736  67.949  1.00  0.00    -0.166 C  
HETATM   21  O   UNL     2      -8.594  14.611  65.802  1.00  0.00     0.084 OA 
HETATM   22  C   UNL     2      -8.543  12.241  66.026  1.00  0.00     0.330 C  
HETATM   23  H   UNL     2      -7.657  14.577  65.650  1.00  0.00     0.000 HD 
HETATM   24  C   UNL     2      -8.499  11.018  66.583  1.00  0.00    -0.153 C  
BRANCH  24  25
HETATM   25  C   UNL     2      -8.147   9.739  65.857  1.00  0.00    -0.114 C  
HETATM   26  C   UNL     2      -7.478   9.906  64.472  1.00  0.00    -0.140 C  
HETATM   27  C   UNL     2      -7.005   8.504  64.176  1.00  0.00    -0.078 C  
HETATM   28  O   UNL     2      -6.306  10.716  64.459  1.00  0.00    -0.352 OA 
HETATM   29  H   UNL     2      -5.895  10.818  63.609  1.00  0.00     0.000 HD 
HETATM   30  C   UNL     2      -6.418   8.036  65.507  1.00  0.00    -0.045 C  
HETATM   31  C   UNL     2      -7.201   8.770  66.629  1.00  0.00    -0.081 C  
HETATM   32  O   UNL     2      -6.504   6.620  65.542  1.00  0.00    -0.046 OA 
HETATM   33  H   UNL     2      -6.139   6.329  66.370  1.00  0.00     0.000 HD 
BRANCH  31  34
HETATM   34  C   UNL     2      -7.948   7.851  67.621  1.00  0.00    -0.124 C  
BRANCH  34  35
HETATM   35  C   UNL     2      -7.646   6.381  67.444  1.00  0.00    -0.100 C  
HETATM   36  C   UNL     2      -8.405   5.432  66.874  1.00  0.00    -0.108 C  
BRANCH  36  37
HETATM   37  C   UNL     2      -9.765   5.593  66.258  1.00  0.00    -0.162 C  
BRANCH  37  38
HETATM   38  C   UNL     2      -9.881   4.957  64.871  1.00  0.00     0.155 C  
BRANCH  38  39
HETATM   39  C   UNL     2      -9.644   3.454  64.841  1.00  0.00    -0.152 C  
HETATM   40  C   UNL     2      -8.327   2.945  64.254  1.00  0.00    -0.083 C  
HETATM   41  O   UNL     2      -8.379   1.768  63.799  1.00  0.00    -0.075 OA 
HETATM   42  O   UNL     2      -7.284   3.675  64.313  1.00  0.00    -0.056 OA 
ENDBRANCH  38  39
ENDBRANCH  37  38
ENDBRANCH  36  37
ENDBRANCH  34  35
ENDBRANCH  31  34
ENDBRANCH  24  25
ENDBRANCH  17  18
ENDBRANCH  16  17
ENDBRANCH   6  16
TORSDOF 9
ENDMDL
MODEL      333
REMARK 921   NORMALIZED FREE ENERGY PREDICTED BY IDOCK:    5.93 KCAL/MOL
REMARK 922        TOTAL FREE ENERGY PREDICTED BY IDOCK:    7.12 KCAL/MOL
REMARK 923 INTER-LIGAND FREE ENERGY PREDICTED BY IDOCK:    4.47 KCAL/MOL
REMARK 924 INTRA-LIGAND FREE ENERGY PREDICTED BY IDOCK:    2.65 KCAL/MOL
REMARK 927      BINDING AFFINITY PREDICTED BY RF-SCORE:    0.00 PKD
ROOT
HETATM    1  O   UNL     1      -8.233   5.844  67.059  1.00  0.00    -0.105 OA 
HETATM    2  C   UNL     1      -7.223   6.751  66.629  1.00  0.00    -0.073 C  
HETATM    3  H   UNL     1      -8.241   5.747  68.004  1.00  0.00     0.000 HD 
HETATM    4  C   UNL     2     -10.076  14.551  64.379  1.00  0.00     0.753 C  
HETATM    5  C   UNL     1      -7.210   6.910  65.081  1.00  0.00    -0.074 C  
HETATM    6  C   UNL     2     -10.115  13.346  63.451  1.00  0.00     2.306 C  
HETATM    7  C   UNL     1      -8.622   7.353  64.605  1.00  0.00     0.255 C  
HETATM    8  N   UNL     1      -6.218   7.990  64.780  1.00  0.00    -0.048 NA 
HETATM    9  C   UNL     1      -6.688   5.703  64.317  1.00  0.00    -0.045 C  
HETATM   10  H   UNL     1      -4.941   4.868  64.044  1.00  0.00     0.000 HD 
HETATM   11  H   UNL     1      -9.877   8.839  64.959  1.00  0.00     0.000 HD 
HETATM   12  H2  UNL     1      -5.295   7.815  65.177  1.00  0.00     0.000 HD 
HETATM   13  O   UNL     1      -9.015   8.568  65.250  1.00  0.00    -0.154 OA 
HETATM   14  O   UNL     1      -5.268   5.622  64.522  1.00  0.00    -0.009 OA 
HETATM   15  H1  UNL     1      -6.210   8.094  63.766  1.00  0.00     0.000 HD 
ENDROOT
BRANCH   6  16
HETATM   16  C   UNL     2      -8.821  12.530  63.448  1.00  0.00     2.451 C  
BRANCH  16  17
HETATM   17  C   UNL     2      -8.691  11.515  64.587  1.00  0.00     0.487 C  
BRANCH  17  18
HETATM   18  C   UNL     2      -7.240  11.215  65.027  1.00  0.00     0.705 C  
HETATM   19  C   UNL     2      -6.972  10.897  66.516  1.00  0.00    -0.139 C  
HETATM   20  C   UNL     2      -5.541  10.432  66.823  1.00  0.00    -0.048 C  
HETATM   21  O   UNL     2      -7.839   9.816  66.879  1.00  0.00    -0.101 OA 
HETATM   22  C   UNL     2      -7.312  12.086  67.370  1.00  0.00    -0.150 C  
HETATM   23  H   UNL     2      -7.676   9.621  67.793  1.00  0.00     0.000 HD 
HETATM   24  C   UNL     2      -6.621  13.232  67.488  1.00  0.00    -0.153 C  
BRANCH  24  25
HETATM   25  C   UNL     2      -7.025  14.413  68.342  1.00  0.00    -0.109 C  
HETATM   26  C   UNL     2      -6.989  14.190  69.872  1.00  0.00     0.097 C  
HETATM   27  C   UNL     2      -7.148  15.594  70.402  1.00  0.00     0.612 C  
HETATM   28  O   UNL     2      -5.745  13.725  70.387  1.00  0.00    -0.126 OA 
HETATM   29  H   UNL     2      -5.722  13.588  71.326  1.00  0.00     0.000 HD 
HETATM   30  C   UNL     2      -6.232  16.422  69.502  1.00  0.00    -0.198 C  
HETATM   31  C   UNL     2      -6.196  15.714  68.121  1.00  0.00    -0.135 C  
HETATM   32  O   UNL     2      -6.731  17.750  69.484  1.00  0.00    -0.215 OA 
HETATM   33  H   UNL     2      -6.162  18.265  68.924  1.00  0.00     0.000 HD 
BRANCH  31  34
HETATM   34  C   UNL     2      -6.699  16.563  66.932  1.00  0.00    -0.233 C  
BRANCH  34  35
HETATM   35  C   UNL     2      -7.786  17.549  67.297  1.00  0.00    -0.221 C  
HETATM   36  C   UNL     2      -9.108  17.340  67.393  1.00  0.00    -0.227 C  
BRANCH  36  37
HETATM   37  C   UNL     2      -9.854  16.057  67.161  1.00  0.00    -0.236 C  
BRANCH  37  38
HETATM   38  C   UNL     2     -10.062  15.238  68.436  1.00  0.00    -0.220 C  
BRANCH  38  39
HETATM   39  C   UNL     2      -9.546  13.809  68.364  1.00  0.00    -0.206 C  
HETATM   40  C   UNL     2     -10.395  12.703  68.993  1.00  0.00     0.065 C  
HETATM   41  O   UNL     2      -9.741  11.683  69.350  1.00  0.00     0.237 OA 
HETATM   42  O   UNL     2     -11.660  12.839  69.061  1.00  0.00    -0.276 OA 
ENDBRANCH  38  39
ENDBRANCH  37  38
ENDBRANCH  36  37
ENDBRANCH  34  35
ENDBRANCH  31  34
ENDBRANCH  24  25
ENDBRANCH  17  18
ENDBRANCH  16  17
ENDBRANCH   6  16
TORSDOF 9
ENDMDL
MODEL      334
REMARK 921   NORMALIZED FREE ENERGY PREDICTED BY IDOCK:    6.56 KCAL/MOL
REMARK 922        TOTAL FREE ENERGY PREDICTED BY IDOCK:    8.08 KCAL/MOL
REMARK 923 INTER-LIGAND FREE ENERGY PREDICTED BY IDOCK:    5.61 KCAL/MOL
REMARK 924 INTRA-LIGAND FREE ENERGY PREDICTED BY IDOCK:    2.47 KCAL/MOL
REMARK 927      BINDING AFFINITY PREDICTED BY RF-SCORE:    0.00 PKD
ROOT
HETATM    1  O   UNL     1      -7.437  14.061  73.072  1.00  0.00     3.099 OA 
HETATM    2  C   UNL     1      -6.643  14.515  71.980  1.00  0.00     1.433 C  
HETATM    3  H   UNL     1      -7.198  14.493  73.884  1.00  0.00     0.000 HD 
HETATM    4  C   UNL     2     -10.586  20.033  66.683  1.00  0.00    -0.461 C  
HETATM    5  C   UNL     1      -7.034  13.809  70.649  1.00  0.00     1.062 C  
HETATM    6  C   UNL     2     -10.761  18.525  66.601  1.00  0.00    -0.278 C  
HETATM    7  C   UNL     1      -8.551  14.023  70.387  1.00  0.00     2.904 C  
HETATM    8  N   UNL     1      -6.240  14.478  69.572  1.00  0.00    -0.111 NA 
HETATM    9  C   UNL     1      -6.627  12.346  70.557  1.00  0.00     0.954 C  
HETATM   10  H   UNL     1      -4.944  11.373  70.345  1.00  0.00     0.000 HD 
HETATM   11  H   UNL     1      -9.791  15.550  70.187  1.00  0.00     0.000 HD 
HETATM   12  H2  UNL     1      -5.235  14.480  69.750  1.00  0.00     0.000 HD 
HETATM   13  O   UNL     1      -8.865  15.419  70.347  1.00  0.00     0.486 OA 
HETATM   14  O   UNL     1      -5.199  12.286  70.403  1.00  0.00    -0.091 OA 
HETATM   15  H1  UNL     1      -6.496  14.015  68.700  1.00  0.00     0.000 HD 
ENDROOT
BRANCH   6  16
HETATM   16  C   UNL     2      -9.449  17.746  66.710  1.00  0.00    -0.289 C  
BRANCH  16  17
HETATM   17  C   UNL     2      -9.193  16.743  65.581  1.00  0.00     0.203 C  
BRANCH  17  18
HETATM   18  C   UNL     2     -10.457  16.027  65.051  1.00  0.00    -0.250 C  
HETATM   19  C   UNL     2     -11.267  15.144  66.027  1.00  0.00    -0.275 C  
HETATM   20  C   UNL     2     -12.599  14.625  65.465  1.00  0.00    -0.106 C  
HETATM   21  O   UNL     2     -11.591  15.956  67.161  1.00  0.00     0.049 OA 
HETATM   22  C   UNL     2     -10.431  13.986  66.495  1.00  0.00    -0.281 C  
HETATM   23  H   UNL     2     -12.088  15.414  67.761  1.00  0.00     0.000 HD 
HETATM   24  C   UNL     2     -10.080  12.894  65.795  1.00  0.00    -0.294 C  
BRANCH  24  25
HETATM   25  C   UNL     2      -9.209  11.769  66.307  1.00  0.00    -0.227 C  
HETATM   26  C   UNL     2      -7.682  11.977  66.171  1.00  0.00     0.595 C  
HETATM   27  C   UNL     2      -7.132  10.854  67.017  1.00  0.00    -0.109 C  
HETATM   28  O   UNL     2      -7.180  13.176  66.753  1.00  0.00    -0.303 OA 
HETATM   29  H   UNL     2      -6.242  13.303  66.670  1.00  0.00     0.000 HD 
HETATM   30  C   UNL     2      -8.025  10.870  68.257  1.00  0.00    -0.121 C  
HETATM   31  C   UNL     2      -9.416  11.390  67.805  1.00  0.00    -0.167 C  
HETATM   32  O   UNL     2      -8.022   9.562  68.806  1.00  0.00    -0.086 OA 
HETATM   33  H   UNL     2      -8.578   9.571  69.577  1.00  0.00     0.000 HD 
BRANCH  31  34
HETATM   34  C   UNL     2     -10.591  10.412  68.029  1.00  0.00    -0.259 C  
BRANCH  34  35
HETATM   35  C   UNL     2     -10.370   9.437  69.163  1.00  0.00    -0.221 C  
HETATM   36  C   UNL     2     -10.100   8.124  69.097  1.00  0.00    -0.204 C  
BRANCH  36  37
HETATM   37  C   UNL     2      -9.944   7.280  67.865  1.00  0.00    -0.192 C  
BRANCH  37  38
HETATM   38  C   UNL     2     -10.664   5.933  67.959  1.00  0.00    -0.332 C  
BRANCH  38  39
HETATM   39  C   UNL     2      -9.757   4.719  67.826  1.00  0.00    -0.202 C  
HETATM   40  C   UNL     2      -8.715   4.717  66.707  1.00  0.00    -0.111 C  
HETATM   41  O   UNL     2      -8.360   3.566  66.327  1.00  0.00    -0.099 OA 
HETATM   42  O   UNL     2      -8.237   5.820  66.286  1.00  0.00    -0.105 OA 
ENDBRANCH  38  39
ENDBRANCH  37  38
ENDBRANCH  36  37
ENDBRANCH  34  35
ENDBRANCH  31  34
ENDBRANCH  24  25
ENDBRANCH  17  18
ENDBRANCH  16  17
ENDBRANCH   6  16
TORSDOF 9
ENDMDL
MODEL      335
REMARK 921   NORMALIZED FREE ENERGY PREDICTED BY IDOCK:    6.71 KCAL/MOL
REMARK 922        TOTAL FREE ENERGY PREDICTED BY IDOCK:    8.32 KCAL/MOL
REMARK 923 INTER-LIGAND FREE ENERGY PREDICTED BY IDOCK:    5.37 KCAL/MOL
REMARK 924 INTRA-LIGAND FREE ENERGY PREDICTED BY IDOCK:    2.95 KCAL/MOL
REMARK 927      BINDING AFFINITY PREDICTED BY RF-SCORE:    0.00 PKD
ROOT
HETATM    1  O   UNL     1      -8.574   8.017  68.176  1.00  0.00    -0.126 OA 
HETATM    2  C   UNL     1      -8.241   8.634  69.415  1.00  0.00    -0.113 C  
HETATM    3  H   UNL     1      -9.156   7.276  68.297  1.00  0.00     0.000 HD 
HETATM    4  C   UNL     2     -12.380  16.007  71.018  1.00  0.00    -0.273 C  
HETATM    5  C   UNL     1      -7.288   9.849  69.217  1.00  0.00    -0.084 C  
HETATM    6  C   UNL     2     -11.142  15.916  70.138  1.00  0.00    -0.369 C  
HETATM    7  C   UNL     1      -7.945  10.854  68.231  1.00  0.00    -0.121 C  
HETATM    8  N   UNL     1      -7.142  10.488  70.562  1.00  0.00    -0.464 NA 
HETATM    9  C   UNL     1      -5.865   9.488  68.821  1.00  0.00    -0.039 C  
HETATM   10  H   UNL     1      -4.324   8.680  69.717  1.00  0.00     0.000 HD 
HETATM   11  H   UNL     1      -9.627  11.886  68.111  1.00  0.00     0.000 HD 
HETATM   12  H2  UNL     1      -6.830   9.842  71.288  1.00  0.00     0.000 HD 
HETATM   13  O   UNL     1      -9.226  11.271  68.713  1.00  0.00    -0.182 OA 
HETATM   14  O   UNL     1      -5.214   8.906  69.964  1.00  0.00    -0.028 OA 
HETATM   15  H1  UNL     1      -6.517  11.284  70.433  1.00  0.00     0.000 HD 
ENDROOT
BRANCH   6  16
HETATM   16  C   UNL     2     -10.029  15.049  70.730  1.00  0.00     0.844 C  
BRANCH  16  17
HETATM   17  C   UNL     2      -9.654  13.819  69.898  1.00  0.00     1.697 C  
BRANCH  17  18
HETATM   18  C   UNL     2      -8.136  13.623  69.677  1.00  0.00     1.059 C  
HETATM   19  C   UNL     2      -7.154  14.455  70.533  1.00  0.00     0.553 C  
HETATM   20  C   UNL     2      -5.678  14.061  70.376  1.00  0.00    -0.147 C  
HETATM   21  O   UNL     2      -7.493  14.227  71.906  1.00  0.00     1.946 OA 
HETATM   22  C   UNL     2      -7.320  15.919  70.238  1.00  0.00     0.827 C  
HETATM   23  H   UNL     2      -6.891  14.739  72.432  1.00  0.00     0.000 HD 
HETATM   24  C   UNL     2      -6.927  16.582  69.137  1.00  0.00    -0.225 C  
BRANCH  24  25
HETATM   25  C   UNL     2      -7.148  18.055  68.878  1.00  0.00    -0.268 C  
HETATM   26  C   UNL     2      -7.521  18.913  70.109  1.00  0.00     1.041 C  
HETATM   27  C   UNL     2      -7.376  20.317  69.574  1.00  0.00     0.225 C  
HETATM   28  O   UNL     2      -6.615  18.826  71.205  1.00  0.00     1.206 OA 
HETATM   29  H   UNL     2      -6.844  19.353  71.962  1.00  0.00     0.000 HD 
HETATM   30  C   UNL     2      -6.081  20.260  68.765  1.00  0.00    -0.307 C  
HETATM   31  C   UNL     2      -5.946  18.809  68.231  1.00  0.00    -0.214 C  
HETATM   32  O   UNL     2      -6.152  21.265  67.766  1.00  0.00    -0.343 OA 
HETATM   33  H   UNL     2      -5.347  21.228  67.263  1.00  0.00     0.000 HD 
BRANCH  31  34
HETATM   34  C   UNL     2      -5.900  18.674  66.692  1.00  0.00    -0.172 C  
BRANCH  34  35
HETATM   35  C   UNL     2      -6.831  17.619  66.140  1.00  0.00    -0.328 C  
HETATM   36  C   UNL     2      -8.170  17.643  66.061  1.00  0.00    -0.126 C  
BRANCH  36  37
HETATM   37  C   UNL     2      -9.097  18.739  66.504  1.00  0.00    -0.325 C  
BRANCH  37  38
HETATM   38  C   UNL     2     -10.421  18.221  67.070  1.00  0.00    -0.407 C  
BRANCH  38  39
HETATM   39  C   UNL     2     -10.647  18.534  68.541  1.00  0.00    -0.054 C  
HETATM   40  C   UNL     2     -10.466  19.980  69.006  1.00  0.00     0.068 C  
HETATM   41  O   UNL     2     -10.172  20.102  70.228  1.00  0.00     0.195 OA 
HETATM   42  O   UNL     2     -10.676  20.937  68.192  1.00  0.00     0.420 OA 
ENDBRANCH  38  39
ENDBRANCH  37  38
ENDBRANCH  36  37
ENDBRANCH  34  35
ENDBRANCH  31  34
ENDBRANCH  24  25
ENDBRANCH  17  18
ENDBRANCH  16  17
ENDBRANCH   6  16
TORSDOF 9
ENDMDL
MODEL      336
REMARK 921   NORMALIZED FREE ENERGY PREDICTED BY IDOCK:    6.74 KCAL/MOL
REMARK 922        TOTAL FREE ENERGY PREDICTED BY IDOCK:    8.35 KCAL/MOL
REMARK 923 INTER-LIGAND FREE ENERGY PREDICTED BY IDOCK:   -2.06 KCAL/MOL
REMARK 924 INTRA-LIGAND FREE ENERGY PREDICTED BY IDOCK:   10.41 KCAL/MOL
REMARK 927      BINDING AFFINITY PREDICTED BY RF-SCORE:    0.00 PKD
ROOT
HETATM    1  O   UNL     1     -12.361  14.845  69.828  1.00  0.00    -0.440 OA 
HETATM    2  C   UNL     1     -11.880  14.971  68.493  1.00  0.00    -0.291 C  
HETATM    3  H   UNL     1     -13.185  14.373  69.862  1.00  0.00     0.000 HD 
HETATM    4  C   UNL     2      -5.444   9.641  66.440  1.00  0.00    -0.045 C  
HETATM    5  C   UNL     1     -10.530  15.743  68.437  1.00  0.00    -0.245 C  
HETATM    6  C   UNL     2      -5.240  10.949  67.187  1.00  0.00    -0.046 C  
HETATM    7  C   UNL     1      -9.499  15.030  69.355  1.00  0.00    -0.127 C  
HETATM    8  N   UNL     1     -10.068  15.673  67.015  1.00  0.00    -0.248 NA 
HETATM    9  C   UNL     1     -10.631  17.234  68.721  1.00  0.00    -0.305 C  
HETATM   10  H   UNL     1     -11.333  18.794  67.773  1.00  0.00     0.000 HD 
HETATM   11  H   UNL     1      -8.704  13.228  69.525  1.00  0.00     0.000 HD 
HETATM   12  H2  UNL     1     -10.758  16.015  66.346  1.00  0.00     0.000 HD 
HETATM   13  O   UNL     1      -9.334  13.664  68.964  1.00  0.00     0.074 OA 
HETATM   14  O   UNL     1     -11.270  17.863  67.596  1.00  0.00    -0.074 OA 
HETATM   15  H1  UNL     1      -9.183  16.179  66.978  1.00  0.00     0.000 HD 
ENDROOT
BRANCH   6  16
HETATM   16  C   UNL     2      -6.018  12.125  66.593  1.00  0.00     0.303 C  
BRANCH  16  17
HETATM   17  C   UNL     2      -6.627  13.086  67.618  1.00  0.00    -0.160 C  
BRANCH  17  18
HETATM   18  C   UNL     2      -6.804  12.494  69.036  1.00  0.00    -0.089 C  
HETATM   19  C   UNL     2      -6.466  11.002  69.259  1.00  0.00    -0.079 C  
HETATM   20  C   UNL     2      -6.494  10.553  70.727  1.00  0.00     0.094 C  
HETATM   21  O   UNL     2      -5.126  10.800  68.796  1.00  0.00    -0.042 OA 
HETATM   22  C   UNL     2      -7.386  10.135  68.448  1.00  0.00    -0.081 C  
HETATM   23  H   UNL     2      -4.919   9.883  68.933  1.00  0.00     0.000 HD 
HETATM   24  C   UNL     2      -8.685   9.878  68.680  1.00  0.00    -0.124 C  
BRANCH  24  25
HETATM   25  C   UNL     2      -9.575   9.019  67.810  1.00  0.00    -0.178 C  
HETATM   26  C   UNL     2      -8.852   8.072  66.824  1.00  0.00    -0.140 C  
HETATM   27  C   UNL     2      -9.978   7.184  66.352  1.00  0.00    -0.081 C  
HETATM   28  O   UNL     2      -7.897   7.196  67.415  1.00  0.00    -0.108 OA 
HETATM   29  H   UNL     2      -7.452   6.615  66.809  1.00  0.00     0.000 HD 
HETATM   30  C   UNL     2     -10.750   6.874  67.634  1.00  0.00    -0.274 C  
HETATM   31  C   UNL     2     -10.569   8.093  68.577  1.00  0.00    -0.142 C  
HETATM   32  O   UNL     2     -12.091   6.589  67.271  1.00  0.00     0.288 OA 
HETATM   33  H   UNL     2     -12.571   6.396  68.068  1.00  0.00     0.000 HD 
BRANCH  31  34
HETATM   34  C   UNL     2     -11.875   8.810  68.987  1.00  0.00     1.501 C  
BRANCH  34  35
HETATM   35  C   UNL     2     -12.349   8.470  70.382  1.00  0.00     0.465 C  
HETATM   36  C   UNL     2     -12.797   9.298  71.338  1.00  0.00    -0.398 C  
BRANCH  36  37
HETATM   37  C   UNL     2     -12.945  10.790  71.265  1.00  0.00    -0.502 C  
BRANCH  37  38
HETATM   38  C   UNL     2     -13.495  11.409  72.552  1.00  0.00     0.543 C  
BRANCH  38  39
HETATM   39  C   UNL     2     -14.010  12.832  72.403  1.00  0.00    -0.236 C  
HETATM   40  C   UNL     2     -13.021  13.914  71.967  1.00  0.00    -0.349 C  
HETATM   41  O   UNL     2     -13.333  15.083  72.331  1.00  0.00    -0.344 OA 
HETATM   42  O   UNL     2     -12.021  13.602  71.243  1.00  0.00    -0.176 OA 
ENDBRANCH  38  39
ENDBRANCH  37  38
ENDBRANCH  36  37
ENDBRANCH  34  35
ENDBRANCH  31  34
ENDBRANCH  24  25
ENDBRANCH  17  18
ENDBRANCH  16  17
ENDBRANCH   6  16
TORSDOF 9
ENDMDL
MODEL      337
REMARK 921   NORMALIZED FREE ENERGY PREDICTED BY IDOCK:    6.87 KCAL/MOL
REMARK 922        TOTAL FREE ENERGY PREDICTED BY IDOCK:    8.57 KCAL/MOL
REMARK 923 INTER-LIGAND FREE ENERGY PREDICTED BY IDOCK:    3.94 KCAL/MOL
REMARK 924 INTRA-LIGAND FREE ENERGY PREDICTED BY IDOCK:    4.63 KCAL/MOL
REMARK 927      BINDING AFFINITY PREDICTED BY RF-SCORE:    0.00 PKD
ROOT
HETATM    1  O   UNL     1      -7.224   7.382  63.449  1.00  0.00    -0.069 OA 
HETATM    2  C   UNL     1      -8.230   6.946  64.357  1.00  0.00     0.022 C  
HETATM    3  H   UNL     1      -7.250   8.323  63.320  1.00  0.00     0.000 HD 
HETATM    4  C   UNL     2      -5.400   5.064  72.263  1.00  0.00    -0.008 C  
HETATM    5  C   UNL     1      -8.187   5.404  64.568  1.00  0.00    -0.133 C  
HETATM    6  C   UNL     2      -5.310   4.100  71.091  1.00  0.00    -0.004 C  
HETATM    7  C   UNL     1      -6.765   4.996  65.044  1.00  0.00    -0.048 C  
HETATM    8  N   UNL     1      -9.182   5.103  65.645  1.00  0.00    -0.157 NA 
HETATM    9  C   UNL     1      -8.664   4.582  63.382  1.00  0.00    -0.131 C  
HETATM   10  H   UNL     1     -10.389   4.217  62.535  1.00  0.00     0.000 HD 
HETATM   11  H   UNL     1      -5.544   5.447  66.532  1.00  0.00     0.000 HD 
HETATM   12  H2  UNL     1     -10.117   5.459  65.446  1.00  0.00     0.000 HD 
HETATM   13  O   UNL     1      -6.412   5.696  66.241  1.00  0.00    -0.041 OA 
HETATM   14  O   UNL     1     -10.091   4.731  63.276  1.00  0.00     0.268 OA 
HETATM   15  H1  UNL     1      -9.154   4.093  65.784  1.00  0.00     0.000 HD 
ENDROOT
BRANCH   6  16
HETATM   16  C   UNL     2      -6.592   4.021  70.260  1.00  0.00    -0.032 C  
BRANCH  16  17
HETATM   17  C   UNL     2      -7.365   5.337  70.133  1.00  0.00    -0.067 C  
BRANCH  17  18
HETATM   18  C   UNL     2      -6.694   6.552  70.813  1.00  0.00    -0.058 C  
HETATM   19  C   UNL     2      -7.435   7.909  70.793  1.00  0.00    -0.072 C  
HETATM   20  C   UNL     2      -6.782   9.006  71.647  1.00  0.00    -0.033 C  
HETATM   21  O   UNL     2      -8.739   7.686  71.342  1.00  0.00    -0.121 OA 
HETATM   22  C   UNL     2      -7.590   8.395  69.379  1.00  0.00    -0.091 C  
HETATM   23  H   UNL     2      -9.194   8.519  71.329  1.00  0.00     0.000 HD 
HETATM   24  C   UNL     2      -6.637   8.900  68.579  1.00  0.00    -0.059 C  
BRANCH  24  25
HETATM   25  C   UNL     2      -6.843   9.347  67.149  1.00  0.00    -0.084 C  
HETATM   26  C   UNL     2      -7.703   8.416  66.263  1.00  0.00    -0.094 C  
HETATM   27  C   UNL     2      -7.948   9.273  65.045  1.00  0.00    -0.118 C  
HETATM   28  O   UNL     2      -8.994   8.109  66.781  1.00  0.00    -0.133 OA 
HETATM   29  H   UNL     2      -9.522   7.538  66.237  1.00  0.00     0.000 HD 
HETATM   30  C   UNL     2      -8.265  10.648  65.633  1.00  0.00    -0.154 C  
HETATM   31  C   UNL     2      -7.491  10.755  66.973  1.00  0.00    -0.114 C  
HETATM   32  O   UNL     2      -7.921  11.622  64.660  1.00  0.00     0.497 OA 
HETATM   33  H   UNL     2      -8.117  12.477  65.026  1.00  0.00     0.000 HD 
BRANCH  31  34
HETATM   34  C   UNL     2      -6.468  11.911  67.054  1.00  0.00    -0.136 C  
BRANCH  34  35
HETATM   35  C   UNL     2      -6.925  13.077  67.900  1.00  0.00    -0.127 C  
HETATM   36  C   UNL     2      -7.491  14.228  67.503  1.00  0.00    -0.201 C  
BRANCH  36  37
HETATM   37  C   UNL     2      -7.820  14.653  66.101  1.00  0.00     1.958 C  
BRANCH  37  38
HETATM   38  C   UNL     2      -9.302  14.976  65.898  1.00  0.00    -0.249 C  
BRANCH  38  39
HETATM   39  C   UNL     2     -10.158  13.790  65.480  1.00  0.00    -0.303 C  
HETATM   40  C   UNL     2     -10.823  13.831  64.103  1.00  0.00    -0.082 C  
HETATM   41  O   UNL     2     -11.866  13.126  64.007  1.00  0.00    -0.399 OA 
HETATM   42  O   UNL     2     -10.280  14.490  63.158  1.00  0.00     4.514 OA 
ENDBRANCH  38  39
ENDBRANCH  37  38
ENDBRANCH  36  37
ENDBRANCH  34  35
ENDBRANCH  31  34
ENDBRANCH  24  25
ENDBRANCH  17  18
ENDBRANCH  16  17
ENDBRANCH   6  16
TORSDOF 9
ENDMDL
MODEL      338
REMARK 921   NORMALIZED FREE ENERGY PREDICTED BY IDOCK:    6.98 KCAL/MOL
REMARK 922        TOTAL FREE ENERGY PREDICTED BY IDOCK:    8.73 KCAL/MOL
REMARK 923 INTER-LIGAND FREE ENERGY PREDICTED BY IDOCK:    3.63 KCAL/MOL
REMARK 924 INTRA-LIGAND FREE ENERGY PREDICTED BY IDOCK:    5.10 KCAL/MOL
REMARK 927      BINDING AFFINITY PREDICTED BY RF-SCORE:    0.00 PKD
ROOT
HETATM    1  O   UNL     1     -11.544  11.739  66.087  1.00  0.00    -0.418 OA 
HETATM    2  C   UNL     1     -10.939  12.761  65.301  1.00  0.00    -0.284 C  
HETATM    3  H   UNL     1     -11.020  10.947  66.099  1.00  0.00     0.000 HD 
HETATM    4  C   UNL     2      -7.083  18.993  69.811  1.00  0.00     0.092 C  
HETATM    5  C   UNL     1     -11.798  14.059  65.282  1.00  0.00    -0.359 C  
HETATM    6  C   UNL     2      -8.580  18.957  69.545  1.00  0.00     0.427 C  
HETATM    7  C   UNL     1     -12.045  14.527  66.743  1.00  0.00    -0.288 C  
HETATM    8  N   UNL     1     -10.985  15.086  64.557  1.00  0.00    -0.647 NA 
HETATM    9  C   UNL     1     -13.083  13.965  64.474  1.00  0.00     0.560 C  
HETATM   10  H   UNL     1     -13.538  13.875  62.574  1.00  0.00     0.000 HD 
HETATM   11  H   UNL     1     -10.954  15.019  68.317  1.00  0.00     0.000 HD 
HETATM   12  H2  UNL     1     -10.684  14.786  63.630  1.00  0.00     0.000 HD 
HETATM   13  O   UNL     1     -10.803  14.734  67.424  1.00  0.00    -0.285 OA 
HETATM   14  O   UNL     1     -12.736  13.933  63.079  1.00  0.00    -0.634 OA 
HETATM   15  H1  UNL     1     -11.548  15.937  64.545  1.00  0.00     0.000 HD 
ENDROOT
BRANCH   6  16
HETATM   16  C   UNL     2      -8.940  18.614  68.098  1.00  0.00    -0.335 C  
BRANCH  16  17
HETATM   17  C   UNL     2      -8.156  19.388  67.034  1.00  0.00    -0.290 C  
BRANCH  17  18
HETATM   18  C   UNL     2      -6.746  18.829  66.731  1.00  0.00    -0.208 C  
HETATM   19  C   UNL     2      -6.611  17.704  65.679  1.00  0.00    -0.011 C  
HETATM   20  C   UNL     2      -5.164  17.344  65.312  1.00  0.00     0.688 C  
HETATM   21  O   UNL     2      -7.232  18.174  64.477  1.00  0.00     1.774 OA 
HETATM   22  C   UNL     2      -7.337  16.472  66.140  1.00  0.00     0.171 C  
HETATM   23  H   UNL     2      -7.149  17.483  63.831  1.00  0.00     0.000 HD 
HETATM   24  C   UNL     2      -6.964  15.616  67.107  1.00  0.00    -0.169 C  
BRANCH  24  25
HETATM   25  C   UNL     2      -7.751  14.404  67.553  1.00  0.00    -0.210 C  
HETATM   26  C   UNL     2      -8.201  13.437  66.434  1.00  0.00     0.793 C  
HETATM   27  C   UNL     2      -8.673  12.238  67.220  1.00  0.00    -0.188 C  
HETATM   28  O   UNL     2      -7.156  12.955  65.593  1.00  0.00     2.617 OA 
HETATM   29  H   UNL     2      -7.432  12.361  64.906  1.00  0.00     0.000 HD 
HETATM   30  C   UNL     2      -7.603  12.073  68.298  1.00  0.00    -0.117 C  
HETATM   31  C   UNL     2      -7.037  13.488  68.593  1.00  0.00    -0.106 C  
HETATM   32  O   UNL     2      -8.205  11.423  69.407  1.00  0.00    -0.365 OA 
HETATM   33  H   UNL     2      -7.540  11.321  70.077  1.00  0.00     0.000 HD 
BRANCH  31  34
HETATM   34  C   UNL     2      -7.203  13.975  70.050  1.00  0.00     0.420 C  
BRANCH  34  35
HETATM   35  C   UNL     2      -6.976  15.458  70.231  1.00  0.00     0.185 C  
HETATM   36  C   UNL     2      -7.844  16.466  70.054  1.00  0.00     1.115 C  
BRANCH  36  37
HETATM   37  C   UNL     2      -9.281  16.375  69.628  1.00  0.00     0.246 C  
BRANCH  37  38
HETATM   38  C   UNL     2     -10.124  15.467  70.525  1.00  0.00     0.208 C  
BRANCH  38  39
HETATM   39  C   UNL     2     -11.627  15.638  70.368  1.00  0.00    -0.368 C  
HETATM   40  C   UNL     2     -12.542  14.598  71.017  1.00  0.00    -0.329 C  
HETATM   41  O   UNL     2     -13.675  14.485  70.470  1.00  0.00     0.037 OA 
HETATM   42  O   UNL     2     -12.155  13.980  72.062  1.00  0.00    -0.096 OA 
ENDBRANCH  38  39
ENDBRANCH  37  38
ENDBRANCH  36  37
ENDBRANCH  34  35
ENDBRANCH  31  34
ENDBRANCH  24  25
ENDBRANCH  17  18
ENDBRANCH  16  17
ENDBRANCH   6  16
TORSDOF 9
ENDMDL
MODEL      339
REMARK 921   NORMALIZED FREE ENERGY PREDICTED BY IDOCK:    7.13 KCAL/MOL
REMARK 922        TOTAL FREE ENERGY PREDICTED BY IDOCK:    8.96 KCAL/MOL
REMARK 923 INTER-LIGAND FREE ENERGY PREDICTED BY IDOCK:    1.74 KCAL/MOL
REMARK 924 INTRA-LIGAND FREE ENERGY PREDICTED BY IDOCK:    7.22 KCAL/MOL
REMARK 927      BINDING AFFINITY PREDICTED BY RF-SCORE:    0.00 PKD
ROOT
HETATM    1  O   UNL     1      -7.288   7.374  63.475  1.00  0.00    -0.074 OA 
HETATM    2  C   UNL     1      -8.264   6.713  64.273  1.00  0.00     0.028 C  
HETATM    3  H   UNL     1      -7.376   8.319  63.523  1.00  0.00     0.000 HD 
HETATM    4  C   UNL     2      -5.330   3.578  71.730  1.00  0.00    -0.004 C  
HETATM    5  C   UNL     1      -8.121   5.165  64.195  1.00  0.00    -0.119 C  
HETATM    6  C   UNL     2      -5.175   2.856  70.400  1.00  0.00    -0.004 C  
HETATM    7  C   UNL     1      -6.676   4.768  64.606  1.00  0.00    -0.044 C  
HETATM    8  N   UNL     1      -9.095   4.604  65.183  1.00  0.00    -0.152 NA 
HETATM    9  C   UNL     1      -8.541   4.548  62.869  1.00  0.00    -0.111 C  
HETATM   10  H   UNL     1     -10.236   4.237  61.945  1.00  0.00     0.000 HD 
HETATM   11  H   UNL     1      -5.489   5.010  66.169  1.00  0.00     0.000 HD 
HETATM   12  H2  UNL     1     -10.051   4.930  65.040  1.00  0.00     0.000 HD 
HETATM   13  O   UNL     1      -6.372   5.253  65.917  1.00  0.00    -0.033 OA 
HETATM   14  O   UNL     1      -9.973   4.622  62.773  1.00  0.00     0.014 OA 
HETATM   15  H1  UNL     1      -9.001   3.590  65.132  1.00  0.00     0.000 HD 
ENDROOT
BRANCH   6  16
HETATM   16  C   UNL     2      -6.448   2.851  69.551  1.00  0.00    -0.029 C  
BRANCH  16  17
HETATM   17  C   UNL     2      -7.339   4.085  69.712  1.00  0.00    -0.049 C  
BRANCH  17  18
HETATM   18  C   UNL     2      -6.616   5.344  70.244  1.00  0.00    -0.039 C  
HETATM   19  C   UNL     2      -7.471   6.564  70.659  1.00  0.00    -0.080 C  
HETATM   20  C   UNL     2      -6.685   7.691  71.345  1.00  0.00    -0.049 C  
HETATM   21  O   UNL     2      -8.434   6.100  71.611  1.00  0.00    -0.128 OA 
HETATM   22  C   UNL     2      -8.205   7.112  69.468  1.00  0.00    -0.132 C  
HETATM   23  H   UNL     2      -8.960   6.849  71.866  1.00  0.00     0.000 HD 
HETATM   24  C   UNL     2      -7.693   7.816  68.444  1.00  0.00    -0.119 C  
BRANCH  24  25
HETATM   25  C   UNL     2      -8.475   8.319  67.252  1.00  0.00    -0.124 C  
HETATM   26  C   UNL     2      -9.419   7.297  66.577  1.00  0.00    -0.163 C  
HETATM   27  C   UNL     2     -10.233   8.174  65.657  1.00  0.00     1.411 C  
HETATM   28  O   UNL     2     -10.362   6.677  67.447  1.00  0.00    -0.167 OA 
HETATM   29  H   UNL     2     -10.942   6.049  67.034  1.00  0.00     0.000 HD 
HETATM   30  C   UNL     2     -10.552   9.396  66.517  1.00  0.00    -0.054 C  
HETATM   31  C   UNL     2      -9.378   9.562  67.519  1.00  0.00    -0.146 C  
HETATM   32  O   UNL     2     -10.757  10.495  65.644  1.00  0.00    -0.125 OA 
HETATM   33  H   UNL     2     -10.955  11.255  66.179  1.00  0.00     0.000 HD 
BRANCH  31  34
HETATM   34  C   UNL     2      -8.614  10.902  67.423  1.00  0.00    -0.127 C  
BRANCH  34  35
HETATM   35  C   UNL     2      -7.197  10.839  67.946  1.00  0.00    -0.087 C  
HETATM   36  C   UNL     2      -6.766  10.960  69.211  1.00  0.00    -0.086 C  
BRANCH  36  37
HETATM   37  C   UNL     2      -7.591  11.189  70.445  1.00  0.00     1.712 C  
BRANCH  37  38
HETATM   38  C   UNL     2      -7.925   9.899  71.198  1.00  0.00     1.000 C  
BRANCH  38  39
HETATM   39  C   UNL     2      -9.029   9.065  70.567  1.00  0.00    -0.249 C  
HETATM   40  C   UNL     2     -10.377   8.990  71.287  1.00  0.00    -0.313 C  
HETATM   41  O   UNL     2     -11.048   7.951  71.032  1.00  0.00    -0.242 OA 
HETATM   42  O   UNL     2     -10.757   9.962  72.018  1.00  0.00     0.629 OA 
ENDBRANCH  38  39
ENDBRANCH  37  38
ENDBRANCH  36  37
ENDBRANCH  34  35
ENDBRANCH  31  34
ENDBRANCH  24  25
ENDBRANCH  17  18
ENDBRANCH  16  17
ENDBRANCH   6  16
TORSDOF 9
ENDMDL
MODEL      340
REMARK 921   NORMALIZED FREE ENERGY PREDICTED BY IDOCK:    7.87 KCAL/MOL
REMARK 922        TOTAL FREE ENERGY PREDICTED BY IDOCK:   10.08 KCAL/MOL
REMARK 923 INTER-LIGAND FREE ENERGY PREDICTED BY IDOCK:   11.18 KCAL/MOL
REMARK 924 INTRA-LIGAND FREE ENERGY PREDICTED BY IDOCK:   -1.10 KCAL/MOL
REMARK 927      BINDING AFFINITY PREDICTED BY RF-SCORE:    0.00 PKD
ROOT
HETATM    1  O   UNL     1     -11.580  14.368  63.942  1.00  0.00    -0.625 OA 
HETATM    2  C   UNL     1     -10.514  13.428  63.849  1.00  0.00     0.202 C  
HETATM    3  H   UNL     1     -12.091  14.401  63.141  1.00  0.00     0.000 HD 
HETATM    4  C   UNL     2     -11.862   5.995  67.970  1.00  0.00     2.041 C  
HETATM    5  C   UNL     1      -9.678  13.373  65.160  1.00  0.00     0.065 C  
HETATM    6  C   UNL     2     -11.376   7.260  68.662  1.00  0.00     0.315 C  
HETATM    7  C   UNL     1     -10.623  13.055  66.352  1.00  0.00    -0.284 C  
HETATM    8  N   UNL     1      -8.699  12.255  64.984  1.00  0.00     0.402 NA 
HETATM    9  C   UNL     1      -8.806  14.592  65.416  1.00  0.00     1.728 C  
HETATM   10  H   UNL     1      -7.169  15.331  64.640  1.00  0.00     0.000 HD 
HETATM   11  H   UNL     1     -11.900  11.632  66.856  1.00  0.00     0.000 HD 
HETATM   12  H2  UNL     1      -8.128  12.343  64.143  1.00  0.00     0.000 HD 
HETATM   13  O   UNL     1     -11.323  11.827  66.128  1.00  0.00    -0.330 OA 
HETATM   14  O   UNL     1      -7.714  14.569  64.481  1.00  0.00     9.727 OA 
HETATM   15  H1  UNL     1      -8.151  12.218  65.843  1.00  0.00     0.000 HD 
ENDROOT
BRANCH   6  16
HETATM   16  C   UNL     2     -10.267   7.990  67.903  1.00  0.00    -0.267 C  
BRANCH  16  17
HETATM   17  C   UNL     2     -10.134   9.481  68.223  1.00  0.00    -0.210 C  
BRANCH  17  18
HETATM   18  C   UNL     2      -8.740  10.085  67.937  1.00  0.00    -0.125 C  
HETATM   19  C   UNL     2      -7.771   9.301  67.023  1.00  0.00    -0.095 C  
HETATM   20  C   UNL     2      -6.490  10.060  66.649  1.00  0.00    -0.072 C  
HETATM   21  O   UNL     2      -8.464   9.041  65.798  1.00  0.00    -0.127 OA 
HETATM   22  C   UNL     2      -7.412   7.985  67.655  1.00  0.00    -0.097 C  
HETATM   23  H   UNL     2      -7.870   8.558  65.237  1.00  0.00     0.000 HD 
HETATM   24  C   UNL     2      -6.597   7.776  68.703  1.00  0.00    -0.057 C  
BRANCH  24  25
HETATM   25  C   UNL     2      -6.294   6.429  69.320  1.00  0.00    -0.035 C  
HETATM   26  C   UNL     2      -5.578   6.454  70.690  1.00  0.00    -0.019 C  
HETATM   27  C   UNL     2      -5.697   5.018  71.138  1.00  0.00    -0.012 C  
HETATM   28  O   UNL     2      -6.225   7.225  71.698  1.00  0.00    -0.037 OA 
HETATM   29  H   UNL     2      -5.785   7.240  72.540  1.00  0.00     0.000 HD 
HETATM   30  C   UNL     2      -7.137   4.651  70.783  1.00  0.00    -0.041 C  
HETATM   31  C   UNL     2      -7.528   5.503  69.546  1.00  0.00    -0.070 C  
HETATM   32  O   UNL     2      -7.188   3.247  70.586  1.00  0.00    -0.033 OA 
HETATM   33  H   UNL     2      -8.083   3.019  70.365  1.00  0.00     0.000 HD 
BRANCH  31  34
HETATM   34  C   UNL     2      -7.924   4.697  68.288  1.00  0.00    -0.084 C  
BRANCH  34  35
HETATM   35  C   UNL     2      -6.775   4.434  67.341  1.00  0.00    -0.047 C  
HETATM   36  C   UNL     2      -6.650   3.458  66.428  1.00  0.00    -0.041 C  
BRANCH  36  37
HETATM   37  C   UNL     2      -7.631   2.367  66.110  1.00  0.00    -0.068 C  
BRANCH  37  38
HETATM   38  C   UNL     2      -7.612   1.946  64.639  1.00  0.00    -0.063 C  
BRANCH  38  39
HETATM   39  C   UNL     2      -8.972   1.963  63.957  1.00  0.00    -0.097 C  
HETATM   40  C   UNL     2      -9.356   3.201  63.146  1.00  0.00    -0.094 C  
HETATM   41  O   UNL     2     -10.600   3.388  63.037  1.00  0.00    -0.191 OA 
HETATM   42  O   UNL     2      -8.446   3.905  62.598  1.00  0.00    -0.080 OA 
ENDBRANCH  38  39
ENDBRANCH  37  38
ENDBRANCH  36  37
ENDBRANCH  34  35
ENDBRANCH  31  34
ENDBRANCH  24  25
ENDBRANCH  17  18
ENDBRANCH  16  17
ENDBRANCH   6  16
TORSDOF 9
ENDMDL
MODEL      341
REMARK 921   NORMALIZED FREE ENERGY PREDICTED BY IDOCK:    7.94 KCAL/MOL
REMARK 922        TOTAL FREE ENERGY PREDICTED BY IDOCK:   10.19 KCAL/MOL
REMARK 923 INTER-LIGAND FREE ENERGY PREDICTED BY IDOCK:   -0.86 KCAL/MOL
REMARK 924 INTRA-LIGAND FREE ENERGY PREDICTED BY IDOCK:   11.05 KCAL/MOL
REMARK 927      BINDING AFFINITY PREDICTED BY RF-SCORE:    0.00 PKD
ROOT
HETATM    1  O   UNL     1     -11.376  14.160  70.298  1.00  0.00    -0.455 OA 
HETATM    2  C   UNL     1     -11.139  13.952  68.909  1.00  0.00    -0.266 C  
HETATM    3  H   UNL     1     -12.254  13.898  70.548  1.00  0.00     0.000 HD 
HETATM    4  C   UNL     2      -6.358   7.044  67.045  1.00  0.00    -0.048 C  
HETATM    5  C   UNL     1      -9.699  14.380  68.499  1.00  0.00    -0.225 C  
HETATM    6  C   UNL     2      -5.768   8.379  67.475  1.00  0.00    -0.039 C  
HETATM    7  C   UNL     1      -8.672  13.615  69.379  1.00  0.00     0.891 C  
HETATM    8  N   UNL     1      -9.534  13.973  67.068  1.00  0.00    -0.240 NA 
HETATM    9  C   UNL     1      -9.456  15.881  68.488  1.00  0.00    -0.209 C  
HETATM   10  H   UNL     1     -10.007  17.380  67.360  1.00  0.00     0.000 HD 
HETATM   11  H   UNL     1      -8.224  11.734  69.790  1.00  0.00     0.000 HD 
HETATM   12  H2  UNL     1     -10.259  14.346  66.454  1.00  0.00     0.000 HD 
HETATM   13  O   UNL     1      -8.851  12.201  69.252  1.00  0.00     0.478 OA 
HETATM   14  O   UNL     1     -10.159  16.442  67.367  1.00  0.00    -0.251 OA 
HETATM   15  H1  UNL     1      -8.591  14.253  66.800  1.00  0.00     0.000 HD 
ENDROOT
BRANCH   6  16
HETATM   16  C   UNL     2      -6.400   9.584  66.777  1.00  0.00    -0.066 C  
BRANCH  16  17
HETATM   17  C   UNL     2      -6.912  10.682  67.714  1.00  0.00    -0.078 C  
BRANCH  17  18
HETATM   18  C   UNL     2      -7.194  10.219  69.163  1.00  0.00    -0.083 C  
HETATM   19  C   UNL     2      -6.605   8.869  69.632  1.00  0.00    -0.043 C  
HETATM   20  C   UNL     2      -6.779   8.583  71.130  1.00  0.00    -0.061 C  
HETATM   21  O   UNL     2      -5.195   8.916  69.386  1.00  0.00    -0.034 OA 
HETATM   22  C   UNL     2      -7.191   7.741  68.830  1.00  0.00    -0.081 C  
HETATM   23  H   UNL     2      -4.833   8.086  69.673  1.00  0.00     0.000 HD 
HETATM   24  C   UNL     2      -8.432   7.234  68.918  1.00  0.00    -0.126 C  
BRANCH  24  25
HETATM   25  C   UNL     2      -8.981   6.114  68.063  1.00  0.00    -0.113 C  
HETATM   26  C   UNL     2      -9.438   4.844  68.817  1.00  0.00    -0.145 C  
HETATM   27  C   UNL     2     -10.179   4.085  67.744  1.00  0.00     0.362 C  
HETATM   28  O   UNL     2     -10.389   5.065  69.855  1.00  0.00    -0.279 OA 
HETATM   29  H   UNL     2     -10.670   4.285  70.319  1.00  0.00     0.000 HD 
HETATM   30  C   UNL     2     -11.000   5.167  67.042  1.00  0.00     0.396 C  
HETATM   31  C   UNL     2     -10.201   6.491  67.167  1.00  0.00    -0.257 C  
HETATM   32  O   UNL     2     -11.239   4.732  65.713  1.00  0.00    -0.833 OA 
HETATM   33  H   UNL     2     -11.749   5.405  65.277  1.00  0.00     0.000 HD 
BRANCH  31  34
HETATM   34  C   UNL     2      -9.793   7.145  65.827  1.00  0.00     0.657 C  
BRANCH  34  35
HETATM   35  C   UNL     2     -10.102   8.623  65.746  1.00  0.00     0.409 C  
HETATM   36  C   UNL     2      -9.857   9.475  64.739  1.00  0.00     0.166 C  
BRANCH  36  37
HETATM   37  C   UNL     2      -9.208   9.173  63.418  1.00  0.00     0.369 C  
BRANCH  37  38
HETATM   38  C   UNL     2      -8.746  10.425  62.670  1.00  0.00    -0.236 C  
BRANCH  38  39
HETATM   39  C   UNL     2      -7.259  10.459  62.349  1.00  0.00    -0.161 C  
HETATM   40  C   UNL     2      -6.334   9.510  63.113  1.00  0.00    -0.102 C  
HETATM   41  O   UNL     2      -5.136   9.901  63.191  1.00  0.00    -0.074 OA 
HETATM   42  O   UNL     2      -6.787   8.403  63.551  1.00  0.00    -0.083 OA 
ENDBRANCH  38  39
ENDBRANCH  37  38
ENDBRANCH  36  37
ENDBRANCH  34  35
ENDBRANCH  31  34
ENDBRANCH  24  25
ENDBRANCH  17  18
ENDBRANCH  16  17
ENDBRANCH   6  16
TORSDOF 9
ENDMDL
MODEL      342
REMARK 921   NORMALIZED FREE ENERGY PREDICTED BY IDOCK:    8.49 KCAL/MOL
REMARK 922        TOTAL FREE ENERGY PREDICTED BY IDOCK:   11.03 KCAL/MOL
REMARK 923 INTER-LIGAND FREE ENERGY PREDICTED BY IDOCK:    5.01 KCAL/MOL
REMARK 924 INTRA-LIGAND FREE ENERGY PREDICTED BY IDOCK:    6.02 KCAL/MOL
REMARK 927      BINDING AFFINITY PREDICTED BY RF-SCORE:    0.00 PKD
ROOT
HETATM    1  O   UNL     1      -5.632   7.393  69.603  1.00  0.00    -0.022 OA 
HETATM    2  C   UNL     1      -6.527   7.521  70.703  1.00  0.00    -0.039 C  
HETATM    3  H   UNL     1      -5.673   6.527  69.215  1.00  0.00     0.000 HD 
HETATM    4  C   UNL     2     -13.727  11.923  69.021  1.00  0.00     6.248 C  
HETATM    5  C   UNL     1      -6.459   8.941  71.339  1.00  0.00    -0.076 C  
HETATM    6  C   UNL     2     -12.400  12.586  69.356  1.00  0.00     0.043 C  
HETATM    7  C   UNL     1      -6.741  10.003  70.241  1.00  0.00    -0.137 C  
HETATM    8  N   UNL     1      -7.542   8.987  72.371  1.00  0.00    -0.298 NA 
HETATM    9  C   UNL     1      -5.188   9.233  72.121  1.00  0.00    -0.074 C  
HETATM   10  H   UNL     1      -4.430   8.651  73.828  1.00  0.00     0.000 HD 
HETATM   11  H   UNL     1      -8.183  10.418  68.953  1.00  0.00     0.000 HD 
HETATM   12  H2  UNL     1      -7.483   8.233  73.056  1.00  0.00     0.000 HD 
HETATM   13  O   UNL     1      -8.011   9.769  69.624  1.00  0.00    -0.116 OA 
HETATM   14  O   UNL     1      -5.224   8.469  73.339  1.00  0.00    -0.050 OA 
HETATM   15  H1  UNL     1      -7.498   9.918  72.788  1.00  0.00     0.000 HD 
ENDROOT
BRANCH   6  16
HETATM   16  C   UNL     2     -11.673  11.945  70.539  1.00  0.00    -0.103 C  
BRANCH  16  17
HETATM   17  C   UNL     2     -12.289  12.231  71.911  1.00  0.00     0.458 C  
BRANCH  17  18
HETATM   18  C   UNL     2     -12.329  13.726  72.306  1.00  0.00     0.078 C  
HETATM   19  C   UNL     2     -12.532  14.777  71.190  1.00  0.00    -0.329 C  
HETATM   20  C   UNL     2     -12.744  16.211  71.695  1.00  0.00    -0.073 C  
HETATM   21  O   UNL     2     -13.722  14.413  70.481  1.00  0.00    -0.343 OA 
HETATM   22  C   UNL     2     -11.377  14.744  70.230  1.00  0.00    -0.277 C  
HETATM   23  H   UNL     2     -13.847  15.058  69.795  1.00  0.00     0.000 HD 
HETATM   24  C   UNL     2     -10.129  15.199  70.435  1.00  0.00     0.155 C  
BRANCH  24  25
HETATM   25  C   UNL     2      -8.993  15.113  69.441  1.00  0.00    -0.176 C  
HETATM   26  C   UNL     2      -7.576  15.367  70.006  1.00  0.00     0.154 C  
HETATM   27  C   UNL     2      -6.694  14.923  68.864  1.00  0.00    -0.100 C  
HETATM   28  O   UNL     2      -7.209  14.548  71.112  1.00  0.00     0.380 OA 
HETATM   29  H   UNL     2      -6.339  14.703  71.459  1.00  0.00     0.000 HD 
HETATM   30  C   UNL     2      -7.351  13.628  68.387  1.00  0.00    -0.118 C  
HETATM   31  C   UNL     2      -8.869  13.757  68.681  1.00  0.00    -0.047 C  
HETATM   32  O   UNL     2      -7.016  13.453  67.019  1.00  0.00    -0.406 OA 
HETATM   33  H   UNL     2      -7.424  12.648  66.723  1.00  0.00     0.000 HD 
BRANCH  31  34
HETATM   34  C   UNL     2      -9.791  13.667  67.443  1.00  0.00    -0.234 C  
BRANCH  34  35
HETATM   35  C   UNL     2     -11.159  14.274  67.651  1.00  0.00    -0.305 C  
HETATM   36  C   UNL     2     -11.600  15.488  67.288  1.00  0.00    -0.012 C  
BRANCH  36  37
HETATM   37  C   UNL     2     -10.838  16.566  66.572  1.00  0.00    -0.046 C  
BRANCH  37  38
HETATM   38  C   UNL     2      -9.759  16.022  65.632  1.00  0.00    -0.273 C  
BRANCH  38  39
HETATM   39  C   UNL     2      -8.704  17.039  65.223  1.00  0.00     1.839 C  
HETATM   40  C   UNL     2      -7.850  17.672  66.322  1.00  0.00    -0.273 C  
HETATM   41  O   UNL     2      -7.380  18.807  66.028  1.00  0.00    -0.257 OA 
HETATM   42  O   UNL     2      -7.617  17.025  67.394  1.00  0.00    -0.159 OA 
ENDBRANCH  38  39
ENDBRANCH  37  38
ENDBRANCH  36  37
ENDBRANCH  34  35
ENDBRANCH  31  34
ENDBRANCH  24  25
ENDBRANCH  17  18
ENDBRANCH  16  17
ENDBRANCH   6  16
TORSDOF 9
ENDMDL
MODEL      343
REMARK 921   NORMALIZED FREE ENERGY PREDICTED BY IDOCK:    9.20 KCAL/MOL
REMARK 922        TOTAL FREE ENERGY PREDICTED BY IDOCK:   12.12 KCAL/MOL
REMARK 923 INTER-LIGAND FREE ENERGY PREDICTED BY IDOCK:    5.36 KCAL/MOL
REMARK 924 INTRA-LIGAND FREE ENERGY PREDICTED BY IDOCK:    6.76 KCAL/MOL
REMARK 927      BINDING AFFINITY PREDICTED BY RF-SCORE:    0.00 PKD
ROOT
HETATM    1  O   UNL     1      -7.765  13.536  71.513  1.00  0.00     4.143 OA 
HETATM    2  C   UNL     1      -6.568  13.067  70.901  1.00  0.00     1.468 C  
HETATM    3  H   UNL     1      -7.742  14.475  71.656  1.00  0.00     0.000 HD 
HETATM    4  C   UNL     2      -7.246  11.309  62.504  1.00  0.00     0.319 C  
HETATM    5  C   UNL     1      -6.605  11.528  70.667  1.00  0.00     0.871 C  
HETATM    6  C   UNL     2      -7.678  10.345  63.599  1.00  0.00    -0.050 C  
HETATM    7  C   UNL     1      -7.861  11.173  69.825  1.00  0.00     0.503 C  
HETATM    8  N   UNL     1      -5.370  11.194  69.891  1.00  0.00    -0.049 NA 
HETATM    9  C   UNL     1      -6.490  10.686  71.928  1.00  0.00     1.940 C  
HETATM   10  H   UNL     1      -5.068  10.256  73.200  1.00  0.00     0.000 HD 
HETATM   11  H   UNL     1      -8.625  11.670  68.070  1.00  0.00     0.000 HD 
HETATM   12  H2  UNL     1      -4.510  11.516  70.337  1.00  0.00     0.000 HD 
HETATM   13  O   UNL     1      -7.858  11.888  68.585  1.00  0.00    -0.135 OA 
HETATM   14  O   UNL     1      -5.140  10.783  72.412  1.00  0.00    -0.304 OA 
HETATM   15  H1  UNL     1      -5.394  10.186  69.738  1.00  0.00     0.000 HD 
ENDROOT
BRANCH   6  16
HETATM   16  C   UNL     2      -6.668  10.218  64.740  1.00  0.00    -0.089 C  
BRANCH  16  17
HETATM   17  C   UNL     2      -6.049   8.827  64.907  1.00  0.00    -0.064 C  
BRANCH  17  18
HETATM   18  C   UNL     2      -7.045   7.717  65.314  1.00  0.00    -0.063 C  
HETATM   19  C   UNL     2      -8.461   7.734  64.691  1.00  0.00     0.068 C  
HETATM   20  C   UNL     2      -9.313   6.496  65.008  1.00  0.00     0.857 C  
HETATM   21  O   UNL     2      -8.295   7.762  63.269  1.00  0.00    -0.356 OA 
HETATM   22  C   UNL     2      -9.197   8.975  65.109  1.00  0.00    -0.159 C  
HETATM   23  H   UNL     2      -9.164   7.773  62.886  1.00  0.00     0.000 HD 
HETATM   24  C   UNL     2      -9.721   9.248  66.316  1.00  0.00    -0.340 C  
BRANCH  24  25
HETATM   25  C   UNL     2     -10.428  10.530  66.693  1.00  0.00    -0.290 C  
HETATM   26  C   UNL     2     -11.576  10.398  67.720  1.00  0.00     0.249 C  
HETATM   27  C   UNL     2     -11.847  11.837  68.082  1.00  0.00    -0.324 C  
HETATM   28  O   UNL     2     -11.225   9.755  68.942  1.00  0.00    -0.425 OA 
HETATM   29  H   UNL     2     -11.930   9.673  69.573  1.00  0.00     0.000 HD 
HETATM   30  C   UNL     2     -10.450  12.437  68.234  1.00  0.00    -0.225 C  
HETATM   31  C   UNL     2      -9.515  11.652  67.276  1.00  0.00    -0.173 C  
HETATM   32  O   UNL     2     -10.547  13.828  67.973  1.00  0.00    -0.242 OA 
HETATM   33  H   UNL     2      -9.678  14.201  68.067  1.00  0.00     0.000 HD 
BRANCH  31  34
HETATM   34  C   UNL     2      -8.822  12.502  66.187  1.00  0.00     0.154 C  
BRANCH  34  35
HETATM   35  C   UNL     2      -9.658  13.658  65.687  1.00  0.00    -0.026 C  
HETATM   36  C   UNL     2      -9.418  14.974  65.797  1.00  0.00    -0.260 C  
BRANCH  36  37
HETATM   37  C   UNL     2      -8.243  15.641  66.453  1.00  0.00    -0.133 C  
BRANCH  37  38
HETATM   38  C   UNL     2      -8.608  16.940  67.173  1.00  0.00    -0.217 C  
BRANCH  38  39
HETATM   39  C   UNL     2      -9.231  18.005  66.283  1.00  0.00    -0.203 C  
HETATM   40  C   UNL     2     -10.069  19.098  66.947  1.00  0.00    -0.373 C  
HETATM   41  O   UNL     2     -10.935  19.622  66.192  1.00  0.00    -0.365 OA 
HETATM   42  O   UNL     2      -9.817  19.448  68.146  1.00  0.00    -0.343 OA 
ENDBRANCH  38  39
ENDBRANCH  37  38
ENDBRANCH  36  37
ENDBRANCH  34  35
ENDBRANCH  31  34
ENDBRANCH  24  25
ENDBRANCH  17  18
ENDBRANCH  16  17
ENDBRANCH   6  16
TORSDOF 9
ENDMDL
MODEL      344
REMARK 921   NORMALIZED FREE ENERGY PREDICTED BY IDOCK:    9.49 KCAL/MOL
REMARK 922        TOTAL FREE ENERGY PREDICTED BY IDOCK:   12.55 KCAL/MOL
REMARK 923 INTER-LIGAND FREE ENERGY PREDICTED BY IDOCK:    3.68 KCAL/MOL
REMARK 924 INTRA-LIGAND FREE ENERGY PREDICTED BY IDOCK:    8.87 KCAL/MOL
REMARK 927      BINDING AFFINITY PREDICTED BY RF-SCORE:    0.00 PKD
ROOT
HETATM    1  O   UNL     1      -8.312   5.953  67.019  1.00  0.00    -0.105 OA 
HETATM    2  C   UNL     1      -7.642   7.110  66.527  1.00  0.00    -0.092 C  
HETATM    3  H   UNL     1      -8.281   5.905  67.968  1.00  0.00     0.000 HD 
HETATM    4  C   UNL     2     -12.826  13.500  64.007  1.00  0.00     0.210 C  
HETATM    5  C   UNL     1      -7.694   7.189  64.974  1.00  0.00    -0.115 C  
HETATM    6  C   UNL     2     -12.491  12.300  63.134  1.00  0.00    -0.324 C  
HETATM    7  C   UNL     1      -9.177   7.142  64.512  1.00  0.00     1.505 C  
HETATM    8  N   UNL     1      -7.095   8.510  64.603  1.00  0.00    -0.079 NA 
HETATM    9  C   UNL     1      -6.825   6.172  64.251  1.00  0.00    -0.042 C  
HETATM   10  H   UNL     1      -4.906   5.915  63.974  1.00  0.00     0.000 HD 
HETATM   11  H   UNL     1     -10.833   8.174  64.831  1.00  0.00     0.000 HD 
HETATM   12  H2  UNL     1      -6.160   8.653  64.985  1.00  0.00     0.000 HD 
HETATM   13  O   UNL     1      -9.927   8.203  65.113  1.00  0.00     1.235 OA 
HETATM   14  O   UNL     1      -5.449   6.551  64.426  1.00  0.00    -0.024 OA 
HETATM   15  H1  UNL     1      -7.129   8.562  63.585  1.00  0.00     0.000 HD 
ENDROOT
BRANCH   6  16
HETATM   16  C   UNL     2     -11.006  11.932  63.136  1.00  0.00    -0.281 C  
BRANCH  16  17
HETATM   17  C   UNL     2     -10.547  11.095  64.333  1.00  0.00    -0.411 C  
BRANCH  17  18
HETATM   18  C   UNL     2      -9.195  11.529  64.948  1.00  0.00    -0.006 C  
HETATM   19  C   UNL     2      -9.042  11.496  66.486  1.00  0.00    -0.194 C  
HETATM   20  C   UNL     2      -7.618  11.763  66.992  1.00  0.00    -0.147 C  
HETATM   21  O   UNL     2      -9.388  10.174  66.916  1.00  0.00    -0.154 OA 
HETATM   22  C   UNL     2      -9.996  12.468  67.123  1.00  0.00    -0.217 C  
HETATM   23  H   UNL     2      -9.294  10.154  67.861  1.00  0.00     0.000 HD 
HETATM   24  C   UNL     2      -9.907  13.808  67.140  1.00  0.00    -0.242 C  
BRANCH  24  25
HETATM   25  C   UNL     2     -10.914  14.743  67.771  1.00  0.00    -0.294 C  
HETATM   26  C   UNL     2     -12.120  15.141  66.889  1.00  0.00     0.276 C  
HETATM   27  C   UNL     2     -13.039  15.803  67.885  1.00  0.00     3.393 C  
HETATM   28  O   UNL     2     -12.862  14.050  66.350  1.00  0.00    -0.474 OA 
HETATM   29  H   UNL     2     -13.602  14.294  65.808  1.00  0.00     0.000 HD 
HETATM   30  C   UNL     2     -12.967  14.885  69.104  1.00  0.00     0.909 C  
HETATM   31  C   UNL     2     -11.557  14.237  69.099  1.00  0.00    -0.346 C  
HETATM   32  O   UNL     2     -13.266  15.666  70.251  1.00  0.00    -0.725 OA 
HETATM   33  H   UNL     2     -13.221  15.094  71.008  1.00  0.00     0.000 HD 
BRANCH  31  34
HETATM   34  C   UNL     2     -10.692  14.530  70.345  1.00  0.00     0.258 C  
BRANCH  34  35
HETATM   35  C   UNL     2     -10.912  15.904  70.937  1.00  0.00    -0.226 C  
HETATM   36  C   UNL     2     -10.480  17.091  70.482  1.00  0.00     0.901 C  
BRANCH  36  37
HETATM   37  C   UNL     2      -9.658  17.359  69.254  1.00  0.00     0.042 C  
BRANCH  37  38
HETATM   38  C   UNL     2     -10.494  17.466  67.977  1.00  0.00    -0.383 C  
BRANCH  38  39
HETATM   39  C   UNL     2     -10.160  16.432  66.913  1.00  0.00    -0.281 C  
HETATM   40  C   UNL     2     -10.122  16.888  65.453  1.00  0.00     0.072 C  
HETATM   41  O   UNL     2     -10.342  15.970  64.614  1.00  0.00    -0.414 OA 
HETATM   42  O   UNL     2      -9.823  18.095  65.175  1.00  0.00     0.461 OA 
ENDBRANCH  38  39
ENDBRANCH  37  38
ENDBRANCH  36  37
ENDBRANCH  34  35
ENDBRANCH  31  34
ENDBRANCH  24  25
ENDBRANCH  17  18
ENDBRANCH  16  17
ENDBRANCH   6  16
TORSDOF 9
ENDMDL
MODEL      345
REMARK 921   NORMALIZED FREE ENERGY PREDICTED BY IDOCK:    9.75 KCAL/MOL
REMARK 922        TOTAL FREE ENERGY PREDICTED BY IDOCK:   12.95 KCAL/MOL
REMARK 923 INTER-LIGAND FREE ENERGY PREDICTED BY IDOCK:   12.74 KCAL/MOL
REMARK 924 INTRA-LIGAND FREE ENERGY PREDICTED BY IDOCK:    0.21 KCAL/MOL
REMARK 927      BINDING AFFINITY PREDICTED BY RF-SCORE:    0.00 PKD
ROOT
HETATM    1  O   UNL     1      -9.262  20.339  72.072  1.00  0.00     0.912 OA 
HETATM    2  C   UNL     1     -10.124  19.323  71.569  1.00  0.00     3.162 C  
HETATM    3  H   UNL     1      -9.223  20.329  73.022  1.00  0.00     0.000 HD 
HETATM    4  C   UNL     2      -6.103  12.443  68.320  1.00  0.00    -0.055 C  
HETATM    5  C   UNL     1     -10.188  19.338  70.014  1.00  0.00     0.833 C  
HETATM    6  C   UNL     2      -6.317  13.733  67.542  1.00  0.00    -0.062 C  
HETATM    7  C   UNL     1      -8.748  19.205  69.446  1.00  0.00     0.174 C  
HETATM    8  N   UNL     1     -10.996  18.142  69.618  1.00  0.00     0.689 NA 
HETATM    9  C   UNL     1     -10.946  20.513  69.416  1.00  0.00     1.323 C  
HETATM   10  H   UNL     1     -12.822  21.055  69.299  1.00  0.00     0.000 HD 
HETATM   11  H   UNL     1      -7.242  17.932  69.582  1.00  0.00     0.000 HD 
HETATM   12  H2  UNL     1     -11.914  18.107  70.061  1.00  0.00     0.000 HD 
HETATM   13  O   UNL     1      -8.121  18.013  69.929  1.00  0.00     0.971 OA 
HETATM   14  O   UNL     1     -12.348  20.321  69.673  1.00  0.00     5.847 OA 
HETATM   15  H1  UNL     1     -11.038  18.152  68.599  1.00  0.00     0.000 HD 
ENDROOT
BRANCH   6  16
HETATM   16  C   UNL     2      -7.730  14.305  67.675  1.00  0.00    -0.190 C  
BRANCH  16  17
HETATM   17  C   UNL     2      -8.759  13.354  68.294  1.00  0.00    -0.172 C  
BRANCH  17  18
HETATM   18  C   UNL     2      -9.988  13.060  67.403  1.00  0.00    -0.228 C  
HETATM   19  C   UNL     2     -10.697  11.694  67.555  1.00  0.00    -0.215 C  
HETATM   20  C   UNL     2     -12.009  11.564  66.768  1.00  0.00     0.433 C  
HETATM   21  O   UNL     2     -11.034  11.546  68.939  1.00  0.00    -0.205 OA 
HETATM   22  C   UNL     2      -9.765  10.580  67.170  1.00  0.00    -0.202 C  
HETATM   23  H   UNL     2     -11.469  10.707  69.032  1.00  0.00     0.000 HD 
HETATM   24  C   UNL     2      -9.365  10.238  65.934  1.00  0.00    -0.226 C  
BRANCH  24  25
HETATM   25  C   UNL     2      -8.398   9.123  65.605  1.00  0.00    -0.131 C  
HETATM   26  C   UNL     2      -8.906   7.685  65.862  1.00  0.00    -0.130 C  
HETATM   27  C   UNL     2      -7.855   6.848  65.172  1.00  0.00    -0.120 C  
HETATM   28  O   UNL     2     -10.136   7.354  65.225  1.00  0.00     1.116 OA 
HETATM   29  H   UNL     2     -10.449   6.471  65.382  1.00  0.00     0.000 HD 
HETATM   30  C   UNL     2      -7.612   7.591  63.859  1.00  0.00    -0.114 C  
HETATM   31  C   UNL     2      -7.883   9.094  64.133  1.00  0.00    -0.128 C  
HETATM   32  O   UNL     2      -6.294   7.286  63.429  1.00  0.00    -0.051 OA 
HETATM   33  H   UNL     2      -6.143   7.748  62.613  1.00  0.00     0.000 HD 
BRANCH  31  34
HETATM   34  C   UNL     2      -6.683  10.036  63.889  1.00  0.00    -0.128 C  
BRANCH  34  35
HETATM   35  C   UNL     2      -5.407   9.595  64.570  1.00  0.00    -0.062 C  
HETATM   36  C   UNL     2      -5.126   9.565  65.882  1.00  0.00    -0.035 C  
BRANCH  36  37
HETATM   37  C   UNL     2      -6.018   9.965  67.022  1.00  0.00    -0.051 C  
BRANCH  37  38
HETATM   38  C   UNL     2      -6.405   8.794  67.928  1.00  0.00    -0.056 C  
BRANCH  38  39
HETATM   39  C   UNL     2      -5.462   8.559  69.098  1.00  0.00    -0.035 C  
HETATM   40  C   UNL     2      -6.045   7.986  70.390  1.00  0.00    -0.029 C  
HETATM   41  O   UNL     2      -5.388   8.271  71.430  1.00  0.00    -0.033 OA 
HETATM   42  O   UNL     2      -7.074   7.236  70.341  1.00  0.00    -0.062 OA 
ENDBRANCH  38  39
ENDBRANCH  37  38
ENDBRANCH  36  37
ENDBRANCH  34  35
ENDBRANCH  31  34
ENDBRANCH  24  25
ENDBRANCH  17  18
ENDBRANCH  16  17
ENDBRANCH   6  16
TORSDOF 9
ENDMDL
MODEL      346
REMARK 921   NORMALIZED FREE ENERGY PREDICTED BY IDOCK:    9.82 KCAL/MOL
REMARK 922        TOTAL FREE ENERGY PREDICTED BY IDOCK:   13.07 KCAL/MOL
REMARK 923 INTER-LIGAND FREE ENERGY PREDICTED BY IDOCK:    9.62 KCAL/MOL
REMARK 924 INTRA-LIGAND FREE ENERGY PREDICTED BY IDOCK:    3.45 KCAL/MOL
REMARK 927      BINDING AFFINITY PREDICTED BY RF-SCORE:    0.00 PKD
ROOT
HETATM    1  O   UNL     1      -6.700  17.198  65.557  1.00  0.00     0.252 OA 
HETATM    2  C   UNL     1      -6.242  16.481  66.699  1.00  0.00     0.102 C  
HETATM    3  H   UNL     1      -5.993  17.665  65.127  1.00  0.00     0.000 HD 
HETATM    4  C   UNL     2      -5.390   7.996  65.549  1.00  0.00    -0.029 C  
HETATM    5  C   UNL     1      -7.401  15.717  67.403  1.00  0.00    -0.204 C  
HETATM    6  C   UNL     2      -6.718   8.669  65.861  1.00  0.00    -0.061 C  
HETATM    7  C   UNL     1      -8.090  14.779  66.373  1.00  0.00     0.658 C  
HETATM    8  N   UNL     1      -6.766  14.896  68.481  1.00  0.00    -0.088 NA 
HETATM    9  C   UNL     1      -8.394  16.599  68.144  1.00  0.00    -0.193 C  
HETATM   10  H   UNL     1      -8.367  17.663  69.785  1.00  0.00     0.000 HD 
HETATM   11  H   UNL     1      -7.563  13.301  65.170  1.00  0.00     0.000 HD 
HETATM   12  H2  UNL     1      -6.192  15.443  69.123  1.00  0.00     0.000 HD 
HETATM   13  O   UNL     1      -7.142  13.874  65.799  1.00  0.00     4.409 OA 
HETATM   14  O   UNL     1      -7.747  17.111  69.322  1.00  0.00    -0.148 OA 
HETATM   15  H1  UNL     1      -7.525  14.395  68.942  1.00  0.00     0.000 HD 
ENDROOT
BRANCH   6  16
HETATM   16  C   UNL     2      -6.633   9.710  66.978  1.00  0.00    -0.067 C  
BRANCH  16  17
HETATM   17  C   UNL     2      -7.972  10.323  67.397  1.00  0.00    -0.107 C  
BRANCH  17  18
HETATM   18  C   UNL     2      -9.163   9.976  66.473  1.00  0.00    -0.182 C  
HETATM   19  C   UNL     2     -10.544  10.594  66.789  1.00  0.00    -0.237 C  
HETATM   20  C   UNL     2     -11.616  10.345  65.718  1.00  0.00     1.832 C  
HETATM   21  O   UNL     2     -10.365  12.013  66.864  1.00  0.00    -0.210 OA 
HETATM   22  C   UNL     2     -11.038  10.106  68.122  1.00  0.00    -0.290 C  
HETATM   23  H   UNL     2     -11.213  12.393  67.059  1.00  0.00     0.000 HD 
HETATM   24  C   UNL     2     -11.513   8.885  68.421  1.00  0.00     0.896 C  
BRANCH  24  25
HETATM   25  C   UNL     2     -11.970   8.437  69.791  1.00  0.00     0.897 C  
HETATM   26  C   UNL     2     -11.487   7.039  70.245  1.00  0.00    -0.287 C  
HETATM   27  C   UNL     2     -11.855   7.036  71.709  1.00  0.00    -0.347 C  
HETATM   28  O   UNL     2     -10.077   6.843  70.204  1.00  0.00    -0.181 OA 
HETATM   29  H   UNL     2      -9.780   5.985  70.483  1.00  0.00     0.000 HD 
HETATM   30  C   UNL     2     -11.441   8.427  72.185  1.00  0.00    -0.372 C  
HETATM   31  C   UNL     2     -11.582   9.381  70.969  1.00  0.00    -0.400 C  
HETATM   32  O   UNL     2     -12.247   8.757  73.305  1.00  0.00    -0.030 OA 
HETATM   33  H   UNL     2     -11.989   9.622  73.601  1.00  0.00     0.000 HD 
BRANCH  31  34
HETATM   34  C   UNL     2     -12.571  10.553  71.162  1.00  0.00    -0.520 C  
BRANCH  34  35
HETATM   35  C   UNL     2     -13.127  11.107  69.869  1.00  0.00     0.439 C  
HETATM   36  C   UNL     2     -12.605  12.051  69.071  1.00  0.00     0.688 C  
BRANCH  36  37
HETATM   37  C   UNL     2     -11.320  12.805  69.259  1.00  0.00    -0.307 C  
BRANCH  37  38
HETATM   38  C   UNL     2     -11.269  14.119  68.477  1.00  0.00    -0.285 C  
BRANCH  38  39
HETATM   39  C   UNL     2     -11.552  13.983  66.989  1.00  0.00    -0.394 C  
HETATM   40  C   UNL     2     -12.971  14.273  66.496  1.00  0.00     0.737 C  
HETATM   41  O   UNL     2     -13.278  13.690  65.419  1.00  0.00    -0.678 OA 
HETATM   42  O   UNL     2     -13.705  15.097  67.133  1.00  0.00     4.323 OA 
ENDBRANCH  38  39
ENDBRANCH  37  38
ENDBRANCH  36  37
ENDBRANCH  34  35
ENDBRANCH  31  34
ENDBRANCH  24  25
ENDBRANCH  17  18
ENDBRANCH  16  17
ENDBRANCH   6  16
TORSDOF 9
ENDMDL
MODEL      347
REMARK 921   NORMALIZED FREE ENERGY PREDICTED BY IDOCK:   11.64 KCAL/MOL
REMARK 922        TOTAL FREE ENERGY PREDICTED BY IDOCK:   15.83 KCAL/MOL
REMARK 923 INTER-LIGAND FREE ENERGY PREDICTED BY IDOCK:    8.42 KCAL/MOL
REMARK 924 INTRA-LIGAND FREE ENERGY PREDICTED BY IDOCK:    7.42 KCAL/MOL
REMARK 927      BINDING AFFINITY PREDICTED BY RF-SCORE:    0.00 PKD
ROOT
HETATM    1  O   UNL     1      -5.211   6.407  65.120  1.00  0.00    -0.013 OA 
HETATM    2  C   UNL     1      -6.465   6.621  65.760  1.00  0.00    -0.046 C  
HETATM    3  H   UNL     1      -4.609   5.926  65.677  1.00  0.00     0.000 HD 
HETATM    4  C   UNL     2     -12.828   1.488  63.075  1.00  0.00     4.810 C  
HETATM    5  C   UNL     1      -7.452   7.407  64.848  1.00  0.00    -0.087 C  
HETATM    6  C   UNL     2     -12.403   2.749  62.338  1.00  0.00     2.472 C  
HETATM    7  C   UNL     1      -7.614   6.647  63.503  1.00  0.00    -0.100 C  
HETATM    8  N   UNL     1      -8.761   7.431  65.573  1.00  0.00    -0.327 NA 
HETATM    9  C   UNL     1      -7.110   8.876  64.651  1.00  0.00    -0.088 C  
HETATM   10  H   UNL     1      -7.166  10.487  65.759  1.00  0.00     0.000 HD 
HETATM   11  H   UNL     1      -8.168   4.845  62.908  1.00  0.00     0.000 HD 
HETATM   12  H2  UNL     1      -8.696   7.808  66.518  1.00  0.00     0.000 HD 
HETATM   13  O   UNL     1      -8.069   5.309  63.730  1.00  0.00    -0.105 OA 
HETATM   14  O   UNL     1      -7.379   9.569  65.882  1.00  0.00    -0.094 OA 
HETATM   15  H1  UNL     1      -9.408   7.946  64.975  1.00  0.00     0.000 HD 
ENDROOT
BRANCH   6  16
HETATM   16  C   UNL     2     -12.182   3.953  63.256  1.00  0.00     3.636 C  
BRANCH  16  17
HETATM   17  C   UNL     2     -10.912   4.760  62.973  1.00  0.00     1.104 C  
BRANCH  17  18
HETATM   18  C   UNL     2      -9.677   4.339  63.803  1.00  0.00    -0.070 C  
HETATM   19  C   UNL     2      -9.907   3.644  65.165  1.00  0.00    -0.126 C  
HETATM   20  C   UNL     2      -8.633   3.099  65.827  1.00  0.00    -0.118 C  
HETATM   21  O   UNL     2     -10.757   2.517  64.924  1.00  0.00     0.267 OA 
HETATM   22  C   UNL     2     -10.609   4.576  66.111  1.00  0.00    -0.087 C  
HETATM   23  H   UNL     2     -10.899   2.090  65.761  1.00  0.00     0.000 HD 
HETATM   24  C   UNL     2     -10.093   5.645  66.741  1.00  0.00    -0.235 C  
BRANCH  24  25
HETATM   25  C   UNL     2     -10.855   6.570  67.662  1.00  0.00    -0.419 C  
HETATM   26  C   UNL     2     -11.588   5.898  68.846  1.00  0.00     0.785 C  
HETATM   27  C   UNL     2     -11.974   7.084  69.696  1.00  0.00     0.232 C  
HETATM   28  O   UNL     2     -10.771   5.081  69.679  1.00  0.00    -0.123 OA 
HETATM   29  H   UNL     2     -11.220   4.667  70.406  1.00  0.00     0.000 HD 
HETATM   30  C   UNL     2     -10.723   7.960  69.677  1.00  0.00    -0.218 C  
HETATM   31  C   UNL     2     -10.012   7.703  68.322  1.00  0.00    -0.198 C  
HETATM   32  O   UNL     2     -11.132   9.301  69.897  1.00  0.00    -0.277 OA 
HETATM   33  H   UNL     2     -10.354   9.845  69.886  1.00  0.00     0.000 HD 
BRANCH  31  34
HETATM   34  C   UNL     2      -9.847   8.946  67.418  1.00  0.00    -0.247 C  
BRANCH  34  35
HETATM   35  C   UNL     2     -11.080   9.816  67.340  1.00  0.00    -0.048 C  
HETATM   36  C   UNL     2     -11.170  11.151  67.437  1.00  0.00    -0.363 C  
BRANCH  36  37
HETATM   37  C   UNL     2     -10.054  12.134  67.649  1.00  0.00    -0.205 C  
BRANCH  37  38
HETATM   38  C   UNL     2     -10.112  13.332  66.700  1.00  0.00    -0.266 C  
BRANCH  38  39
HETATM   39  C   UNL     2     -10.805  14.560  67.271  1.00  0.00    -0.297 C  
HETATM   40  C   UNL     2     -10.880  15.815  66.400  1.00  0.00    -0.226 C  
HETATM   41  O   UNL     2     -10.987  16.894  67.047  1.00  0.00    -0.119 OA 
HETATM   42  O   UNL     2     -10.895  15.703  65.130  1.00  0.00    -0.390 OA 
ENDBRANCH  38  39
ENDBRANCH  37  38
ENDBRANCH  36  37
ENDBRANCH  34  35
ENDBRANCH  31  34
ENDBRANCH  24  25
ENDBRANCH  17  18
ENDBRANCH  16  17
ENDBRANCH   6  16
TORSDOF 9
ENDMDL
MODEL      348
REMARK 921   NORMALIZED FREE ENERGY PREDICTED BY IDOCK:   11.87 KCAL/MOL
REMARK 922        TOTAL FREE ENERGY PREDICTED BY IDOCK:   16.19 KCAL/MOL
REMARK 923 INTER-LIGAND FREE ENERGY PREDICTED BY IDOCK:   11.02 KCAL/MOL
REMARK 924 INTRA-LIGAND FREE ENERGY PREDICTED BY IDOCK:    5.17 KCAL/MOL
REMARK 927      BINDING AFFINITY PREDICTED BY RF-SCORE:    0.00 PKD
ROOT
HETATM    1  O   UNL     1      -6.699  17.191  65.545  1.00  0.00     0.252 OA 
HETATM    2  C   UNL     1      -6.182  16.477  66.664  1.00  0.00     0.102 C  
HETATM    3  H   UNL     1      -6.011  17.630  65.059  1.00  0.00     0.000 HD 
HETATM    4  C   UNL     2      -5.654   7.955  65.597  1.00  0.00    -0.036 C  
HETATM    5  C   UNL     1      -7.309  15.758  67.460  1.00  0.00    -0.178 C  
HETATM    6  C   UNL     2      -6.937   8.671  65.991  1.00  0.00    -0.079 C  
HETATM    7  C   UNL     1      -8.095  14.826  66.497  1.00  0.00     0.425 C  
HETATM    8  N   UNL     1      -6.622  14.934  68.505  1.00  0.00    -0.089 NA 
HETATM    9  C   UNL     1      -8.220  16.679  68.256  1.00  0.00    -0.200 C  
HETATM   10  H   UNL     1      -8.047  17.765  69.873  1.00  0.00     0.000 HD 
HETATM   11  H   UNL     1      -7.697  13.316  65.285  1.00  0.00     0.000 HD 
HETATM   12  H2  UNL     1      -5.989  15.473  69.096  1.00  0.00     0.000 HD 
HETATM   13  O   UNL     1      -7.216  13.885  65.873  1.00  0.00     3.350 OA 
HETATM   14  O   UNL     1      -7.477  17.189  69.376  1.00  0.00    -0.135 OA 
HETATM   15  H1  UNL     1      -7.360  14.462  69.026  1.00  0.00     0.000 HD 
ENDROOT
BRANCH   6  16
HETATM   16  C   UNL     2      -6.743   9.726  67.082  1.00  0.00    -0.075 C  
BRANCH  16  17
HETATM   17  C   UNL     2      -8.002  10.514  67.453  1.00  0.00    -0.110 C  
BRANCH  17  18
HETATM   18  C   UNL     2      -9.211  10.286  66.516  1.00  0.00    -0.179 C  
HETATM   19  C   UNL     2     -10.435  11.221  66.652  1.00  0.00    -0.247 C  
HETATM   20  C   UNL     2     -11.503  11.038  65.564  1.00  0.00     0.410 C  
HETATM   21  O   UNL     2      -9.955  12.564  66.532  1.00  0.00    -0.233 OA 
HETATM   22  C   UNL     2     -11.063  11.060  68.008  1.00  0.00    -0.343 C  
HETATM   23  H   UNL     2     -10.707  13.139  66.616  1.00  0.00     0.000 HD 
HETATM   24  C   UNL     2     -11.799  10.027  68.451  1.00  0.00     0.635 C  
BRANCH  24  25
HETATM   25  C   UNL     2     -12.383   9.902  69.841  1.00  0.00     0.210 C  
HETATM   26  C   UNL     2     -12.451   8.471  70.423  1.00  0.00     0.576 C  
HETATM   27  C   UNL     2     -12.786   8.732  71.871  1.00  0.00    -0.423 C  
HETATM   28  O   UNL     2     -11.215   7.763  70.438  1.00  0.00    -0.266 OA 
HETATM   29  H   UNL     2     -11.257   6.884  70.796  1.00  0.00     0.000 HD 
HETATM   30  C   UNL     2     -11.883   9.908  72.241  1.00  0.00     0.690 C  
HETATM   31  C   UNL     2     -11.666  10.735  70.946  1.00  0.00    -0.334 C  
HETATM   32  O   UNL     2     -12.503  10.610  73.307  1.00  0.00     2.814 OA 
HETATM   33  H   UNL     2     -11.941  11.340  73.536  1.00  0.00     0.000 HD 
BRANCH  31  34
HETATM   34  C   UNL     2     -12.148  12.202  71.012  1.00  0.00    -0.058 C  
BRANCH  34  35
HETATM   35  C   UNL     2     -12.320  12.854  69.659  1.00  0.00    -0.083 C  
HETATM   36  C   UNL     2     -11.390  13.435  68.886  1.00  0.00    -0.331 C  
BRANCH  36  37
HETATM   37  C   UNL     2      -9.923  13.586  69.170  1.00  0.00     0.251 C  
BRANCH  37  38
HETATM   38  C   UNL     2      -9.618  13.882  70.640  1.00  0.00     3.839 C  
BRANCH  38  39
HETATM   39  C   UNL     2     -10.329  15.104  71.201  1.00  0.00     0.635 C  
HETATM   40  C   UNL     2     -11.621  14.887  71.991  1.00  0.00    -0.232 C  
HETATM   41  O   UNL     2     -12.403  15.878  71.994  1.00  0.00    -0.410 OA 
HETATM   42  O   UNL     2     -11.798  13.795  72.624  1.00  0.00     0.875 OA 
ENDBRANCH  38  39
ENDBRANCH  37  38
ENDBRANCH  36  37
ENDBRANCH  34  35
ENDBRANCH  31  34
ENDBRANCH  24  25
ENDBRANCH  17  18
ENDBRANCH  16  17
ENDBRANCH   6  16
TORSDOF 9
ENDMDL
MODEL      349
REMARK 921   NORMALIZED FREE ENERGY PREDICTED BY IDOCK:   12.65 KCAL/MOL
REMARK 922        TOTAL FREE ENERGY PREDICTED BY IDOCK:   17.37 KCAL/MOL
REMARK 923 INTER-LIGAND FREE ENERGY PREDICTED BY IDOCK:    9.86 KCAL/MOL
REMARK 924 INTRA-LIGAND FREE ENERGY PREDICTED BY IDOCK:    7.51 KCAL/MOL
REMARK 927      BINDING AFFINITY PREDICTED BY RF-SCORE:    0.00 PKD
ROOT
HETATM    1  O   UNL     1      -5.207   6.406  65.119  1.00  0.00    -0.013 OA 
HETATM    2  C   UNL     1      -6.453   6.602  65.780  1.00  0.00    -0.046 C  
HETATM    3  H   UNL     1      -4.596   5.917  65.657  1.00  0.00     0.000 HD 
HETATM    4  C   UNL     2     -12.833   1.500  63.076  1.00  0.00     4.810 C  
HETATM    5  C   UNL     1      -7.455   7.403  64.897  1.00  0.00    -0.087 C  
HETATM    6  C   UNL     2     -12.423   2.777  62.360  1.00  0.00     3.045 C  
HETATM    7  C   UNL     1      -7.633   6.670  63.539  1.00  0.00    -0.100 C  
HETATM    8  N   UNL     1      -8.755   7.407  65.640  1.00  0.00    -0.299 NA 
HETATM    9  C   UNL     1      -7.121   8.877  64.726  1.00  0.00    -0.088 C  
HETATM   10  H   UNL     1      -7.168  10.464  65.867  1.00  0.00     0.000 HD 
HETATM   11  H   UNL     1      -8.189   4.878  62.915  1.00  0.00     0.000 HD 
HETATM   12  H2  UNL     1      -8.677   7.765  66.592  1.00  0.00     0.000 HD 
HETATM   13  O   UNL     1      -8.079   5.326  63.745  1.00  0.00    -0.105 OA 
HETATM   14  O   UNL     1      -7.376   9.543  65.974  1.00  0.00    -0.094 OA 
HETATM   15  H1  UNL     1      -9.411   7.931  65.061  1.00  0.00     0.000 HD 
ENDROOT
BRANCH   6  16
HETATM   16  C   UNL     2     -12.194   3.963  63.299  1.00  0.00     3.636 C  
BRANCH  16  17
HETATM   17  C   UNL     2     -11.020   4.871  62.923  1.00  0.00     1.323 C  
BRANCH  17  18
HETATM   18  C   UNL     2      -9.642   4.171  62.888  1.00  0.00    -0.137 C  
HETATM   19  C   UNL     2      -9.455   2.872  63.706  1.00  0.00    -0.110 C  
HETATM   20  C   UNL     2      -8.121   2.151  63.464  1.00  0.00    -0.073 C  
HETATM   21  O   UNL     2     -10.488   1.967  63.300  1.00  0.00    -0.125 OA 
HETATM   22  C   UNL     2      -9.619   3.155  65.172  1.00  0.00    -0.076 C  
HETATM   23  H   UNL     2     -10.374   1.169  63.803  1.00  0.00     0.000 HD 
HETATM   24  C   UNL     2      -8.758   3.792  65.984  1.00  0.00    -0.117 C  
BRANCH  24  25
HETATM   25  C   UNL     2      -8.987   4.078  67.451  1.00  0.00    -0.146 C  
HETATM   26  C   UNL     2      -9.661   2.949  68.266  1.00  0.00    -0.052 C  
HETATM   27  C   UNL     2      -9.470   3.424  69.685  1.00  0.00    -0.223 C  
HETATM   28  O   UNL     2      -9.014   1.682  68.195  1.00  0.00    -0.098 OA 
HETATM   29  H   UNL     2      -9.427   0.988  68.696  1.00  0.00     0.000 HD 
HETATM   30  C   UNL     2      -8.028   3.929  69.702  1.00  0.00    -0.055 C  
HETATM   31  C   UNL     2      -7.711   4.437  68.271  1.00  0.00    -0.075 C  
HETATM   32  O   UNL     2      -7.927   4.909  70.724  1.00  0.00    -0.079 OA 
HETATM   33  H   UNL     2      -7.031   5.223  70.735  1.00  0.00     0.000 HD 
BRANCH  31  34
HETATM   34  C   UNL     2      -7.323   5.930  68.171  1.00  0.00    -0.081 C  
BRANCH  34  35
HETATM   35  C   UNL     2      -8.471   6.880  68.423  1.00  0.00    -0.123 C  
HETATM   36  C   UNL     2      -8.564   7.856  69.340  1.00  0.00    -0.137 C  
BRANCH  36  37
HETATM   37  C   UNL     2      -7.539   8.258  70.361  1.00  0.00    -0.075 C  
BRANCH  37  38
HETATM   38  C   UNL     2      -6.319   8.952  69.753  1.00  0.00    -0.035 C  
BRANCH  38  39
HETATM   39  C   UNL     2      -5.989  10.306  70.364  1.00  0.00    -0.096 C  
HETATM   40  C   UNL     2      -6.663  11.546  69.774  1.00  0.00    -0.047 C  
HETATM   41  O   UNL     2      -6.020  12.619  69.945  1.00  0.00    -0.121 OA 
HETATM   42  O   UNL     2      -7.809  11.442  69.227  1.00  0.00    -0.039 OA 
ENDBRANCH  38  39
ENDBRANCH  37  38
ENDBRANCH  36  37
ENDBRANCH  34  35
ENDBRANCH  31  34
ENDBRANCH  24  25
ENDBRANCH  17  18
ENDBRANCH  16  17
ENDBRANCH   6  16
TORSDOF 9
ENDMDL
MODEL      350
REMARK 921   NORMALIZED FREE ENERGY PREDICTED BY IDOCK:   13.70 KCAL/MOL
REMARK 922        TOTAL FREE ENERGY PREDICTED BY IDOCK:   18.99 KCAL/MOL
REMARK 923 INTER-LIGAND FREE ENERGY PREDICTED BY IDOCK:   14.57 KCAL/MOL
REMARK 924 INTRA-LIGAND FREE ENERGY PREDICTED BY IDOCK:    4.41 KCAL/MOL
REMARK 927      BINDING AFFINITY PREDICTED BY RF-SCORE:    0.00 PKD
ROOT
HETATM    1  O   UNL     1      -8.055  13.869  73.162  1.00  0.00     5.985 OA 
HETATM    2  C   UNL     1      -7.133  14.518  72.293  1.00  0.00     3.175 C  
HETATM    3  H   UNL     1      -7.993  14.199  74.051  1.00  0.00     0.000 HD 
HETATM    4  C   UNL     2     -10.599  20.453  67.115  1.00  0.00    -0.045 C  
HETATM    5  C   UNL     1      -7.235  13.978  70.837  1.00  0.00     1.814 C  
HETATM    6  C   UNL     2     -10.628  18.962  66.816  1.00  0.00    -0.480 C  
HETATM    7  C   UNL     1      -8.699  14.131  70.340  1.00  0.00     2.658 C  
HETATM    8  N   UNL     1      -6.332  14.839  70.008  1.00  0.00    -0.156 NA 
HETATM    9  C   UNL     1      -6.694  12.571  70.635  1.00  0.00     1.547 C  
HETATM   10  H   UNL     1      -4.921  11.745  70.605  1.00  0.00     0.000 HD 
HETATM   11  H   UNL     1     -10.016  15.589  70.117  1.00  0.00     0.000 HD 
HETATM   12  H2  UNL     1      -5.375  14.879  70.359  1.00  0.00     0.000 HD 
HETATM   13  O   UNL     1      -9.121  15.496  70.420  1.00  0.00     0.433 OA 
HETATM   14  O   UNL     1      -5.260  12.624  70.730  1.00  0.00    -0.122 OA 
HETATM   15  H1  UNL     1      -6.400  14.485  69.054  1.00  0.00     0.000 HD 
ENDROOT
BRANCH   6  16
HETATM   16  C   UNL     2      -9.290  18.261  67.057  1.00  0.00    -0.274 C  
BRANCH  16  17
HETATM   17  C   UNL     2      -8.645  17.647  65.810  1.00  0.00     0.265 C  
BRANCH  17  18
HETATM   18  C   UNL     2      -9.624  16.902  64.873  1.00  0.00     2.191 C  
HETATM   19  C   UNL     2     -10.737  16.037  65.508  1.00  0.00    -0.361 C  
HETATM   20  C   UNL     2     -11.768  15.489  64.511  1.00  0.00    -0.253 C  
HETATM   21  O   UNL     2     -11.456  16.878  66.418  1.00  0.00     0.627 OA 
HETATM   22  C   UNL     2     -10.133  14.902  66.286  1.00  0.00    -0.298 C  
HETATM   23  H   UNL     2     -12.140  16.347  66.808  1.00  0.00     0.000 HD 
HETATM   24  C   UNL     2      -9.548  13.796  65.797  1.00  0.00    -0.097 C  
BRANCH  24  25
HETATM   25  C   UNL     2      -8.927  12.695  66.628  1.00  0.00    -0.164 C  
HETATM   26  C   UNL     2      -9.296  12.687  68.129  1.00  0.00    -0.210 C  
HETATM   27  C   UNL     2      -8.773  11.344  68.578  1.00  0.00    -0.149 C  
HETATM   28  O   UNL     2     -10.692  12.666  68.410  1.00  0.00    -0.227 OA 
HETATM   29  H   UNL     2     -10.919  12.661  69.332  1.00  0.00     0.000 HD 
HETATM   30  C   UNL     2      -9.194  10.401  67.451  1.00  0.00    -0.142 C  
HETATM   31  C   UNL     2      -9.227  11.242  66.147  1.00  0.00    -0.222 C  
HETATM   32  O   UNL     2      -8.288   9.310  67.440  1.00  0.00    -0.120 OA 
HETATM   33  H   UNL     2      -8.550   8.724  66.740  1.00  0.00     0.000 HD 
BRANCH  31  34
HETATM   34  C   UNL     2      -8.275  10.762  65.029  1.00  0.00    -0.005 C  
BRANCH  34  35
HETATM   35  C   UNL     2      -8.761   9.532  64.296  1.00  0.00    -0.232 C  
HETATM   36  C   UNL     2      -8.439   8.247  64.511  1.00  0.00    -0.040 C  
BRANCH  36  37
HETATM   37  C   UNL     2      -7.505   7.697  65.550  1.00  0.00    -0.077 C  
BRANCH  37  38
HETATM   38  C   UNL     2      -6.607   6.575  65.024  1.00  0.00    -0.042 C  
BRANCH  38  39
HETATM   39  C   UNL     2      -6.759   5.247  65.750  1.00  0.00    -0.053 C  
HETATM   40  C   UNL     2      -8.103   4.938  66.412  1.00  0.00    -0.107 C  
HETATM   41  O   UNL     2      -8.035   4.125  67.376  1.00  0.00    -0.091 OA 
HETATM   42  O   UNL     2      -9.172   5.442  65.936  1.00  0.00    -0.158 OA 
ENDBRANCH  38  39
ENDBRANCH  37  38
ENDBRANCH  36  37
ENDBRANCH  34  35
ENDBRANCH  31  34
ENDBRANCH  24  25
ENDBRANCH  17  18
ENDBRANCH  16  17
ENDBRANCH   6  16
TORSDOF 9
ENDMDL
MODEL      351
REMARK 921   NORMALIZED FREE ENERGY PREDICTED BY IDOCK:   16.99 KCAL/MOL
REMARK 922        TOTAL FREE ENERGY PREDICTED BY IDOCK:   24.00 KCAL/MOL
REMARK 923 INTER-LIGAND FREE ENERGY PREDICTED BY IDOCK:    6.78 KCAL/MOL
REMARK 924 INTRA-LIGAND FREE ENERGY PREDICTED BY IDOCK:   17.22 KCAL/MOL
REMARK 927      BINDING AFFINITY PREDICTED BY RF-SCORE:    0.00 PKD
ROOT
HETATM    1  O   UNL     1     -10.584  12.163  68.005  1.00  0.00    -0.198 OA 
HETATM    2  C   UNL     1     -11.161  13.458  67.877  1.00  0.00    -0.275 C  
HETATM    3  H   UNL     1     -10.751  11.626  67.239  1.00  0.00     0.000 HD 
HETATM    4  C   UNL     2      -5.588  19.738  65.990  1.00  0.00    -0.179 C  
HETATM    5  C   UNL     1     -10.887  14.339  69.131  1.00  0.00    -0.242 C  
HETATM    6  C   UNL     2      -5.810  19.211  67.400  1.00  0.00    -0.175 C  
HETATM    7  C   UNL     1      -9.354  14.413  69.374  1.00  0.00     0.286 C  
HETATM    8  N   UNL     1     -11.410  15.703  68.805  1.00  0.00    -0.327 NA 
HETATM    9  C   UNL     1     -11.657  13.934  70.378  1.00  0.00    -0.108 C  
HETATM   10  H   UNL     1     -13.520  14.030  70.966  1.00  0.00     0.000 HD 
HETATM   11  H   UNL     1      -7.747  14.973  68.368  1.00  0.00     0.000 HD 
HETATM   12  H2  UNL     1     -12.388  15.705  68.515  1.00  0.00     0.000 HD 
HETATM   13  O   UNL     1      -8.683  14.928  68.219  1.00  0.00    -0.155 OA 
HETATM   14  O   UNL     1     -13.039  14.283  70.186  1.00  0.00    -0.109 OA 
HETATM   15  H1  UNL     1     -11.230  16.280  69.627  1.00  0.00     0.000 HD 
ENDROOT
BRANCH   6  16
HETATM   16  C   UNL     2      -7.284  19.029  67.764  1.00  0.00    -0.258 C  
BRANCH  16  17
HETATM   17  C   UNL     2      -7.549  18.104  68.955  1.00  0.00    -0.155 C  
BRANCH  17  18
HETATM   18  C   UNL     2      -6.950  16.685  68.821  1.00  0.00    -0.185 C  
HETATM   19  C   UNL     2      -6.333  16.271  67.465  1.00  0.00    -0.160 C  
HETATM   20  C   UNL     2      -5.601  14.921  67.482  1.00  0.00     0.118 C  
HETATM   21  O   UNL     2      -5.355  17.262  67.128  1.00  0.00    -0.120 OA 
HETATM   22  C   UNL     2      -7.388  16.262  66.396  1.00  0.00     0.026 C  
HETATM   23  H   UNL     2      -4.975  17.008  66.295  1.00  0.00     0.000 HD 
HETATM   24  C   UNL     2      -8.371  15.362  66.225  1.00  0.00     0.073 C  
BRANCH  24  25
HETATM   25  C   UNL     2      -9.429  15.417  65.146  1.00  0.00     0.372 C  
HETATM   26  C   UNL     2     -10.291  14.145  64.973  1.00  0.00    -0.418 C  
HETATM   27  C   UNL     2     -11.394  14.629  64.064  1.00  0.00     0.235 C  
HETATM   28  O   UNL     2     -10.942  13.690  66.155  1.00  0.00    -0.283 OA 
HETATM   29  H   UNL     2     -11.472  12.908  66.050  1.00  0.00     0.000 HD 
HETATM   30  C   UNL     2     -11.756  15.998  64.637  1.00  0.00    -0.073 C  
HETATM   31  C   UNL     2     -10.467  16.572  65.283  1.00  0.00    -0.236 C  
HETATM   32  O   UNL     2     -12.299  16.777  63.583  1.00  0.00     0.423 OA 
HETATM   33  H   UNL     2     -12.524  17.628  63.940  1.00  0.00     0.000 HD 
BRANCH  31  34
HETATM   34  C   UNL     2      -9.972  17.910  64.690  1.00  0.00     3.895 C  
BRANCH  34  35
HETATM   35  C   UNL     2      -9.043  18.680  65.601  1.00  0.00     0.726 C  
HETATM   36  C   UNL     2      -9.354  19.581  66.546  1.00  0.00    -0.437 C  
BRANCH  36  37
HETATM   37  C   UNL     2     -10.721  20.058  66.945  1.00  0.00    -0.361 C  
BRANCH  37  38
HETATM   38  C   UNL     2     -11.085  19.713  68.390  1.00  0.00     0.728 C  
BRANCH  38  39
HETATM   39  C   UNL     2     -10.091  18.802  69.095  1.00  0.00    -0.193 C  
HETATM   40  C   UNL     2     -10.641  17.671  69.965  1.00  0.00     0.878 C  
HETATM   41  O   UNL     2      -9.859  17.290  70.881  1.00  0.00     2.686 OA 
HETATM   42  O   UNL     2     -11.775  17.157  69.692  1.00  0.00     0.987 OA 
ENDBRANCH  38  39
ENDBRANCH  37  38
ENDBRANCH  36  37
ENDBRANCH  34  35
ENDBRANCH  31  34
ENDBRANCH  24  25
ENDBRANCH  17  18
ENDBRANCH  16  17
ENDBRANCH   6  16
TORSDOF 9
ENDMDL
MODEL      352
REMARK 921   NORMALIZED FREE ENERGY PREDICTED BY IDOCK:   17.87 KCAL/MOL
REMARK 922        TOTAL FREE ENERGY PREDICTED BY IDOCK:   25.35 KCAL/MOL
REMARK 923 INTER-LIGAND FREE ENERGY PREDICTED BY IDOCK:   17.11 KCAL/MOL
REMARK 924 INTRA-LIGAND FREE ENERGY PREDICTED BY IDOCK:    8.24 KCAL/MOL
REMARK 927      BINDING AFFINITY PREDICTED BY RF-SCORE:    0.00 PKD
ROOT
HETATM    1  O   UNL     1     -11.020  16.463  68.599  1.00  0.00    -0.313 OA 
HETATM    2  C   UNL     1      -9.676  16.506  68.130  1.00  0.00    -0.234 C  
HETATM    3  H   UNL     1     -11.639  16.695  67.916  1.00  0.00     0.000 HD 
HETATM    4  C   UNL     2      -6.154   8.821  66.523  1.00  0.00    -0.057 C  
HETATM    5  C   UNL     1      -8.663  16.126  69.249  1.00  0.00    -0.190 C  
HETATM    6  C   UNL     2      -6.234   9.430  67.914  1.00  0.00    -0.053 C  
HETATM    7  C   UNL     1      -9.031  14.726  69.814  1.00  0.00     0.345 C  
HETATM    8  N   UNL     1      -7.319  16.064  68.592  1.00  0.00    -0.150 NA 
HETATM    9  C   UNL     1      -8.493  17.171  70.341  1.00  0.00     3.476 C  
HETATM   10  H   UNL     1      -7.667  18.939  70.471  1.00  0.00     0.000 HD 
HETATM   11  H   UNL     1      -9.271  12.892  69.115  1.00  0.00     0.000 HD 
HETATM   12  H2  UNL     1      -7.071  16.919  68.093  1.00  0.00     0.000 HD 
HETATM   13  O   UNL     1      -9.046  13.747  68.770  1.00  0.00    -0.108 OA 
HETATM   14  O   UNL     1      -7.773  18.286  69.789  1.00  0.00     0.471 OA 
HETATM   15  H1  UNL     1      -6.655  15.815  69.324  1.00  0.00     0.000 HD 
ENDROOT
BRANCH   6  16
HETATM   16  C   UNL     2      -5.842  10.908  67.963  1.00  0.00    -0.045 C  
BRANCH  16  17
HETATM   17  C   UNL     2      -6.221  11.721  66.722  1.00  0.00    -0.094 C  
BRANCH  17  18
HETATM   18  C   UNL     2      -5.538  13.105  66.619  1.00  0.00     1.801 C  
HETATM   19  C   UNL     2      -6.093  14.265  67.476  1.00  0.00     0.071 C  
HETATM   20  C   UNL     2      -5.243  15.543  67.448  1.00  0.00     0.113 C  
HETATM   21  O   UNL     2      -6.110  13.815  68.835  1.00  0.00    -0.080 OA 
HETATM   22  C   UNL     2      -7.502  14.586  67.064  1.00  0.00     0.187 C  
HETATM   23  H   UNL     2      -6.452  14.527  69.362  1.00  0.00     0.000 HD 
HETATM   24  C   UNL     2      -7.905  15.215  65.946  1.00  0.00     2.511 C  
BRANCH  24  25
HETATM   25  C   UNL     2      -9.343  15.487  65.565  1.00  0.00    -0.062 C  
HETATM   26  C   UNL     2      -9.711  16.967  65.311  1.00  0.00     0.728 C  
HETATM   27  C   UNL     2     -11.079  16.852  64.684  1.00  0.00     0.200 C  
HETATM   28  O   UNL     2      -8.903  17.634  64.346  1.00  0.00     5.376 OA 
HETATM   29  H   UNL     2      -9.129  18.544  64.189  1.00  0.00     0.000 HD 
HETATM   30  C   UNL     2     -10.927  15.688  63.705  1.00  0.00     1.724 C  
HETATM   31  C   UNL     2      -9.852  14.738  64.296  1.00  0.00     2.052 C  
HETATM   32  O   UNL     2     -12.209  15.108  63.524  1.00  0.00    -0.835 OA 
HETATM   33  H   UNL     2     -12.115  14.385  62.915  1.00  0.00     0.000 HD 
BRANCH  31  34
HETATM   34  C   UNL     2     -10.334  13.299  64.591  1.00  0.00    -0.394 C  
BRANCH  34  35
HETATM   35  C   UNL     2      -9.333  12.459  65.350  1.00  0.00     0.161 C  
HETATM   36  C   UNL     2      -9.564  11.471  66.228  1.00  0.00    -0.239 C  
BRANCH  36  37
HETATM   37  C   UNL     2     -10.893  10.939  66.683  1.00  0.00    -0.258 C  
BRANCH  37  38
HETATM   38  C   UNL     2     -10.793  10.028  67.908  1.00  0.00    -0.323 C  
BRANCH  38  39
HETATM   39  C   UNL     2     -11.565  10.515  69.125  1.00  0.00    -0.295 C  
HETATM   40  C   UNL     2     -12.497   9.528  69.829  1.00  0.00     0.920 C  
HETATM   41  O   UNL     2     -13.444  10.069  70.466  1.00  0.00    -0.168 OA 
HETATM   42  O   UNL     2     -12.243   8.280  69.790  1.00  0.00     0.878 OA 
ENDBRANCH  38  39
ENDBRANCH  37  38
ENDBRANCH  36  37
ENDBRANCH  34  35
ENDBRANCH  31  34
ENDBRANCH  24  25
ENDBRANCH  17  18
ENDBRANCH  16  17
ENDBRANCH   6  16
TORSDOF 9
ENDMDL
MODEL      353
REMARK 921   NORMALIZED FREE ENERGY PREDICTED BY IDOCK:   18.34 KCAL/MOL
REMARK 922        TOTAL FREE ENERGY PREDICTED BY IDOCK:   26.06 KCAL/MOL
REMARK 923 INTER-LIGAND FREE ENERGY PREDICTED BY IDOCK:    6.32 KCAL/MOL
REMARK 924 INTRA-LIGAND FREE ENERGY PREDICTED BY IDOCK:   19.74 KCAL/MOL
REMARK 927      BINDING AFFINITY PREDICTED BY RF-SCORE:    0.00 PKD
ROOT
HETATM    1  O   UNL     1     -11.022  13.736  63.891  1.00  0.00    -0.524 OA 
HETATM    2  C   UNL     1     -10.047  13.155  64.750  1.00  0.00    -0.223 C  
HETATM    3  H   UNL     1     -10.981  13.372  63.014  1.00  0.00     0.000 HD 
HETATM    4  C   UNL     2     -13.109   7.323  70.288  1.00  0.00     0.972 C  
HETATM    5  C   UNL     1     -10.115  13.750  66.186  1.00  0.00    -0.307 C  
HETATM    6  C   UNL     2     -13.180   8.824  70.528  1.00  0.00     0.795 C  
HETATM    7  C   UNL     1     -11.554  13.569  66.744  1.00  0.00    -0.363 C  
HETATM    8  N   UNL     1      -9.153  12.956  67.014  1.00  0.00    -0.222 NA 
HETATM    9  C   UNL     1      -9.617  15.182  66.311  1.00  0.00    -0.297 C  
HETATM   10  H   UNL     1      -7.875  16.069  66.242  1.00  0.00     0.000 HD 
HETATM   11  H   UNL     1     -12.808  12.077  67.075  1.00  0.00     0.000 HD 
HETATM   12  H2  UNL     1      -8.208  12.933  66.629  1.00  0.00     0.000 HD 
HETATM   13  O   UNL     1     -11.929  12.188  66.734  1.00  0.00    -0.606 OA 
HETATM   14  O   UNL     1      -8.186  15.175  66.164  1.00  0.00     0.213 OA 
HETATM   15  H1  UNL     1      -9.197  13.346  67.955  1.00  0.00     0.000 HD 
ENDROOT
BRANCH   6  16
HETATM   16  C   UNL     2     -11.877   9.560  70.209  1.00  0.00    -0.109 C  
BRANCH  16  17
HETATM   17  C   UNL     2     -11.934  11.081  70.376  1.00  0.00    -0.459 C  
BRANCH  17  18
HETATM   18  C   UNL     2     -11.453  11.888  69.147  1.00  0.00    -0.356 C  
HETATM   19  C   UNL     2     -10.356  11.274  68.247  1.00  0.00    -0.183 C  
HETATM   20  C   UNL     2     -10.076  12.057  66.957  1.00  0.00    -0.221 C  
HETATM   21  O   UNL     2     -10.815   9.978  67.848  1.00  0.00    -0.253 OA 
HETATM   22  C   UNL     2      -9.080  11.108  69.025  1.00  0.00    -0.036 C  
HETATM   23  H   UNL     2     -10.141   9.600  67.295  1.00  0.00     0.000 HD 
HETATM   24  C   UNL     2      -8.227  12.071  69.412  1.00  0.00     0.792 C  
BRANCH  24  25
HETATM   25  C   UNL     2      -6.969  11.851  70.222  1.00  0.00     1.059 C  
HETATM   26  C   UNL     2      -6.277  13.123  70.762  1.00  0.00     0.316 C  
HETATM   27  C   UNL     2      -5.274  12.552  71.734  1.00  0.00     0.025 C  
HETATM   28  O   UNL     2      -7.109  13.986  71.532  1.00  0.00     0.785 OA 
HETATM   29  H   UNL     2      -6.683  14.768  71.864  1.00  0.00     0.000 HD 
HETATM   30  C   UNL     2      -6.064  11.470  72.469  1.00  0.00     2.917 C  
HETATM   31  C   UNL     2      -7.131  10.937  71.476  1.00  0.00     3.535 C  
HETATM   32  O   UNL     2      -5.138  10.501  72.934  1.00  0.00    -0.316 OA 
HETATM   33  H   UNL     2      -5.630   9.829  73.391  1.00  0.00     0.000 HD 
BRANCH  31  34
HETATM   34  C   UNL     2      -7.033   9.430  71.148  1.00  0.00    -0.025 C  
BRANCH  34  35
HETATM   35  C   UNL     2      -6.187   9.119  69.935  1.00  0.00    -0.038 C  
HETATM   36  C   UNL     2      -5.595   7.962  69.601  1.00  0.00    -0.023 C  
BRANCH  36  37
HETATM   37  C   UNL     2      -5.623   6.665  70.357  1.00  0.00    -0.023 C  
BRANCH  37  38
HETATM   38  C   UNL     2      -6.462   5.584  69.673  1.00  0.00    -0.045 C  
BRANCH  38  39
HETATM   39  C   UNL     2      -7.938   5.923  69.528  1.00  0.00    -0.105 C  
HETATM   40  C   UNL     2      -8.412   6.525  68.205  1.00  0.00    -0.116 C  
HETATM   41  O   UNL     2      -9.459   7.226  68.296  1.00  0.00    -0.141 OA 
HETATM   42  O   UNL     2      -7.792   6.249  67.127  1.00  0.00    -0.102 OA 
ENDBRANCH  38  39
ENDBRANCH  37  38
ENDBRANCH  36  37
ENDBRANCH  34  35
ENDBRANCH  31  34
ENDBRANCH  24  25
ENDBRANCH  17  18
ENDBRANCH  16  17
ENDBRANCH   6  16
TORSDOF 9
ENDMDL
MODEL      354
REMARK 921   NORMALIZED FREE ENERGY PREDICTED BY IDOCK:   19.73 KCAL/MOL
REMARK 922        TOTAL FREE ENERGY PREDICTED BY IDOCK:   28.18 KCAL/MOL
REMARK 923 INTER-LIGAND FREE ENERGY PREDICTED BY IDOCK:   18.23 KCAL/MOL
REMARK 924 INTRA-LIGAND FREE ENERGY PREDICTED BY IDOCK:    9.96 KCAL/MOL
REMARK 927      BINDING AFFINITY PREDICTED BY RF-SCORE:    0.00 PKD
ROOT
HETATM    1  O   UNL     1      -6.320   6.388  70.404  1.00  0.00    -0.034 OA 
HETATM    2  C   UNL     1      -5.714   6.747  69.166  1.00  0.00    -0.018 C  
HETATM    3  H   UNL     1      -5.803   6.677  71.146  1.00  0.00     0.000 HD 
HETATM    4  C   UNL     2      -9.313  13.478  65.191  1.00  0.00     0.652 C  
HETATM    5  C   UNL     1      -6.562   6.273  67.950  1.00  0.00    -0.062 C  
HETATM    6  C   UNL     2      -9.863  12.062  65.104  1.00  0.00    -0.223 C  
HETATM    7  C   UNL     1      -7.999   6.849  68.076  1.00  0.00    -0.115 C  
HETATM    8  N   UNL     1      -5.899   6.839  66.733  1.00  0.00    -0.021 NA 
HETATM    9  C   UNL     1      -6.554   4.771  67.711  1.00  0.00    -0.047 C  
HETATM   10  H   UNL     1      -5.253   3.464  67.059  1.00  0.00     0.000 HD 
HETATM   11  H   UNL     1      -8.843   8.630  68.239  1.00  0.00     0.000 HD 
HETATM   12  H2  UNL     1      -4.911   6.597  66.658  1.00  0.00     0.000 HD 
HETATM   13  O   UNL     1      -7.965   8.277  68.162  1.00  0.00    -0.119 OA 
HETATM   14  O   UNL     1      -5.258   4.402  67.209  1.00  0.00    -0.010 OA 
HETATM   15  H1  UNL     1      -6.454   6.529  65.936  1.00  0.00     0.000 HD 
ENDROOT
BRANCH   6  16
HETATM   16  C   UNL     2      -8.790  10.999  64.861  1.00  0.00    -0.066 C  
BRANCH  16  17
HETATM   17  C   UNL     2      -9.305   9.558  64.810  1.00  0.00    -0.235 C  
BRANCH  17  18
HETATM   18  C   UNL     2      -8.911   8.684  66.024  1.00  0.00    -0.227 C  
HETATM   19  C   UNL     2     -10.037   8.122  66.922  1.00  0.00    -0.297 C  
HETATM   20  C   UNL     2      -9.565   7.120  67.986  1.00  0.00    -0.140 C  
HETATM   21  O   UNL     2     -10.943   7.414  66.068  1.00  0.00     0.851 OA 
HETATM   22  C   UNL     2     -10.784   9.246  67.582  1.00  0.00    -0.276 C  
HETATM   23  H   UNL     2     -11.635   7.069  66.620  1.00  0.00     0.000 HD 
HETATM   24  C   UNL     2     -10.364  10.025  68.593  1.00  0.00    -0.211 C  
BRANCH  24  25
HETATM   25  C   UNL     2     -11.148  11.166  69.201  1.00  0.00    -0.306 C  
HETATM   26  C   UNL     2     -12.687  11.067  69.093  1.00  0.00     0.677 C  
HETATM   27  C   UNL     2     -13.143  12.163  70.025  1.00  0.00     0.957 C  
HETATM   28  O   UNL     2     -13.255   9.866  69.607  1.00  0.00     0.075 OA 
HETATM   29  H   UNL     2     -14.201   9.805  69.540  1.00  0.00     0.000 HD 
HETATM   30  C   UNL     2     -12.226  12.005  71.237  1.00  0.00     0.083 C  
HETATM   31  C   UNL     2     -10.883  11.428  70.715  1.00  0.00     1.799 C  
HETATM   32  O   UNL     2     -12.131  13.271  71.873  1.00  0.00     0.111 OA 
HETATM   33  H   UNL     2     -11.560  13.172  72.626  1.00  0.00     0.000 HD 
BRANCH  31  34
HETATM   34  C   UNL     2      -9.641  12.311  70.973  1.00  0.00     9.688 C  
BRANCH  34  35
HETATM   35  C   UNL     2      -8.326  11.584  70.811  1.00  0.00     5.741 C  
HETATM   36  C   UNL     2      -7.331  11.835  69.946  1.00  0.00     0.774 C  
BRANCH  36  37
HETATM   37  C   UNL     2      -7.269  12.918  68.908  1.00  0.00    -0.042 C  
BRANCH  37  38
HETATM   38  C   UNL     2      -8.264  14.054  69.157  1.00  0.00     0.225 C  
BRANCH  38  39
HETATM   39  C   UNL     2      -9.019  14.518  67.920  1.00  0.00    -0.187 C  
HETATM   40  C   UNL     2     -10.119  15.564  68.098  1.00  0.00    -0.218 C  
HETATM   41  O   UNL     2     -11.010  15.543  67.203  1.00  0.00    -0.321 OA 
HETATM   42  O   UNL     2     -10.047  16.401  69.057  1.00  0.00    -0.234 OA 
ENDBRANCH  38  39
ENDBRANCH  37  38
ENDBRANCH  36  37
ENDBRANCH  34  35
ENDBRANCH  31  34
ENDBRANCH  24  25
ENDBRANCH  17  18
ENDBRANCH  16  17
ENDBRANCH   6  16
TORSDOF 9
ENDMDL
MODEL      355
REMARK 921   NORMALIZED FREE ENERGY PREDICTED BY IDOCK:   26.40 KCAL/MOL
REMARK 922        TOTAL FREE ENERGY PREDICTED BY IDOCK:   38.36 KCAL/MOL
REMARK 923 INTER-LIGAND FREE ENERGY PREDICTED BY IDOCK:    4.67 KCAL/MOL
REMARK 924 INTRA-LIGAND FREE ENERGY PREDICTED BY IDOCK:   33.69 KCAL/MOL
REMARK 927      BINDING AFFINITY PREDICTED BY RF-SCORE:    0.00 PKD
ROOT
HETATM    1  O   UNL     1     -10.991  13.740  63.921  1.00  0.00    -0.524 OA 
HETATM    2  C   UNL     1     -10.135  13.323  64.980  1.00  0.00    -0.227 C  
HETATM    3  H   UNL     1     -10.910  13.177  63.160  1.00  0.00     0.000 HD 
HETATM    4  C   UNL     2     -14.075   9.159  71.398  1.00  0.00    -0.194 C  
HETATM    5  C   UNL     1     -10.270  14.246  66.227  1.00  0.00    -0.301 C  
HETATM    6  C   UNL     2     -14.046  10.675  71.277  1.00  0.00     1.251 C  
HETATM    7  C   UNL     1     -11.758  14.285  66.672  1.00  0.00    -0.400 C  
HETATM    8  N   UNL     1      -9.441  13.616  67.303  1.00  0.00    -0.222 NA 
HETATM    9  C   UNL     1      -9.672  15.634  66.064  1.00  0.00    -0.346 C  
HETATM   10  H   UNL     1      -7.865  16.377  65.958  1.00  0.00     0.000 HD 
HETATM   11  H   UNL     1     -13.148  12.990  67.217  1.00  0.00     0.000 HD 
HETATM   12  H2  UNL     1      -8.474  13.447  67.026  1.00  0.00     0.000 HD 
HETATM   13  O   UNL     1     -12.239  12.966  66.946  1.00  0.00    -0.407 OA 
HETATM   14  O   UNL     1      -8.239  15.510  66.060  1.00  0.00     0.133 OA 
HETATM   15  H1  UNL     1      -9.530  14.220  68.120  1.00  0.00     0.000 HD 
ENDROOT
BRANCH   6  16
HETATM   16  C   UNL     2     -12.669  11.238  70.922  1.00  0.00    -0.412 C  
BRANCH  16  17
HETATM   17  C   UNL     2     -12.583  12.766  70.881  1.00  0.00    -0.342 C  
BRANCH  17  18
HETATM   18  C   UNL     2     -12.400  13.369  69.469  1.00  0.00    -0.155 C  
HETATM   19  C   UNL     2     -11.586  12.568  68.427  1.00  0.00    -0.322 C  
HETATM   20  C   UNL     2     -11.614  13.152  67.007  1.00  0.00    -0.408 C  
HETATM   21  O   UNL     2     -12.175  11.265  68.343  1.00  0.00    -0.604 OA 
HETATM   22  C   UNL     2     -10.162  12.418  68.884  1.00  0.00    -0.025 C  
HETATM   23  H   UNL     2     -11.675  10.772  67.704  1.00  0.00     0.000 HD 
HETATM   24  C   UNL     2      -9.207  13.362  68.908  1.00  0.00     0.234 C  
BRANCH  24  25
HETATM   25  C   UNL     2      -7.794  13.164  69.408  1.00  0.00     0.686 C  
HETATM   26  C   UNL     2      -7.354  14.072  70.581  1.00  0.00     1.549 C  
HETATM   27  C   UNL     2      -6.058  13.431  71.011  1.00  0.00     0.188 C  
HETATM   28  O   UNL     2      -8.199  14.033  71.727  1.00  0.00     4.551 OA 
HETATM   29  H   UNL     2      -7.930  14.590  72.447  1.00  0.00     0.000 HD 
HETATM   30  C   UNL     2      -6.371  11.936  70.983  1.00  0.00     1.268 C  
HETATM   31  C   UNL     2      -7.449  11.721  69.887  1.00  0.00     0.945 C  
HETATM   32  O   UNL     2      -5.151  11.244  70.770  1.00  0.00    -0.089 OA 
HETATM   33  H   UNL     2      -5.346  10.314  70.752  1.00  0.00     0.000 HD 
BRANCH  31  34
HETATM   34  C   UNL     2      -7.037  10.779  68.733  1.00  0.00    -0.079 C  
BRANCH  34  35
HETATM   35  C   UNL     2      -6.576  11.500  67.487  1.00  0.00    -0.087 C  
HETATM   36  C   UNL     2      -5.965  10.993  66.404  1.00  0.00    -0.143 C  
BRANCH  36  37
HETATM   37  C   UNL     2      -5.582   9.563  66.152  1.00  0.00    -0.052 C  
BRANCH  37  38
HETATM   38  C   UNL     2      -6.531   8.842  65.193  1.00  0.00    -0.064 C  
BRANCH  38  39
HETATM   39  C   UNL     2      -7.941   8.643  65.727  1.00  0.00    -0.106 C  
HETATM   40  C   UNL     2      -9.009   9.667  65.343  1.00  0.00    -0.190 C  
HETATM   41  O   UNL     2      -9.966   9.757  66.162  1.00  0.00    -0.244 OA 
HETATM   42  O   UNL     2      -8.912  10.297  64.239  1.00  0.00    -0.195 OA 
ENDBRANCH  38  39
ENDBRANCH  37  38
ENDBRANCH  36  37
ENDBRANCH  34  35
ENDBRANCH  31  34
ENDBRANCH  24  25
ENDBRANCH  17  18
ENDBRANCH  16  17
ENDBRANCH   6  16
TORSDOF 9
ENDMDL
MODEL      356
REMARK 921   NORMALIZED FREE ENERGY PREDICTED BY IDOCK:   31.67 KCAL/MOL
REMARK 922        TOTAL FREE ENERGY PREDICTED BY IDOCK:   46.41 KCAL/MOL
REMARK 923 INTER-LIGAND FREE ENERGY PREDICTED BY IDOCK:    5.17 KCAL/MOL
REMARK 924 INTRA-LIGAND FREE ENERGY PREDICTED BY IDOCK:   41.24 KCAL/MOL
REMARK 927      BINDING AFFINITY PREDICTED BY RF-SCORE:    0.00 PKD
ROOT
HETATM    1  O   UNL     1      -9.989   9.879  69.421  1.00  0.00    -0.187 OA 
HETATM    2  C   UNL     1      -8.970  10.372  68.557  1.00  0.00    -0.139 C  
HETATM    3  H   UNL     1      -9.677   9.159  69.958  1.00  0.00     0.000 HD 
HETATM    4  C   UNL     2      -5.369  17.777  71.057  1.00  0.00    -0.156 C  
HETATM    5  C   UNL     1      -9.481  11.551  67.677  1.00  0.00    -0.168 C  
HETATM    6  C   UNL     2      -6.690  17.700  70.307  1.00  0.00     0.959 C  
HETATM    7  C   UNL     1     -10.042  12.667  68.601  1.00  0.00    -0.122 C  
HETATM    8  N   UNL     1      -8.286  12.066  66.937  1.00  0.00    -0.210 NA 
HETATM    9  C   UNL     1     -10.456  11.156  66.579  1.00  0.00    -0.255 C  
HETATM   10  H   UNL     1     -10.335  10.201  64.876  1.00  0.00     0.000 HD 
HETATM   11  H   UNL     1      -9.388  13.786  70.094  1.00  0.00     0.000 HD 
HETATM   12  H2  UNL     1      -7.796  11.347  66.405  1.00  0.00     0.000 HD 
HETATM   13  O   UNL     1      -9.045  13.104  69.530  1.00  0.00     1.023 OA 
HETATM   14  O   UNL     1      -9.726  10.448  65.563  1.00  0.00    -0.212 OA 
HETATM   15  H1  UNL     1      -8.621  12.839  66.361  1.00  0.00     0.000 HD 
ENDROOT
BRANCH   6  16
HETATM   16  C   UNL     2      -6.669  16.733  69.122  1.00  0.00    -0.223 C  
BRANCH  16  17
HETATM   17  C   UNL     2      -6.337  15.280  69.476  1.00  0.00    -0.145 C  
BRANCH  17  18
HETATM   18  C   UNL     2      -7.552  14.324  69.498  1.00  0.00     0.149 C  
HETATM   19  C   UNL     2      -7.943  13.600  68.189  1.00  0.00    -0.148 C  
HETATM   20  C   UNL     2      -9.039  12.536  68.349  1.00  0.00    -0.135 C  
HETATM   21  O   UNL     2      -6.775  12.916  67.720  1.00  0.00    -0.108 OA 
HETATM   22  C   UNL     2      -8.359  14.600  67.147  1.00  0.00    -0.236 C  
HETATM   23  H   UNL     2      -7.015  12.472  66.916  1.00  0.00     0.000 HD 
HETATM   24  C   UNL     2      -9.501  15.307  67.101  1.00  0.00    -0.223 C  
BRANCH  24  25
HETATM   25  C   UNL     2      -9.856  16.326  66.042  1.00  0.00    -0.371 C  
HETATM   26  C   UNL     2     -10.492  15.769  64.748  1.00  0.00    -0.019 C  
HETATM   27  C   UNL     2     -10.979  17.024  64.066  1.00  0.00     2.480 C  
HETATM   28  O   UNL     2     -11.652  14.964  64.941  1.00  0.00    -0.382 OA 
HETATM   29  H   UNL     2     -12.043  14.621  64.146  1.00  0.00     0.000 HD 
HETATM   30  C   UNL     2     -11.601  17.831  65.204  1.00  0.00     2.170 C  
HETATM   31  C   UNL     2     -10.833  17.453  66.498  1.00  0.00     0.050 C  
HETATM   32  O   UNL     2     -11.537  19.203  64.845  1.00  0.00     0.944 OA 
HETATM   33  H   UNL     2     -11.923  19.704  65.553  1.00  0.00     0.000 HD 
BRANCH  31  34
HETATM   34  C   UNL     2     -10.120  18.626  67.209  1.00  0.00    -0.388 C  
BRANCH  34  35
HETATM   35  C   UNL     2      -8.832  18.236  67.897  1.00  0.00    -0.278 C  
HETATM   36  C   UNL     2      -8.646  17.847  69.167  1.00  0.00     0.121 C  
BRANCH  36  37
HETATM   37  C   UNL     2      -9.684  17.695  70.242  1.00  0.00     1.953 C  
BRANCH  37  38
HETATM   38  C   UNL     2     -10.605  16.492  70.030  1.00  0.00    -0.167 C  
BRANCH  38  39
HETATM   39  C   UNL     2     -12.036  16.697  70.505  1.00  0.00     0.889 C  
HETATM   40  C   UNL     2     -12.480  15.983  71.782  1.00  0.00    -0.401 C  
HETATM   41  O   UNL     2     -13.722  15.771  71.856  1.00  0.00    -0.444 OA 
HETATM   42  O   UNL     2     -11.623  15.713  72.686  1.00  0.00    -0.449 OA 
ENDBRANCH  38  39
ENDBRANCH  37  38
ENDBRANCH  36  37
ENDBRANCH  34  35
ENDBRANCH  31  34
ENDBRANCH  24  25
ENDBRANCH  17  18
ENDBRANCH  16  17
ENDBRANCH   6  16
TORSDOF 9
ENDMDL
MODEL      357
REMARK 921   NORMALIZED FREE ENERGY PREDICTED BY IDOCK:   52.23 KCAL/MOL
REMARK 922        TOTAL FREE ENERGY PREDICTED BY IDOCK:   77.78 KCAL/MOL
REMARK 923 INTER-LIGAND FREE ENERGY PREDICTED BY IDOCK:   10.26 KCAL/MOL
REMARK 924 INTRA-LIGAND FREE ENERGY PREDICTED BY IDOCK:   67.53 KCAL/MOL
REMARK 927      BINDING AFFINITY PREDICTED BY RF-SCORE:    0.00 PKD
ROOT
HETATM    1  O   UNL     1     -10.972  16.456  68.629  1.00  0.00    -0.313 OA 
HETATM    2  C   UNL     1      -9.552  16.508  68.543  1.00  0.00    -0.233 C  
HETATM    3  H   UNL     1     -11.384  16.720  67.814  1.00  0.00     0.000 HD 
HETATM    4  C   UNL     2      -5.699   8.867  67.633  1.00  0.00    -0.039 C  
HETATM    5  C   UNL     1      -8.877  16.075  69.877  1.00  0.00     0.481 C  
HETATM    6  C   UNL     2      -6.154   9.420  68.975  1.00  0.00    -0.042 C  
HETATM    7  C   UNL     1      -9.379  14.657  70.264  1.00  0.00     1.166 C  
HETATM    8  N   UNL     1      -7.405  16.029  69.605  1.00  0.00    -0.132 NA 
HETATM    9  C   UNL     1      -9.012  17.074  71.016  1.00  0.00     6.095 C  
HETATM   10  H   UNL     1      -8.258  18.829  71.436  1.00  0.00     0.000 HD 
HETATM   11  H   UNL     1      -9.414  12.854  69.452  1.00  0.00     0.000 HD 
HETATM   12  H2  UNL     1      -7.035  16.902  69.227  1.00  0.00     0.000 HD 
HETATM   13  O   UNL     1      -9.108  13.721  69.216  1.00  0.00     0.324 OA 
HETATM   14  O   UNL     1      -8.174  18.205  70.725  1.00  0.00     4.157 OA 
HETATM   15  H1  UNL     1      -6.963  15.746  70.479  1.00  0.00     0.000 HD 
ENDROOT
BRANCH   6  16
HETATM   16  C   UNL     2      -5.794  10.891  69.188  1.00  0.00    -0.041 C  
BRANCH  16  17
HETATM   17  C   UNL     2      -6.169  11.825  68.033  1.00  0.00    -0.052 C  
BRANCH  17  18
HETATM   18  C   UNL     2      -5.545  13.238  68.112  1.00  0.00    -0.100 C  
HETATM   19  C   UNL     2      -6.032  14.197  69.222  1.00  0.00    -0.097 C  
HETATM   20  C   UNL     2      -5.230  15.501  69.337  1.00  0.00    -0.094 C  
HETATM   21  O   UNL     2      -5.878  13.511  70.470  1.00  0.00    -0.158 OA 
HETATM   22  C   UNL     2      -7.488  14.515  69.031  1.00  0.00    -0.131 C  
HETATM   23  H   UNL     2      -6.177  14.100  71.151  1.00  0.00     0.000 HD 
HETATM   24  C   UNL     2      -8.036  15.312  68.098  1.00  0.00    -0.136 C  
BRANCH  24  25
HETATM   25  C   UNL     2      -9.516  15.573  67.931  1.00  0.00    -0.201 C  
HETATM   26  C   UNL     2      -9.950  17.058  67.941  1.00  0.00    -0.281 C  
HETATM   27  C   UNL     2     -11.381  16.975  67.468  1.00  0.00     0.312 C  
HETATM   28  O   UNL     2      -9.283  17.889  66.996  1.00  0.00    -0.249 OA 
HETATM   29  H   UNL     2      -9.548  18.801  67.002  1.00  0.00     0.000 HD 
HETATM   30  C   UNL     2     -11.320  15.970  66.319  1.00  0.00     0.297 C  
HETATM   31  C   UNL     2     -10.158  14.992  66.635  1.00  0.00    -0.267 C  
HETATM   32  O   UNL     2     -12.600  15.368  66.205  1.00  0.00     0.683 OA 
HETATM   33  H   UNL     2     -12.562  14.743  65.490  1.00  0.00     0.000 HD 
BRANCH  31  34
HETATM   34  C   UNL     2     -10.564  13.507  66.769  1.00  0.00    -0.272 C  
BRANCH  34  35
HETATM   35  C   UNL     2      -9.471  12.618  67.317  1.00  0.00    -0.199 C  
HETATM   36  C   UNL     2      -9.588  11.519  68.078  1.00  0.00    -0.180 C  
BRANCH  36  37
HETATM   37  C   UNL     2     -10.850  10.884  68.585  1.00  0.00    -0.258 C  
BRANCH  37  38
HETATM   38  C   UNL     2     -11.590  11.742  69.614  1.00  0.00    -0.393 C  
BRANCH  38  39
HETATM   39  C   UNL     2     -12.687  11.014  70.376  1.00  0.00    -0.297 C  
HETATM   40  C   UNL     2     -12.692  11.113  71.902  1.00  0.00    -0.188 C  
HETATM   41  O   UNL     2     -13.258  10.147  72.485  1.00  0.00    -0.234 OA 
HETATM   42  O   UNL     2     -12.205  12.144  72.470  1.00  0.00     1.327 OA 
ENDBRANCH  38  39
ENDBRANCH  37  38
ENDBRANCH  36  37
ENDBRANCH  34  35
ENDBRANCH  31  34
ENDBRANCH  24  25
ENDBRANCH  17  18
ENDBRANCH  16  17
ENDBRANCH   6  16
TORSDOF 9
ENDMDL
MODEL      358
REMARK 921   NORMALIZED FREE ENERGY PREDICTED BY IDOCK:   54.79 KCAL/MOL
REMARK 922        TOTAL FREE ENERGY PREDICTED BY IDOCK:   81.69 KCAL/MOL
REMARK 923 INTER-LIGAND FREE ENERGY PREDICTED BY IDOCK:   79.19 KCAL/MOL
REMARK 924 INTRA-LIGAND FREE ENERGY PREDICTED BY IDOCK:    2.50 KCAL/MOL
REMARK 927      BINDING AFFINITY PREDICTED BY RF-SCORE:    0.00 PKD
ROOT
HETATM    1  O   UNL     1      -6.690  17.191  65.544  1.00  0.00     0.252 OA 
HETATM    2  C   UNL     1      -5.964  16.617  66.626  1.00  0.00     0.058 C  
HETATM    3  H   UNL     1      -6.113  17.597  64.908  1.00  0.00     0.000 HD 
HETATM    4  C   UNL     2      -5.204   8.050  66.344  1.00  0.00    -0.025 C  
HETATM    5  C   UNL     1      -6.909  15.952  67.668  1.00  0.00    -0.166 C  
HETATM    6  C   UNL     2      -6.439   8.764  66.873  1.00  0.00    -0.061 C  
HETATM    7  C   UNL     1      -7.796  14.899  66.948  1.00  0.00     0.030 C  
HETATM    8  N   UNL     1      -6.022  15.266  68.660  1.00  0.00    -0.088 NA 
HETATM    9  C   UNL     1      -7.723  16.924  68.509  1.00  0.00    -0.227 C  
HETATM   10  H   UNL     1      -7.341  18.181  69.957  1.00  0.00     0.000 HD 
HETATM   11  H   UNL     1      -7.528  13.281  65.844  1.00  0.00     0.000 HD 
HETATM   12  H2  UNL     1      -5.328  15.885  69.079  1.00  0.00     0.000 HD 
HETATM   13  O   UNL     1      -6.986  13.924  66.283  1.00  0.00     1.983 OA 
HETATM   14  O   UNL     1      -6.833  17.574  69.432  1.00  0.00    -0.233 OA 
HETATM   15  H1  UNL     1      -6.641  14.830  69.342  1.00  0.00     0.000 HD 
ENDROOT
BRANCH   6  16
HETATM   16  C   UNL     2      -6.121   9.934  67.805  1.00  0.00    -0.054 C  
BRANCH  16  17
HETATM   17  C   UNL     2      -7.332  10.765  68.240  1.00  0.00    -0.086 C  
BRANCH  17  18
HETATM   18  C   UNL     2      -8.681  10.311  67.636  1.00  0.00    -0.121 C  
HETATM   19  C   UNL     2      -9.852  11.320  67.609  1.00  0.00    -0.175 C  
HETATM   20  C   UNL     2     -11.086  10.845  66.829  1.00  0.00    -0.196 C  
HETATM   21  O   UNL     2      -9.379  12.498  66.947  1.00  0.00    -0.206 OA 
HETATM   22  C   UNL     2     -10.251  11.689  69.010  1.00  0.00    -0.077 C  
HETATM   23  H   UNL     2     -10.098  13.118  66.931  1.00  0.00     0.000 HD 
HETATM   24  C   UNL     2     -10.920  10.932  69.897  1.00  0.00    -0.266 C  
BRANCH  24  25
HETATM   25  C   UNL     2     -11.270  11.343  71.309  1.00  0.00     2.107 C  
HETATM   26  C   UNL     2     -11.266  10.215  72.366  1.00  0.00     2.815 C  
HETATM   27  C   UNL     2     -11.355  10.989  73.659  1.00  0.00    14.783 C  
HETATM   28  O   UNL     2     -10.057   9.467  72.451  1.00  0.00     0.659 OA 
HETATM   29  H   UNL     2     -10.054   8.774  73.100  1.00  0.00     0.000 HD 
HETATM   30  C   UNL     2     -10.383  12.149  73.448  1.00  0.00    22.477 C  
HETATM   31  C   UNL     2     -10.367  12.455  71.926  1.00  0.00    11.898 C  
HETATM   32  O   UNL     2     -10.808  13.223  74.273  1.00  0.00     6.575 OA 
HETATM   33  H   UNL     2     -10.203  13.944  74.141  1.00  0.00     0.000 HD 
BRANCH  31  34
HETATM   34  C   UNL     2     -10.807  13.884  71.536  1.00  0.00     3.127 C  
BRANCH  34  35
HETATM   35  C   UNL     2     -11.190  14.032  70.081  1.00  0.00    -0.008 C  
HETATM   36  C   UNL     2     -10.768  14.946  69.194  1.00  0.00    -0.253 C  
BRANCH  36  37
HETATM   37  C   UNL     2      -9.793  16.066  69.422  1.00  0.00    -0.254 C  
BRANCH  37  38
HETATM   38  C   UNL     2     -10.393  17.451  69.174  1.00  0.00    -0.271 C  
BRANCH  38  39
HETATM   39  C   UNL     2     -10.988  17.646  67.787  1.00  0.00    -0.111 C  
HETATM   40  C   UNL     2     -12.489  17.413  67.608  1.00  0.00     3.816 C  
HETATM   41  O   UNL     2     -12.831  17.097  66.434  1.00  0.00     5.777 OA 
HETATM   42  O   UNL     2     -13.280  17.604  68.588  1.00  0.00     5.714 OA 
ENDBRANCH  38  39
ENDBRANCH  37  38
ENDBRANCH  36  37
ENDBRANCH  34  35
ENDBRANCH  31  34
ENDBRANCH  24  25
ENDBRANCH  17  18
ENDBRANCH  16  17
ENDBRANCH   6  16
TORSDOF 9
ENDMDL
MODEL      359
REMARK 921   NORMALIZED FREE ENERGY PREDICTED BY IDOCK:   58.55 KCAL/MOL
REMARK 922        TOTAL FREE ENERGY PREDICTED BY IDOCK:   87.43 KCAL/MOL
REMARK 923 INTER-LIGAND FREE ENERGY PREDICTED BY IDOCK:   21.39 KCAL/MOL
REMARK 924 INTRA-LIGAND FREE ENERGY PREDICTED BY IDOCK:   66.04 KCAL/MOL
REMARK 927      BINDING AFFINITY PREDICTED BY RF-SCORE:    0.00 PKD
ROOT
HETATM    1  O   UNL     1     -11.560  11.836  65.955  1.00  0.00    -0.388 OA 
HETATM    2  C   UNL     1     -10.975  13.000  65.380  1.00  0.00    -0.275 C  
HETATM    3  H   UNL     1     -11.146  11.041  65.640  1.00  0.00     0.000 HD 
HETATM    4  C   UNL     2      -5.644  17.318  70.574  1.00  0.00    -0.144 C  
HETATM    5  C   UNL     1     -11.654  14.302  65.897  1.00  0.00    -0.358 C  
HETATM    6  C   UNL     2      -7.157  17.468  70.617  1.00  0.00     2.767 C  
HETATM    7  C   UNL     1     -11.584  14.329  67.449  1.00  0.00    -0.369 C  
HETATM    8  N   UNL     1     -10.855  15.439  65.340  1.00  0.00    -0.369 NA 
HETATM    9  C   UNL     1     -13.060  14.544  65.372  1.00  0.00     0.142 C  
HETATM   10  H   UNL     1     -13.845  15.055  63.655  1.00  0.00     0.000 HD 
HETATM   11  H   UNL     1     -10.185  14.253  68.844  1.00  0.00     0.000 HD 
HETATM   12  H2  UNL     1     -10.759  15.407  64.324  1.00  0.00     0.000 HD 
HETATM   13  O   UNL     1     -10.227  14.236  67.896  1.00  0.00    -0.231 OA 
HETATM   14  O   UNL     1     -12.966  14.904  63.984  1.00  0.00    -0.558 OA 
HETATM   15  H1  UNL     1     -11.300  16.292  65.679  1.00  0.00     0.000 HD 
ENDROOT
BRANCH   6  16
HETATM   16  C   UNL     2      -7.801  17.598  69.235  1.00  0.00     0.133 C  
BRANCH  16  17
HETATM   17  C   UNL     2      -7.068  18.527  68.262  1.00  0.00    -0.270 C  
BRANCH  17  18
HETATM   18  C   UNL     2      -5.964  17.845  67.421  1.00  0.00    -0.161 C  
HETATM   19  C   UNL     2      -6.386  16.806  66.356  1.00  0.00     0.124 C  
HETATM   20  C   UNL     2      -5.246  16.323  65.448  1.00  0.00     4.294 C  
HETATM   21  O   UNL     2      -7.345  17.441  65.504  1.00  0.00    -0.270 OA 
HETATM   22  C   UNL     2      -7.042  15.626  67.015  1.00  0.00    -0.127 C  
HETATM   23  H   UNL     2      -7.605  16.803  64.851  1.00  0.00     0.000 HD 
HETATM   24  C   UNL     2      -6.450  14.655  67.732  1.00  0.00    -0.182 C  
BRANCH  24  25
HETATM   25  C   UNL     2      -7.165  13.503  68.401  1.00  0.00    -0.109 C  
HETATM   26  C   UNL     2      -8.105  12.671  67.499  1.00  0.00    -0.178 C  
HETATM   27  C   UNL     2      -8.405  11.474  68.369  1.00  0.00    -0.154 C  
HETATM   28  O   UNL     2      -7.504  12.145  66.319  1.00  0.00    -0.259 OA 
HETATM   29  H   UNL     2      -8.082  11.633  65.765  1.00  0.00     0.000 HD 
HETATM   30  C   UNL     2      -7.046  11.121  68.972  1.00  0.00    -0.113 C  
HETATM   31  C   UNL     2      -6.242  12.444  69.078  1.00  0.00    -0.083 C  
HETATM   32  O   UNL     2      -7.281  10.459  70.205  1.00  0.00    -0.181 OA 
HETATM   33  H   UNL     2      -6.436  10.240  70.580  1.00  0.00     0.000 HD 
BRANCH  31  34
HETATM   34  C   UNL     2      -5.808  12.839  70.508  1.00  0.00    -0.132 C  
BRANCH  34  35
HETATM   35  C   UNL     2      -5.382  14.283  70.643  1.00  0.00    -0.127 C  
HETATM   36  C   UNL     2      -5.246  15.210  69.682  1.00  0.00    -0.090 C  
BRANCH  36  37
HETATM   37  C   UNL     2      -5.487  15.046  68.208  1.00  0.00    -0.118 C  
BRANCH  37  38
HETATM   38  C   UNL     2      -6.395  13.862  67.871  1.00  0.00    -0.167 C  
BRANCH  38  39
HETATM   39  C   UNL     2      -6.085  13.182  66.545  1.00  0.00     2.337 C  
HETATM   40  C   UNL     2      -7.104  13.313  65.413  1.00  0.00     7.910 C  
HETATM   41  O   UNL     2      -7.067  12.376  64.567  1.00  0.00     4.944 OA 
HETATM   42  O   UNL     2      -7.854  14.341  65.353  1.00  0.00     4.151 OA 
ENDBRANCH  38  39
ENDBRANCH  37  38
ENDBRANCH  36  37
ENDBRANCH  34  35
ENDBRANCH  31  34
ENDBRANCH  24  25
ENDBRANCH  17  18
ENDBRANCH  16  17
ENDBRANCH   6  16
TORSDOF 9
ENDMDL
MODEL      360
REMARK 921   NORMALIZED FREE ENERGY PREDICTED BY IDOCK:   85.91 KCAL/MOL
REMARK 922        TOTAL FREE ENERGY PREDICTED BY IDOCK:  129.19 KCAL/MOL
REMARK 923 INTER-LIGAND FREE ENERGY PREDICTED BY IDOCK:   62.40 KCAL/MOL
REMARK 924 INTRA-LIGAND FREE ENERGY PREDICTED BY IDOCK:   66.78 KCAL/MOL
REMARK 927      BINDING AFFINITY PREDICTED BY RF-SCORE:    0.00 PKD
ROOT
HETATM    1  O   UNL     1     -10.580  12.191  67.999  1.00  0.00    -0.198 OA 
HETATM    2  C   UNL     1     -11.108  13.512  67.939  1.00  0.00    -0.265 C  
HETATM    3  H   UNL     1     -10.798  11.689  67.222  1.00  0.00     0.000 HD 
HETATM    4  C   UNL     2      -5.356  19.628  66.052  1.00  0.00    -0.165 C  
HETATM    5  C   UNL     1     -10.749  14.334  69.211  1.00  0.00    -0.172 C  
HETATM    6  C   UNL     2      -5.545  19.060  67.450  1.00  0.00    -0.161 C  
HETATM    7  C   UNL     1      -9.206  14.338  69.395  1.00  0.00     0.401 C  
HETATM    8  N   UNL     1     -11.227  15.729  68.955  1.00  0.00    -0.309 NA 
HETATM    9  C   UNL     1     -11.487  13.916  70.474  1.00  0.00     0.058 C  
HETATM   10  H   UNL     1     -13.320  14.064  71.138  1.00  0.00     0.000 HD 
HETATM   11  H   UNL     1      -7.617  14.870  68.346  1.00  0.00     0.000 HD 
HETATM   12  H2  UNL     1     -12.215  15.781  68.704  1.00  0.00     0.000 HD 
HETATM   13  O   UNL     1      -8.560  14.868  68.233  1.00  0.00    -0.149 OA 
HETATM   14  O   UNL     1     -12.859  14.326  70.349  1.00  0.00    -0.336 OA 
HETATM   15  H1  UNL     1     -10.992  16.268  69.788  1.00  0.00     0.000 HD 
ENDROOT
BRANCH   6  16
HETATM   16  C   UNL     2      -7.011  18.924  67.866  1.00  0.00    -0.247 C  
BRANCH  16  17
HETATM   17  C   UNL     2      -7.254  18.081  69.122  1.00  0.00    -0.156 C  
BRANCH  17  18
HETATM   18  C   UNL     2      -6.742  16.624  69.035  1.00  0.00    -0.202 C  
HETATM   19  C   UNL     2      -7.745  15.515  68.642  1.00  0.00    -0.144 C  
HETATM   20  C   UNL     2      -7.111  14.137  68.402  1.00  0.00    -0.104 C  
HETATM   21  O   UNL     2      -8.346  15.909  67.404  1.00  0.00    -0.155 OA 
HETATM   22  C   UNL     2      -8.825  15.400  69.681  1.00  0.00    -0.138 C  
HETATM   23  H   UNL     2      -8.962  15.228  67.163  1.00  0.00     0.000 HD 
HETATM   24  C   UNL     2      -8.722  14.875  70.913  1.00  0.00     2.544 C  
BRANCH  24  25
HETATM   25  C   UNL     2      -9.837  14.812  71.933  1.00  0.00     3.771 C  
HETATM   26  C   UNL     2      -9.512  14.074  73.252  1.00  0.00    10.695 C  
HETATM   27  C   UNL     2     -10.687  14.446  74.123  1.00  0.00     4.619 C  
HETATM   28  O   UNL     2      -8.359  14.547  73.942  1.00  0.00     5.745 OA 
HETATM   29  H   UNL     2      -8.159  14.094  74.752  1.00  0.00     0.000 HD 
HETATM   30  C   UNL     2     -10.879  15.937  73.846  1.00  0.00     3.726 C  
HETATM   31  C   UNL     2     -10.405  16.190  72.391  1.00  0.00     3.803 C  
HETATM   32  O   UNL     2     -12.240  16.250  74.099  1.00  0.00    -0.499 OA 
HETATM   33  H   UNL     2     -12.360  17.176  73.926  1.00  0.00     0.000 HD 
BRANCH  31  34
HETATM   34  C   UNL     2     -11.481  16.754  71.435  1.00  0.00     0.300 C  
BRANCH  34  35
HETATM   35  C   UNL     2     -10.977  17.029  70.037  1.00  0.00     0.311 C  
HETATM   36  C   UNL     2     -10.208  18.042  69.608  1.00  0.00     0.388 C  
BRANCH  36  37
HETATM   37  C   UNL     2      -9.643  19.173  70.418  1.00  0.00     1.461 C  
BRANCH  37  38
HETATM   38  C   UNL     2     -10.094  19.155  71.880  1.00  0.00     3.731 C  
BRANCH  38  39
HETATM   39  C   UNL     2     -11.109  18.073  72.218  1.00  0.00     2.766 C  
HETATM   40  C   UNL     2     -12.311  18.457  73.082  1.00  0.00     6.159 C  
HETATM   41  O   UNL     2     -12.816  17.497  73.729  1.00  0.00     0.978 OA 
HETATM   42  O   UNL     2     -12.753  19.652  73.054  1.00  0.00    14.346 OA 
ENDBRANCH  38  39
ENDBRANCH  37  38
ENDBRANCH  36  37
ENDBRANCH  34  35
ENDBRANCH  31  34
ENDBRANCH  24  25
ENDBRANCH  17  18
ENDBRANCH  16  17
ENDBRANCH   6  16
TORSDOF 9
ENDMDL
