MODEL        1
REMARK 921   NORMALIZED FREE ENERGY PREDICTED BY IDOCK:   -7.35 KCAL/MOL
REMARK 922        TOTAL FREE ENERGY PREDICTED BY IDOCK:   -8.23 KCAL/MOL
REMARK 923 INTER-LIGAND FREE ENERGY PREDICTED BY IDOCK:   -7.78 KCAL/MOL
REMARK 924 INTRA-LIGAND FREE ENERGY PREDICTED BY IDOCK:   -0.44 KCAL/MOL
REMARK 927      BINDING AFFINITY PREDICTED BY RF-SCORE:    0.00 PKD
ROOT
HETATM    1  C   UNL     1     -10.227  17.072  68.220  1.00  0.00    -0.326 C  
HETATM    2  S   UNL     1      -8.459  16.827  68.676  1.00  0.00    -0.260 SA 
HETATM    3  C   UNL     1      -7.792  17.753  67.229  1.00  0.00    -0.211 C  
HETATM    4  CA  UNL     1      -8.944  18.698  66.802  1.00  0.00    -0.297 C  
HETATM    5  C   UNL     1      -7.447  16.721  66.137  1.00  0.00    -0.119 C  
HETATM    6  C   UNL     1      -6.480  18.434  67.628  1.00  0.00    -0.199 C  
HETATM    7  N   UNL     1     -10.213  17.980  67.052  1.00  0.00    -0.346 N  
HETATM    8  C   UNL     1      -9.017  20.041  67.552  1.00  0.00    -0.346 C  
HETATM    9  C   UNL     1     -10.627  17.010  66.176  1.00  0.00    -0.194 C  
HETATM   10  OXT UNL     1      -8.094  20.832  67.661  1.00  0.00    -0.220 OA 
HETATM   11  O   UNL     1     -10.255  20.330  68.031  1.00  0.00    -0.383 OA 
HETATM   12  CA  UNL     1     -10.901  16.002  67.316  1.00  0.00    -0.255 C  
HETATM   13  O   UNL     1     -10.580  16.968  64.967  1.00  0.00    -0.703 OA 
ENDROOT
BRANCH  12  14
HETATM   14  N   UNL     1     -10.226  14.676  67.232  1.00  0.00    -0.240 N  
HETATM   15  C   UNL     1     -10.989  13.531  67.275  1.00  0.00    -0.280 C  
HETATM   16  H   UNL     1      -9.211  14.617  67.143  1.00  0.00     0.000 HD 
HETATM   17  C   UNL     1     -10.246  12.211  67.343  1.00  0.00    -0.211 C  
HETATM   18  O   UNL     1     -12.222  13.582  67.250  1.00  0.00    -0.351 OA 
HETATM   19  C   UNL     1     -10.933  11.181  68.231  1.00  0.00    -0.226 C  
HETATM   20  C   UNL     1      -9.960  11.646  65.959  1.00  0.00    -0.260 A  
HETATM   21  O   UNL     1     -12.271  11.300  68.389  1.00  0.00    -0.604 OA 
HETATM   22  C   UNL     1      -8.851  10.803  65.771  1.00  0.00    -0.201 A  
HETATM   23  O   UNL     1     -10.319  10.260  68.763  1.00  0.00    -0.175 OA 
HETATM   24  C   UNL     1      -8.589  10.246  64.518  1.00  0.00    -0.195 A  
HETATM   25  C   UNL     1      -9.425  10.522  63.439  1.00  0.00    -0.354 A  
HETATM   26  C   UNL     1     -10.528  11.352  63.610  1.00  0.00    -0.472 A  
HETATM   27  C   UNL     1     -10.799  11.904  64.862  1.00  0.00    -0.356 A  
ENDBRANCH  12  14
TORSDOF 1
ENDMDL
MODEL        2
REMARK 921   NORMALIZED FREE ENERGY PREDICTED BY IDOCK:   -7.29 KCAL/MOL
REMARK 922        TOTAL FREE ENERGY PREDICTED BY IDOCK:   -8.16 KCAL/MOL
REMARK 923 INTER-LIGAND FREE ENERGY PREDICTED BY IDOCK:   -7.64 KCAL/MOL
REMARK 924 INTRA-LIGAND FREE ENERGY PREDICTED BY IDOCK:   -0.52 KCAL/MOL
REMARK 927      BINDING AFFINITY PREDICTED BY RF-SCORE:    0.00 PKD
ROOT
HETATM    1  C   UNL     1      -8.274  16.197  69.054  1.00  0.00    -0.244 C  
HETATM    2  S   UNL     1      -7.224  16.085  67.545  1.00  0.00    -0.187 SA 
HETATM    3  C   UNL     1      -8.128  17.403  66.626  1.00  0.00    -0.259 C  
HETATM    4  CA  UNL     1      -8.797  18.262  67.728  1.00  0.00    -0.263 C  
HETATM    5  C   UNL     1      -9.161  16.708  65.716  1.00  0.00    -0.032 C  
HETATM    6  C   UNL     1      -7.148  18.137  65.706  1.00  0.00    -0.256 C  
HETATM    7  N   UNL     1      -9.177  17.346  68.826  1.00  0.00    -0.267 N  
HETATM    8  C   UNL     1      -7.918  19.371  68.335  1.00  0.00    -0.341 C  
HETATM    9  C   UNL     1     -10.295  16.562  68.698  1.00  0.00    -0.287 C  
HETATM   10  OXT UNL     1      -7.332  20.229  67.694  1.00  0.00    -0.282 OA 
HETATM   11  O   UNL     1      -7.908  19.376  69.694  1.00  0.00    -0.040 OA 
HETATM   12  CA  UNL     1      -9.534  15.289  69.134  1.00  0.00    -0.236 C  
HETATM   13  O   UNL     1     -11.382  16.811  68.227  1.00  0.00    -0.274 OA 
ENDROOT
BRANCH  12  14
HETATM   14  N   UNL     1      -9.575  14.119  68.212  1.00  0.00    -0.221 N  
HETATM   15  C   UNL     1     -10.678  13.296  68.221  1.00  0.00    -0.252 C  
HETATM   16  H   UNL     1      -8.795  13.930  67.581  1.00  0.00     0.000 HD 
HETATM   17  C   UNL     1     -10.605  12.036  67.379  1.00  0.00    -0.253 C  
HETATM   18  O   UNL     1     -11.683  13.580  68.878  1.00  0.00    -0.293 OA 
HETATM   19  C   UNL     1     -11.285  10.840  68.032  1.00  0.00    -0.307 C  
HETATM   20  C   UNL     1     -11.121  12.265  65.966  1.00  0.00    -0.347 A  
HETATM   21  O   UNL     1     -12.280  11.100  68.910  1.00  0.00    -0.522 OA 
HETATM   22  C   UNL     1     -10.637  11.468  64.915  1.00  0.00    -0.360 A  
HETATM   23  O   UNL     1     -10.976   9.682  67.761  1.00  0.00    -0.260 OA 
HETATM   24  C   UNL     1     -11.120  11.635  63.616  1.00  0.00    -0.506 A  
HETATM   25  C   UNL     1     -12.090  12.599  63.348  1.00  0.00    -0.614 A  
HETATM   26  C   UNL     1     -12.582  13.393  64.379  1.00  0.00    -0.254 A  
HETATM   27  C   UNL     1     -12.108  13.223  65.679  1.00  0.00    -0.488 A  
ENDBRANCH  12  14
TORSDOF 1
ENDMDL
MODEL        3
REMARK 921   NORMALIZED FREE ENERGY PREDICTED BY IDOCK:   -7.12 KCAL/MOL
REMARK 922        TOTAL FREE ENERGY PREDICTED BY IDOCK:   -7.98 KCAL/MOL
REMARK 923 INTER-LIGAND FREE ENERGY PREDICTED BY IDOCK:   -7.45 KCAL/MOL
REMARK 924 INTRA-LIGAND FREE ENERGY PREDICTED BY IDOCK:   -0.53 KCAL/MOL
REMARK 927      BINDING AFFINITY PREDICTED BY RF-SCORE:    0.00 PKD
ROOT
HETATM    1  C   UNL     1      -8.826  10.125  65.439  1.00  0.00    -0.173 C  
HETATM    2  S   UNL     1      -7.310  10.821  66.222  1.00  0.00    -0.123 SA 
HETATM    3  C   UNL     1      -7.697  10.185  67.908  1.00  0.00    -0.089 C  
HETATM    4  CA  UNL     1      -8.646   8.984  67.668  1.00  0.00    -0.120 C  
HETATM    5  C   UNL     1      -8.383  11.326  68.687  1.00  0.00    -0.146 C  
HETATM    6  C   UNL     1      -6.389   9.871  68.639  1.00  0.00    -0.045 C  
HETATM    7  N   UNL     1      -9.478   9.314  66.490  1.00  0.00    -0.185 N  
HETATM    8  C   UNL     1      -7.956   7.637  67.382  1.00  0.00    -0.119 C  
HETATM    9  C   UNL     1     -10.536  10.176  66.629  1.00  0.00    -0.144 C  
HETATM   10  OXT UNL     1      -7.104   7.124  68.090  1.00  0.00    -0.079 OA 
HETATM   11  O   UNL     1      -8.444   6.997  66.288  1.00  0.00    -0.122 OA 
HETATM   12  CA  UNL     1     -10.101  11.013  65.403  1.00  0.00    -0.269 C  
HETATM   13  O   UNL     1     -11.349  10.288  67.518  1.00  0.00    -0.335 OA 
ENDROOT
BRANCH  12  14
HETATM   14  N   UNL     1      -9.904  12.476  65.611  1.00  0.00    -0.355 N  
HETATM   15  C   UNL     1     -10.977  13.324  65.462  1.00  0.00    -0.282 C  
HETATM   16  H   UNL     1      -8.985  12.844  65.859  1.00  0.00     0.000 HD 
HETATM   17  C   UNL     1     -10.692  14.813  65.530  1.00  0.00    -0.369 C  
HETATM   18  O   UNL     1     -12.119  12.889  65.292  1.00  0.00    -0.397 OA 
HETATM   19  C   UNL     1     -11.535  15.629  64.558  1.00  0.00    -0.300 C  
HETATM   20  C   UNL     1     -10.806  15.351  66.949  1.00  0.00    -0.313 A  
HETATM   21  O   UNL     1     -12.727  15.108  64.189  1.00  0.00    -0.694 OA 
HETATM   22  C   UNL     1     -10.064  16.485  67.322  1.00  0.00    -0.273 A  
HETATM   23  O   UNL     1     -11.175  16.727  64.142  1.00  0.00    -1.155 OA 
HETATM   24  C   UNL     1     -10.179  17.016  68.607  1.00  0.00    -0.321 A  
HETATM   25  C   UNL     1     -11.031  16.426  69.537  1.00  0.00    -0.317 A  
HETATM   26  C   UNL     1     -11.775  15.305  69.182  1.00  0.00    -0.355 A  
HETATM   27  C   UNL     1     -11.670  14.775  67.896  1.00  0.00    -0.367 A  
ENDBRANCH  12  14
TORSDOF 1
ENDMDL
MODEL        4
REMARK 921   NORMALIZED FREE ENERGY PREDICTED BY IDOCK:   -7.07 KCAL/MOL
REMARK 922        TOTAL FREE ENERGY PREDICTED BY IDOCK:   -7.93 KCAL/MOL
REMARK 923 INTER-LIGAND FREE ENERGY PREDICTED BY IDOCK:   -7.64 KCAL/MOL
REMARK 924 INTRA-LIGAND FREE ENERGY PREDICTED BY IDOCK:   -0.29 KCAL/MOL
REMARK 927      BINDING AFFINITY PREDICTED BY RF-SCORE:    0.00 PKD
ROOT
HETATM    1  C   UNL     1     -10.380  14.792  68.725  1.00  0.00    -0.248 C  
HETATM    2  S   UNL     1     -11.482  14.965  67.259  1.00  0.00    -0.308 SA 
HETATM    3  C   UNL     1     -10.903  13.417  66.443  1.00  0.00    -0.289 C  
HETATM    4  CA  UNL     1     -10.342  12.549  67.598  1.00  0.00    -0.218 C  
HETATM    5  C   UNL     1      -9.815  13.809  65.423  1.00  0.00    -0.171 C  
HETATM    6  C   UNL     1     -12.060  12.805  65.647  1.00  0.00    -0.514 C  
HETATM    7  N   UNL     1      -9.728  13.473  68.578  1.00  0.00    -0.204 N  
HETATM    8  C   UNL     1     -11.376  11.695  68.353  1.00  0.00    -0.279 C  
HETATM    9  C   UNL     1      -8.492  14.008  68.323  1.00  0.00    -0.171 C  
HETATM   10  OXT UNL     1     -12.153  10.912  67.830  1.00  0.00    -0.527 OA 
HETATM   11  O   UNL     1     -11.302  11.818  69.705  1.00  0.00    -0.259 OA 
HETATM   12  CA  UNL     1      -8.969  15.440  68.657  1.00  0.00    -0.191 C  
HETATM   13  O   UNL     1      -7.503  13.510  67.834  1.00  0.00    -0.120 OA 
ENDROOT
BRANCH  12  14
HETATM   14  N   UNL     1      -8.764  16.489  67.617  1.00  0.00    -0.189 N  
HETATM   15  C   UNL     1      -9.342  17.726  67.789  1.00  0.00    -0.257 C  
HETATM   16  H   UNL     1      -8.202  16.292  66.788  1.00  0.00     0.000 HD 
HETATM   17  C   UNL     1      -9.233  18.703  66.634  1.00  0.00    -0.321 C  
HETATM   18  O   UNL     1      -9.912  18.026  68.841  1.00  0.00    -0.370 OA 
HETATM   19  C   UNL     1     -10.484  19.552  66.448  1.00  0.00    -0.498 C  
HETATM   20  C   UNL     1      -7.986  19.569  66.736  1.00  0.00    -0.307 A  
HETATM   21  O   UNL     1     -11.254  19.761  67.539  1.00  0.00    -0.212 OA 
HETATM   22  C   UNL     1      -7.408  20.091  65.566  1.00  0.00    -0.270 A  
HETATM   23  O   UNL     1     -10.779  20.056  65.367  1.00  0.00    -0.388 OA 
HETATM   24  C   UNL     1      -6.284  20.916  65.637  1.00  0.00    -0.265 A  
HETATM   25  C   UNL     1      -5.722  21.230  66.872  1.00  0.00    -0.361 A  
HETATM   26  C   UNL     1      -6.284  20.724  68.039  1.00  0.00    -0.373 A  
HETATM   27  C   UNL     1      -7.412  19.906  67.973  1.00  0.00    -0.332 A  
ENDBRANCH  12  14
TORSDOF 1
ENDMDL
MODEL        5
REMARK 921   NORMALIZED FREE ENERGY PREDICTED BY IDOCK:   -7.01 KCAL/MOL
REMARK 922        TOTAL FREE ENERGY PREDICTED BY IDOCK:   -7.86 KCAL/MOL
REMARK 923 INTER-LIGAND FREE ENERGY PREDICTED BY IDOCK:   -7.42 KCAL/MOL
REMARK 924 INTRA-LIGAND FREE ENERGY PREDICTED BY IDOCK:   -0.44 KCAL/MOL
REMARK 927      BINDING AFFINITY PREDICTED BY RF-SCORE:    0.00 PKD
ROOT
HETATM    1  C   UNL     1      -9.136  11.514  67.261  1.00  0.00    -0.164 C  
HETATM    2  S   UNL     1      -8.881  10.953  68.997  1.00  0.00    -0.038 SA 
HETATM    3  C   UNL     1     -10.497  10.075  69.118  1.00  0.00    -0.219 C  
HETATM    4  CA  UNL     1     -10.880   9.753  67.652  1.00  0.00    -0.239 C  
HETATM    5  C   UNL     1     -11.499  11.038  69.787  1.00  0.00    -0.387 C  
HETATM    6  C   UNL     1     -10.347   8.871  70.052  1.00  0.00    -0.219 C  
HETATM    7  N   UNL     1     -10.392  10.872  66.817  1.00  0.00    -0.232 N  
HETATM    8  C   UNL     1     -10.285   8.454  67.078  1.00  0.00    -0.307 C  
HETATM    9  C   UNL     1     -11.092  12.050  66.785  1.00  0.00    -0.305 C  
HETATM   10  OXT UNL     1     -10.384   7.351  67.593  1.00  0.00    -0.195 OA 
HETATM   11  O   UNL     1      -9.690   8.616  65.867  1.00  0.00    -0.209 OA 
HETATM   12  CA  UNL     1      -9.819  12.891  67.033  1.00  0.00    -0.233 C  
HETATM   13  O   UNL     1     -12.284  12.257  66.763  1.00  0.00    -0.558 OA 
ENDROOT
BRANCH  12  14
HETATM   14  N   UNL     1      -9.836  13.830  68.191  1.00  0.00    -0.232 N  
HETATM   15  C   UNL     1     -10.550  15.002  68.094  1.00  0.00    -0.248 C  
HETATM   16  H   UNL     1      -9.323  13.607  69.046  1.00  0.00     0.000 HD 
HETATM   17  C   UNL     1     -10.409  15.991  69.236  1.00  0.00    -0.251 C  
HETATM   18  O   UNL     1     -11.280  15.229  67.126  1.00  0.00    -0.334 OA 
HETATM   19  C   UNL     1     -10.402  17.442  68.773  1.00  0.00    -0.357 C  
HETATM   20  C   UNL     1     -11.450  15.760  70.322  1.00  0.00    -0.369 A  
HETATM   21  O   UNL     1     -11.035  17.721  67.611  1.00  0.00    -0.301 OA 
HETATM   22  C   UNL     1     -11.165  16.138  71.645  1.00  0.00    -0.063 A  
HETATM   23  O   UNL     1      -9.876  18.337  69.431  1.00  0.00    -0.115 OA 
HETATM   24  C   UNL     1     -12.117  15.968  72.652  1.00  0.00    -0.640 A  
HETATM   25  C   UNL     1     -13.362  15.419  72.354  1.00  0.00    -0.557 A  
HETATM   26  C   UNL     1     -13.660  15.043  71.048  1.00  0.00    -0.442 A  
HETATM   27  C   UNL     1     -12.715  15.219  70.038  1.00  0.00    -0.206 A  
ENDBRANCH  12  14
TORSDOF 1
ENDMDL
MODEL        6
REMARK 921   NORMALIZED FREE ENERGY PREDICTED BY IDOCK:   -6.99 KCAL/MOL
REMARK 922        TOTAL FREE ENERGY PREDICTED BY IDOCK:   -7.84 KCAL/MOL
REMARK 923 INTER-LIGAND FREE ENERGY PREDICTED BY IDOCK:   -7.38 KCAL/MOL
REMARK 924 INTRA-LIGAND FREE ENERGY PREDICTED BY IDOCK:   -0.46 KCAL/MOL
REMARK 927      BINDING AFFINITY PREDICTED BY RF-SCORE:    0.00 PKD
ROOT
HETATM    1  C   UNL     1     -12.201  13.667  65.917  1.00  0.00    -0.461 C  
HETATM    2  S   UNL     1     -11.682  14.577  67.432  1.00  0.00    -0.384 SA 
HETATM    3  C   UNL     1     -10.180  15.319  66.665  1.00  0.00    -0.271 C  
HETATM    4  CA  UNL     1     -10.472  15.314  65.143  1.00  0.00    -0.411 C  
HETATM    5  C   UNL     1      -8.980  14.423  67.034  1.00  0.00    -0.257 C  
HETATM    6  C   UNL     1      -9.919  16.691  67.293  1.00  0.00    -0.270 C  
HETATM    7  N   UNL     1     -11.266  14.099  64.855  1.00  0.00    -0.355 N  
HETATM    8  C   UNL     1     -11.267  16.521  64.613  1.00  0.00    -0.115 C  
HETATM    9  C   UNL     1     -10.639  12.881  64.782  1.00  0.00    -0.342 C  
HETATM   10  OXT UNL     1     -10.962  17.690  64.788  1.00  0.00    -0.917 OA 
HETATM   11  O   UNL     1     -12.326  16.177  63.835  1.00  0.00    -0.895 OA 
HETATM   12  CA  UNL     1     -11.673  12.218  65.721  1.00  0.00    -0.385 C  
HETATM   13  O   UNL     1      -9.573  12.572  64.301  1.00  0.00     0.005 OA 
ENDROOT
BRANCH  12  14
HETATM   14  N   UNL     1     -11.150  11.526  66.934  1.00  0.00    -0.296 N  
HETATM   15  C   UNL     1     -10.557  10.292  66.798  1.00  0.00    -0.185 C  
HETATM   16  H   UNL     1     -11.230  11.963  67.853  1.00  0.00     0.000 HD 
HETATM   17  C   UNL     1     -10.183   9.564  68.076  1.00  0.00    -0.244 C  
HETATM   18  O   UNL     1     -10.333   9.808  65.686  1.00  0.00    -0.199 OA 
HETATM   19  C   UNL     1     -10.400   8.059  67.993  1.00  0.00    -0.206 C  
HETATM   20  C   UNL     1      -8.767   9.896  68.527  1.00  0.00    -0.121 A  
HETATM   21  O   UNL     1     -10.348   7.496  66.764  1.00  0.00    -0.288 OA 
HETATM   22  C   UNL     1      -8.438   9.815  69.891  1.00  0.00    -0.217 A  
HETATM   23  O   UNL     1     -10.585   7.368  68.991  1.00  0.00    -0.214 OA 
HETATM   24  C   UNL     1      -7.139  10.081  70.324  1.00  0.00    -0.156 A  
HETATM   25  C   UNL     1      -6.152  10.432  69.406  1.00  0.00    -0.044 A  
HETATM   26  C   UNL     1      -6.461  10.514  68.052  1.00  0.00    -0.059 A  
HETATM   27  C   UNL     1      -7.757  10.241  67.614  1.00  0.00    -0.090 A  
ENDBRANCH  12  14
TORSDOF 1
ENDMDL
MODEL        7
REMARK 921   NORMALIZED FREE ENERGY PREDICTED BY IDOCK:   -6.95 KCAL/MOL
REMARK 922        TOTAL FREE ENERGY PREDICTED BY IDOCK:   -7.79 KCAL/MOL
REMARK 923 INTER-LIGAND FREE ENERGY PREDICTED BY IDOCK:   -7.34 KCAL/MOL
REMARK 924 INTRA-LIGAND FREE ENERGY PREDICTED BY IDOCK:   -0.46 KCAL/MOL
REMARK 927      BINDING AFFINITY PREDICTED BY RF-SCORE:    0.00 PKD
ROOT
HETATM    1  C   UNL     1     -11.926  13.172  66.552  1.00  0.00    -0.398 C  
HETATM    2  S   UNL     1     -11.240  14.501  67.627  1.00  0.00    -0.337 SA 
HETATM    3  C   UNL     1     -10.003  15.082  66.390  1.00  0.00    -0.279 C  
HETATM    4  CA  UNL     1     -10.573  14.630  65.022  1.00  0.00    -0.439 C  
HETATM    5  C   UNL     1      -8.661  14.397  66.720  1.00  0.00    -0.187 C  
HETATM    6  C   UNL     1      -9.788  16.588  66.562  1.00  0.00    -0.292 C  
HETATM    7  N   UNL     1     -11.262  13.339  65.241  1.00  0.00    -0.292 N  
HETATM    8  C   UNL     1     -11.586  15.590  64.372  1.00  0.00    -0.258 C  
HETATM    9  C   UNL     1     -10.526  12.189  65.361  1.00  0.00    -0.270 C  
HETATM   10  OXT UNL     1     -11.390  16.777  64.163  1.00  0.00    -1.194 OA 
HETATM   11  O   UNL     1     -12.726  14.979  63.956  1.00  0.00    -0.772 OA 
HETATM   12  CA  UNL     1     -11.282  11.759  66.640  1.00  0.00    -0.323 C  
HETATM   13  O   UNL     1      -9.540  11.819  64.765  1.00  0.00    -0.196 OA 
ENDROOT
BRANCH  12  14
HETATM   14  N   UNL     1     -10.465  11.470  67.853  1.00  0.00    -0.179 N  
HETATM   15  C   UNL     1     -10.470  10.198  68.377  1.00  0.00    -0.208 C  
HETATM   16  H   UNL     1      -9.908  12.206  68.289  1.00  0.00     0.000 HD 
HETATM   17  C   UNL     1      -9.749   9.994  69.696  1.00  0.00    -0.255 C  
HETATM   18  O   UNL     1     -11.029   9.266  67.793  1.00  0.00    -0.186 OA 
HETATM   19  C   UNL     1     -10.455   9.010  70.619  1.00  0.00    -0.230 C  
HETATM   20  C   UNL     1      -8.289   9.616  69.495  1.00  0.00    -0.154 A  
HETATM   21  O   UNL     1     -11.237   8.072  70.037  1.00  0.00    -0.208 OA 
HETATM   22  C   UNL     1      -7.347   9.934  70.488  1.00  0.00    -0.085 A  
HETATM   23  O   UNL     1     -10.309   9.034  71.839  1.00  0.00    -0.341 OA 
HETATM   24  C   UNL     1      -6.009   9.566  70.341  1.00  0.00    -0.055 A  
HETATM   25  C   UNL     1      -5.592   8.879  69.204  1.00  0.00    -0.036 A  
HETATM   26  C   UNL     1      -6.513   8.553  68.213  1.00  0.00    -0.060 A  
HETATM   27  C   UNL     1      -7.852   8.912  68.360  1.00  0.00    -0.104 A  
ENDBRANCH  12  14
TORSDOF 1
ENDMDL
MODEL        8
REMARK 921   NORMALIZED FREE ENERGY PREDICTED BY IDOCK:   -6.88 KCAL/MOL
REMARK 922        TOTAL FREE ENERGY PREDICTED BY IDOCK:   -7.73 KCAL/MOL
REMARK 923 INTER-LIGAND FREE ENERGY PREDICTED BY IDOCK:   -7.25 KCAL/MOL
REMARK 924 INTRA-LIGAND FREE ENERGY PREDICTED BY IDOCK:   -0.48 KCAL/MOL
REMARK 927      BINDING AFFINITY PREDICTED BY RF-SCORE:    0.00 PKD
ROOT
HETATM    1  C   UNL     1      -9.107  16.415  65.955  1.00  0.00    -0.282 C  
HETATM    2  S   UNL     1     -10.517  17.592  66.093  1.00  0.00    -0.209 SA 
HETATM    3  C   UNL     1      -9.681  18.698  67.307  1.00  0.00    -0.302 C  
HETATM    4  CA  UNL     1      -8.167  18.445  67.092  1.00  0.00    -0.245 C  
HETATM    5  C   UNL     1     -10.150  18.281  68.715  1.00  0.00    -0.393 C  
HETATM    6  C   UNL     1     -10.158  20.137  67.088  1.00  0.00    -0.590 C  
HETATM    7  N   UNL     1      -8.009  17.016  66.743  1.00  0.00    -0.214 N  
HETATM    8  C   UNL     1      -7.506  19.270  65.973  1.00  0.00    -0.276 C  
HETATM    9  C   UNL     1      -8.071  16.066  67.730  1.00  0.00    -0.142 C  
HETATM   10  OXT UNL     1      -7.555  20.486  65.879  1.00  0.00    -0.129 OA 
HETATM   11  O   UNL     1      -6.765  18.525  65.112  1.00  0.00    -0.517 OA 
HETATM   12  CA  UNL     1      -9.072  15.202  66.927  1.00  0.00    -0.247 C  
HETATM   13  O   UNL     1      -7.631  16.072  68.857  1.00  0.00    -0.165 OA 
ENDROOT
BRANCH  12  14
HETATM   14  N   UNL     1     -10.355  14.844  67.597  1.00  0.00    -0.240 N  
HETATM   15  C   UNL     1     -10.362  13.839  68.537  1.00  0.00    -0.244 C  
HETATM   16  H   UNL     1     -11.217  15.337  67.362  1.00  0.00     0.000 HD 
HETATM   17  C   UNL     1     -11.715  13.408  69.073  1.00  0.00    -0.368 C  
HETATM   18  O   UNL     1      -9.313  13.322  68.930  1.00  0.00     0.048 OA 
HETATM   19  C   UNL     1     -11.811  11.908  69.321  1.00  0.00    -0.318 C  
HETATM   20  C   UNL     1     -12.116  14.201  70.309  1.00  0.00    -0.412 A  
HETATM   21  O   UNL     1     -10.657  11.252  69.577  1.00  0.00    -0.162 OA 
HETATM   22  C   UNL     1     -13.478  14.378  70.606  1.00  0.00     0.000 A  
HETATM   23  O   UNL     1     -12.885  11.312  69.322  1.00  0.00    -0.067 OA 
HETATM   24  C   UNL     1     -13.870  15.072  71.751  1.00  0.00    -0.576 A  
HETATM   25  C   UNL     1     -12.912  15.598  72.615  1.00  0.00    -0.554 A  
HETATM   26  C   UNL     1     -11.560  15.428  72.337  1.00  0.00    -0.545 A  
HETATM   27  C   UNL     1     -11.164  14.728  71.197  1.00  0.00    -0.099 A  
ENDBRANCH  12  14
TORSDOF 1
ENDMDL
MODEL        9
REMARK 921   NORMALIZED FREE ENERGY PREDICTED BY IDOCK:   -6.87 KCAL/MOL
REMARK 922        TOTAL FREE ENERGY PREDICTED BY IDOCK:   -7.71 KCAL/MOL
REMARK 923 INTER-LIGAND FREE ENERGY PREDICTED BY IDOCK:   -7.33 KCAL/MOL
REMARK 924 INTRA-LIGAND FREE ENERGY PREDICTED BY IDOCK:   -0.39 KCAL/MOL
REMARK 927      BINDING AFFINITY PREDICTED BY RF-SCORE:    0.00 PKD
ROOT
HETATM    1  C   UNL     1     -10.556  10.742  67.428  1.00  0.00    -0.242 C  
HETATM    2  S   UNL     1      -8.914  11.572  67.346  1.00  0.00    -0.160 SA 
HETATM    3  C   UNL     1      -8.006  10.212  68.197  1.00  0.00    -0.104 C  
HETATM    4  CA  UNL     1      -8.880   8.953  67.969  1.00  0.00    -0.133 C  
HETATM    5  C   UNL     1      -7.899  10.588  69.688  1.00  0.00    -0.097 C  
HETATM    6  C   UNL     1      -6.576  10.144  67.652  1.00  0.00    -0.067 C  
HETATM    7  N   UNL     1     -10.292   9.394  67.979  1.00  0.00    -0.208 N  
HETATM    8  C   UNL     1      -8.639   8.206  66.644  1.00  0.00    -0.135 C  
HETATM    9  C   UNL     1     -10.911   9.659  69.173  1.00  0.00    -0.190 C  
HETATM   10  OXT UNL     1      -7.553   7.810  66.252  1.00  0.00    -0.084 OA 
HETATM   11  O   UNL     1      -9.779   7.934  65.957  1.00  0.00    -0.081 OA 
HETATM   12  CA  UNL     1     -11.451  11.018  68.669  1.00  0.00    -0.308 C  
HETATM   13  O   UNL     1     -10.847   9.086  70.237  1.00  0.00    -0.226 OA 
ENDROOT
BRANCH  12  14
HETATM   14  N   UNL     1     -11.121  12.226  69.477  1.00  0.00    -0.464 N  
HETATM   15  C   UNL     1     -11.535  13.462  69.035  1.00  0.00    -0.301 C  
HETATM   16  H   UNL     1     -10.594  12.138  70.347  1.00  0.00     0.000 HD 
HETATM   17  C   UNL     1     -11.041  14.670  69.809  1.00  0.00    -0.268 C  
HETATM   18  O   UNL     1     -12.282  13.576  68.060  1.00  0.00    -0.308 OA 
HETATM   19  C   UNL     1     -10.729  15.865  68.917  1.00  0.00    -0.254 C  
HETATM   20  C   UNL     1     -11.991  15.052  70.935  1.00  0.00    -0.374 A  
HETATM   21  O   UNL     1     -11.390  15.944  67.740  1.00  0.00    -0.299 OA 
HETATM   22  C   UNL     1     -11.490  15.715  72.068  1.00  0.00    -0.495 A  
HETATM   23  O   UNL     1      -9.937  16.742  69.251  1.00  0.00    -0.258 OA 
HETATM   24  C   UNL     1     -12.347  16.106  73.098  1.00  0.00    -0.641 A  
HETATM   25  C   UNL     1     -13.712  15.841  73.013  1.00  0.00    -0.583 A  
HETATM   26  C   UNL     1     -14.223  15.189  71.896  1.00  0.00    -0.676 A  
HETATM   27  C   UNL     1     -13.372  14.804  70.861  1.00  0.00    -0.372 A  
ENDBRANCH  12  14
TORSDOF 1
ENDMDL
MODEL       10
REMARK 921   NORMALIZED FREE ENERGY PREDICTED BY IDOCK:   -6.85 KCAL/MOL
REMARK 922        TOTAL FREE ENERGY PREDICTED BY IDOCK:   -7.69 KCAL/MOL
REMARK 923 INTER-LIGAND FREE ENERGY PREDICTED BY IDOCK:   -7.24 KCAL/MOL
REMARK 924 INTRA-LIGAND FREE ENERGY PREDICTED BY IDOCK:   -0.46 KCAL/MOL
REMARK 927      BINDING AFFINITY PREDICTED BY RF-SCORE:    0.00 PKD
ROOT
HETATM    1  C   UNL     1      -9.583  13.747  66.624  1.00  0.00    -0.288 C  
HETATM    2  S   UNL     1      -9.982  12.798  65.096  1.00  0.00    -0.104 SA 
HETATM    3  C   UNL     1     -11.682  13.489  64.920  1.00  0.00    -0.357 C  
HETATM    4  CA  UNL     1     -11.640  14.837  65.684  1.00  0.00    -0.290 C  
HETATM    5  C   UNL     1     -12.659  12.483  65.561  1.00  0.00    -0.045 C  
HETATM    6  C   UNL     1     -12.040  13.571  63.434  1.00  0.00    -0.351 C  
HETATM    7  N   UNL     1     -10.730  14.657  66.836  1.00  0.00    -0.289 N  
HETATM    8  C   UNL     1     -11.129  16.044  64.876  1.00  0.00    -0.370 C  
HETATM    9  C   UNL     1     -11.171  13.991  67.951  1.00  0.00    -0.273 C  
HETATM   10  OXT UNL     1     -11.572  16.401  63.796  1.00  0.00    -1.055 OA 
HETATM   11  O   UNL     1     -10.169  16.761  65.516  1.00  0.00    -0.567 OA 
HETATM   12  CA  UNL     1      -9.913  13.093  67.995  1.00  0.00    -0.233 C  
HETATM   13  O   UNL     1     -12.243  14.020  68.513  1.00  0.00    -0.333 OA 
ENDROOT
BRANCH  12  14
HETATM   14  N   UNL     1     -10.127  11.618  67.999  1.00  0.00    -0.184 N  
HETATM   15  C   UNL     1      -9.101  10.793  68.399  1.00  0.00    -0.164 C  
HETATM   16  H   UNL     1     -11.023  11.224  67.708  1.00  0.00     0.000 HD 
HETATM   17  C   UNL     1      -9.315   9.300  68.237  1.00  0.00    -0.141 C  
HETATM   18  O   UNL     1      -8.060  11.251  68.878  1.00  0.00    -0.140 OA 
HETATM   19  C   UNL     1      -8.054   8.556  67.820  1.00  0.00    -0.115 C  
HETATM   20  C   UNL     1      -9.942   8.676  69.476  1.00  0.00    -0.196 A  
HETATM   21  O   UNL     1      -6.869   9.113  68.160  1.00  0.00    -0.067 OA 
HETATM   22  C   UNL     1     -10.719   7.513  69.348  1.00  0.00    -0.200 A  
HETATM   23  O   UNL     1      -8.093   7.481  67.226  1.00  0.00    -0.112 OA 
HETATM   24  C   UNL     1     -11.276   6.904  70.474  1.00  0.00    -0.353 A  
HETATM   25  C   UNL     1     -11.066   7.446  71.740  1.00  0.00    -0.269 A  
HETATM   26  C   UNL     1     -10.296   8.595  71.884  1.00  0.00    -0.405 A  
HETATM   27  C   UNL     1      -9.731   9.202  70.762  1.00  0.00    -0.337 A  
ENDBRANCH  12  14
TORSDOF 1
ENDMDL
MODEL       11
REMARK 921   NORMALIZED FREE ENERGY PREDICTED BY IDOCK:   -6.74 KCAL/MOL
REMARK 922        TOTAL FREE ENERGY PREDICTED BY IDOCK:   -7.58 KCAL/MOL
REMARK 923 INTER-LIGAND FREE ENERGY PREDICTED BY IDOCK:   -7.05 KCAL/MOL
REMARK 924 INTRA-LIGAND FREE ENERGY PREDICTED BY IDOCK:   -0.53 KCAL/MOL
REMARK 927      BINDING AFFINITY PREDICTED BY RF-SCORE:    0.00 PKD
ROOT
HETATM    1  C   UNL     1     -10.779  15.305  69.098  1.00  0.00    -0.251 C  
HETATM    2  S   UNL     1      -8.948  15.100  69.092  1.00  0.00    -0.200 SA 
HETATM    3  C   UNL     1      -8.803  15.035  67.256  1.00  0.00    -0.201 C  
HETATM    4  CA  UNL     1     -10.068  15.762  66.735  1.00  0.00    -0.271 C  
HETATM    5  C   UNL     1      -8.771  13.549  66.845  1.00  0.00    -0.158 C  
HETATM    6  C   UNL     1      -7.460  15.641  66.836  1.00  0.00    -0.169 C  
HETATM    7  N   UNL     1     -11.166  15.458  67.679  1.00  0.00    -0.324 N  
HETATM    8  C   UNL     1      -9.960  17.295  66.630  1.00  0.00    -0.294 C  
HETATM    9  C   UNL     1     -11.791  14.239  67.621  1.00  0.00    -0.385 C  
HETATM   10  OXT UNL     1      -9.083  17.895  66.031  1.00  0.00    -0.504 OA 
HETATM   11  O   UNL     1     -11.000  17.954  67.205  1.00  0.00    -0.243 OA 
HETATM   12  CA  UNL     1     -11.655  14.022  69.146  1.00  0.00    -0.313 C  
HETATM   13  O   UNL     1     -12.120  13.566  66.670  1.00  0.00    -0.399 OA 
ENDROOT
BRANCH  12  14
HETATM   14  N   UNL     1     -10.986  12.770  69.601  1.00  0.00    -0.447 N  
HETATM   15  C   UNL     1     -11.731  11.621  69.733  1.00  0.00    -0.352 C  
HETATM   16  H   UNL     1      -9.987  12.765  69.811  1.00  0.00     0.000 HD 
HETATM   17  C   UNL     1     -11.039  10.418  70.346  1.00  0.00    -0.371 C  
HETATM   18  O   UNL     1     -12.906  11.573  69.359  1.00  0.00     0.102 OA 
HETATM   19  C   UNL     1     -11.950   9.599  71.250  1.00  0.00    -0.380 C  
HETATM   20  C   UNL     1     -10.374   9.545  69.291  1.00  0.00    -0.219 A  
HETATM   21  O   UNL     1     -13.278   9.655  71.000  1.00  0.00    -0.324 OA 
HETATM   22  C   UNL     1      -9.258   8.765  69.641  1.00  0.00    -0.150 A  
HETATM   23  O   UNL     1     -11.512   8.889  72.152  1.00  0.00    -0.362 OA 
HETATM   24  C   UNL     1      -8.653   7.931  68.700  1.00  0.00    -0.128 A  
HETATM   25  C   UNL     1      -9.150   7.863  67.401  1.00  0.00    -0.146 A  
HETATM   26  C   UNL     1     -10.255   8.627  67.040  1.00  0.00    -0.360 A  
HETATM   27  C   UNL     1     -10.868   9.456  67.979  1.00  0.00    -0.197 A  
ENDBRANCH  12  14
TORSDOF 1
ENDMDL
MODEL       12
REMARK 921   NORMALIZED FREE ENERGY PREDICTED BY IDOCK:   -6.69 KCAL/MOL
REMARK 922        TOTAL FREE ENERGY PREDICTED BY IDOCK:   -7.53 KCAL/MOL
REMARK 923 INTER-LIGAND FREE ENERGY PREDICTED BY IDOCK:   -6.99 KCAL/MOL
REMARK 924 INTRA-LIGAND FREE ENERGY PREDICTED BY IDOCK:   -0.53 KCAL/MOL
REMARK 927      BINDING AFFINITY PREDICTED BY RF-SCORE:    0.00 PKD
ROOT
HETATM    1  C   UNL     1     -10.192  14.797  69.163  1.00  0.00    -0.220 C  
HETATM    2  S   UNL     1     -11.285  15.648  67.948  1.00  0.00    -0.296 SA 
HETATM    3  C   UNL     1     -10.766  14.610  66.516  1.00  0.00    -0.312 C  
HETATM    4  CA  UNL     1     -10.239  13.298  67.151  1.00  0.00    -0.246 C  
HETATM    5  C   UNL     1      -9.662  15.379  65.762  1.00  0.00    -0.385 C  
HETATM    6  C   UNL     1     -11.944  14.461  65.549  1.00  0.00    -0.358 C  
HETATM    7  N   UNL     1      -9.591  13.662  68.430  1.00  0.00    -0.218 N  
HETATM    8  C   UNL     1     -11.307  12.233  67.460  1.00  0.00    -0.325 C  
HETATM    9  C   UNL     1      -8.335  14.211  68.421  1.00  0.00    -0.161 C  
HETATM   10  OXT UNL     1     -12.113  11.795  66.654  1.00  0.00    -0.527 OA 
HETATM   11  O   UNL     1     -11.230  11.734  68.722  1.00  0.00    -0.212 OA 
HETATM   12  CA  UNL     1      -8.757  15.357  69.370  1.00  0.00    -0.252 C  
HETATM   13  O   UNL     1      -7.366  13.950  67.745  1.00  0.00    -0.129 OA 
ENDROOT
BRANCH  12  14
HETATM   14  N   UNL     1      -8.510  16.753  68.906  1.00  0.00    -0.242 N  
HETATM   15  C   UNL     1      -7.261  17.304  69.076  1.00  0.00    -0.227 C  
HETATM   16  H   UNL     1      -9.258  17.293  68.469  1.00  0.00     0.000 HD 
HETATM   17  C   UNL     1      -7.105  18.773  68.732  1.00  0.00    -0.335 C  
HETATM   18  O   UNL     1      -6.311  16.627  69.480  1.00  0.00    -0.209 OA 
HETATM   19  C   UNL     1      -6.165  19.513  69.676  1.00  0.00    -0.303 C  
HETATM   20  C   UNL     1      -6.703  18.979  67.278  1.00  0.00    -0.204 A  
HETATM   21  O   UNL     1      -5.213  18.780  70.295  1.00  0.00    -0.193 OA 
HETATM   22  C   UNL     1      -7.053  20.173  66.625  1.00  0.00    -0.280 A  
HETATM   23  O   UNL     1      -6.238  20.726  69.855  1.00  0.00    -0.341 OA 
HETATM   24  C   UNL     1      -6.667  20.398  65.303  1.00  0.00    -0.309 A  
HETATM   25  C   UNL     1      -5.929  19.438  64.615  1.00  0.00    -0.310 A  
HETATM   26  C   UNL     1      -5.572  18.252  65.249  1.00  0.00    -0.192 A  
HETATM   27  C   UNL     1      -5.949  18.026  66.572  1.00  0.00    -0.206 A  
ENDBRANCH  12  14
TORSDOF 1
ENDMDL
MODEL       13
REMARK 921   NORMALIZED FREE ENERGY PREDICTED BY IDOCK:   -6.64 KCAL/MOL
REMARK 922        TOTAL FREE ENERGY PREDICTED BY IDOCK:   -7.47 KCAL/MOL
REMARK 923 INTER-LIGAND FREE ENERGY PREDICTED BY IDOCK:   -7.04 KCAL/MOL
REMARK 924 INTRA-LIGAND FREE ENERGY PREDICTED BY IDOCK:   -0.43 KCAL/MOL
REMARK 927      BINDING AFFINITY PREDICTED BY RF-SCORE:    0.00 PKD
ROOT
HETATM    1  C   UNL     1     -11.071  13.964  66.931  1.00  0.00    -0.301 C  
HETATM    2  S   UNL     1     -11.527  14.889  68.458  1.00  0.00    -0.330 SA 
HETATM    3  C   UNL     1     -10.010  15.936  68.466  1.00  0.00    -0.216 C  
HETATM    4  CA  UNL     1      -9.527  15.942  66.993  1.00  0.00    -0.222 C  
HETATM    5  C   UNL     1      -8.992  15.270  69.413  1.00  0.00    -0.225 C  
HETATM    6  C   UNL     1     -10.347  17.304  69.066  1.00  0.00    -0.330 C  
HETATM    7  N   UNL     1      -9.841  14.612  66.426  1.00  0.00    -0.272 N  
HETATM    8  C   UNL     1     -10.180  16.998  66.082  1.00  0.00    -0.337 C  
HETATM    9  C   UNL     1      -9.041  13.540  66.729  1.00  0.00    -0.212 C  
HETATM   10  OXT UNL     1     -10.223  18.195  66.318  1.00  0.00    -0.373 OA 
HETATM   11  O   UNL     1     -10.648  16.492  64.911  1.00  0.00    -0.689 OA 
HETATM   12  CA  UNL     1     -10.253  12.652  67.091  1.00  0.00    -0.225 C  
HETATM   13  O   UNL     1      -7.838  13.461  66.836  1.00  0.00     0.008 OA 
ENDROOT
BRANCH  12  14
HETATM   14  N   UNL     1     -10.258  12.020  68.442  1.00  0.00    -0.206 N  
HETATM   15  C   UNL     1     -11.299  11.190  68.790  1.00  0.00    -0.277 C  
HETATM   16  H   UNL     1      -9.499  12.202  69.100  1.00  0.00     0.000 HD 
HETATM   17  C   UNL     1     -11.337  10.699  70.225  1.00  0.00    -0.401 C  
HETATM   18  O   UNL     1     -12.154  10.855  67.966  1.00  0.00    -0.563 OA 
HETATM   19  C   UNL     1     -12.749  10.609  70.790  1.00  0.00    -0.378 C  
HETATM   20  C   UNL     1     -10.586   9.387  70.398  1.00  0.00    -0.316 A  
HETATM   21  O   UNL     1     -13.755  10.425  69.906  1.00  0.00     0.413 OA 
HETATM   22  C   UNL     1     -10.022   9.071  71.647  1.00  0.00    -0.383 A  
HETATM   23  O   UNL     1     -12.977  10.668  71.995  1.00  0.00    -0.461 OA 
HETATM   24  C   UNL     1      -9.359   7.858  71.839  1.00  0.00    -0.204 A  
HETATM   25  C   UNL     1      -9.247   6.947  70.792  1.00  0.00    -0.158 A  
HETATM   26  C   UNL     1      -9.802   7.243  69.551  1.00  0.00    -0.163 A  
HETATM   27  C   UNL     1     -10.473   8.450  69.357  1.00  0.00    -0.222 A  
ENDBRANCH  12  14
TORSDOF 1
ENDMDL
MODEL       14
REMARK 921   NORMALIZED FREE ENERGY PREDICTED BY IDOCK:   -6.62 KCAL/MOL
REMARK 922        TOTAL FREE ENERGY PREDICTED BY IDOCK:   -7.45 KCAL/MOL
REMARK 923 INTER-LIGAND FREE ENERGY PREDICTED BY IDOCK:   -7.06 KCAL/MOL
REMARK 924 INTRA-LIGAND FREE ENERGY PREDICTED BY IDOCK:   -0.40 KCAL/MOL
REMARK 927      BINDING AFFINITY PREDICTED BY RF-SCORE:    0.00 PKD
ROOT
HETATM    1  C   UNL     1     -10.300   9.233  68.547  1.00  0.00    -0.209 C  
HETATM    2  S   UNL     1      -8.927  10.191  67.779  1.00  0.00    -0.127 SA 
HETATM    3  C   UNL     1      -7.599   9.388  68.774  1.00  0.00    -0.079 C  
HETATM    4  CA  UNL     1      -8.201   8.027  69.208  1.00  0.00    -0.127 C  
HETATM    5  C   UNL     1      -7.302  10.306  69.977  1.00  0.00    -0.157 C  
HETATM    6  C   UNL     1      -6.317   9.318  67.940  1.00  0.00    -0.058 C  
HETATM    7  N   UNL     1      -9.649   8.241  69.429  1.00  0.00    -0.169 N  
HETATM    8  C   UNL     1      -8.053   6.879  68.193  1.00  0.00    -0.119 C  
HETATM    9  C   UNL     1     -10.077   8.846  70.582  1.00  0.00    -0.212 C  
HETATM   10  OXT UNL     1      -6.999   6.519  67.693  1.00  0.00    -0.073 OA 
HETATM   11  O   UNL     1      -9.213   6.215  67.949  1.00  0.00    -0.118 OA 
HETATM   12  CA  UNL     1     -10.987   9.828  69.809  1.00  0.00    -0.256 C  
HETATM   13  O   UNL     1      -9.691   8.729  71.723  1.00  0.00    -0.265 OA 
ENDROOT
BRANCH  12  14
HETATM   14  N   UNL     1     -10.786  11.284  70.056  1.00  0.00    -0.436 N  
HETATM   15  C   UNL     1     -11.553  12.194  69.364  1.00  0.00    -0.317 C  
HETATM   16  H   UNL     1     -10.089  11.603  70.730  1.00  0.00     0.000 HD 
HETATM   17  C   UNL     1     -11.204  13.660  69.536  1.00  0.00    -0.205 C  
HETATM   18  O   UNL     1     -12.487  11.829  68.646  1.00  0.00    -0.206 OA 
HETATM   19  C   UNL     1     -11.360  14.467  68.254  1.00  0.00    -0.297 C  
HETATM   20  C   UNL     1     -11.969  14.297  70.688  1.00  0.00    -0.392 A  
HETATM   21  O   UNL     1     -12.245  14.007  67.341  1.00  0.00    -0.384 OA 
HETATM   22  C   UNL     1     -11.414  15.398  71.362  1.00  0.00    -0.465 A  
HETATM   23  O   UNL     1     -10.739  15.508  68.055  1.00  0.00    -0.266 OA 
HETATM   24  C   UNL     1     -12.112  16.020  72.399  1.00  0.00    -0.629 A  
HETATM   25  C   UNL     1     -13.368  15.552  72.778  1.00  0.00    -0.621 A  
HETATM   26  C   UNL     1     -13.932  14.465  72.118  1.00  0.00    -0.607 A  
HETATM   27  C   UNL     1     -13.241  13.846  71.076  1.00  0.00    -0.260 A  
ENDBRANCH  12  14
TORSDOF 1
ENDMDL
MODEL       15
REMARK 921   NORMALIZED FREE ENERGY PREDICTED BY IDOCK:   -6.56 KCAL/MOL
REMARK 922        TOTAL FREE ENERGY PREDICTED BY IDOCK:   -7.39 KCAL/MOL
REMARK 923 INTER-LIGAND FREE ENERGY PREDICTED BY IDOCK:   -6.89 KCAL/MOL
REMARK 924 INTRA-LIGAND FREE ENERGY PREDICTED BY IDOCK:   -0.50 KCAL/MOL
REMARK 927      BINDING AFFINITY PREDICTED BY RF-SCORE:    0.00 PKD
ROOT
HETATM    1  C   UNL     1     -11.668  13.553  67.029  1.00  0.00    -0.383 C  
HETATM    2  S   UNL     1     -10.355  12.911  65.909  1.00  0.00    -0.289 SA 
HETATM    3  C   UNL     1      -9.310  12.229  67.266  1.00  0.00    -0.185 C  
HETATM    4  CA  UNL     1     -10.292  12.001  68.443  1.00  0.00    -0.214 C  
HETATM    5  C   UNL     1      -8.234  13.283  67.597  1.00  0.00    -0.179 C  
HETATM    6  C   UNL     1      -8.573  10.987  66.757  1.00  0.00    -0.152 C  
HETATM    7  N   UNL     1     -11.303  13.080  68.382  1.00  0.00    -0.270 N  
HETATM    8  C   UNL     1     -11.047  10.659  68.430  1.00  0.00    -0.272 C  
HETATM    9  C   UNL     1     -10.983  14.334  68.836  1.00  0.00    -0.257 C  
HETATM   10  OXT UNL     1     -10.520   9.561  68.349  1.00  0.00    -0.208 OA 
HETATM   11  O   UNL     1     -12.388  10.787  68.606  1.00  0.00    -0.430 OA 
HETATM   12  CA  UNL     1     -11.529  15.009  67.556  1.00  0.00    -0.328 C  
HETATM   13  O   UNL     1     -10.340  14.683  69.800  1.00  0.00    -0.088 OA 
ENDROOT
BRANCH  12  14
HETATM   14  N   UNL     1     -10.602  15.905  66.808  1.00  0.00    -0.317 N  
HETATM   15  C   UNL     1     -10.390  17.185  67.269  1.00  0.00    -0.320 C  
HETATM   16  H   UNL     1     -10.131  15.575  65.966  1.00  0.00     0.000 HD 
HETATM   17  C   UNL     1      -9.564  18.104  66.390  1.00  0.00    -0.298 C  
HETATM   18  O   UNL     1     -10.845  17.559  68.353  1.00  0.00    -0.314 OA 
HETATM   19  C   UNL     1     -10.060  19.545  66.397  1.00  0.00    -0.455 C  
HETATM   20  C   UNL     1      -8.080  18.027  66.721  1.00  0.00    -0.264 A  
HETATM   21  O   UNL     1     -10.733  19.958  67.494  1.00  0.00    -0.388 OA 
HETATM   22  C   UNL     1      -7.132  18.316  65.724  1.00  0.00    -0.260 A  
HETATM   23  O   UNL     1      -9.840  20.318  65.468  1.00  0.00    -0.235 OA 
HETATM   24  C   UNL     1      -5.767  18.285  66.013  1.00  0.00    -0.223 A  
HETATM   25  C   UNL     1      -5.329  17.966  67.296  1.00  0.00    -0.145 A  
HETATM   26  C   UNL     1      -6.255  17.681  68.295  1.00  0.00    -0.177 A  
HETATM   27  C   UNL     1      -7.621  17.719  68.012  1.00  0.00    -0.236 A  
ENDBRANCH  12  14
TORSDOF 1
ENDMDL
MODEL       16
REMARK 921   NORMALIZED FREE ENERGY PREDICTED BY IDOCK:   -6.55 KCAL/MOL
REMARK 922        TOTAL FREE ENERGY PREDICTED BY IDOCK:   -7.38 KCAL/MOL
REMARK 923 INTER-LIGAND FREE ENERGY PREDICTED BY IDOCK:   -6.93 KCAL/MOL
REMARK 924 INTRA-LIGAND FREE ENERGY PREDICTED BY IDOCK:   -0.45 KCAL/MOL
REMARK 927      BINDING AFFINITY PREDICTED BY RF-SCORE:    0.00 PKD
ROOT
HETATM    1  C   UNL     1      -8.039  16.834  66.478  1.00  0.00    -0.294 C  
HETATM    2  S   UNL     1      -9.700  17.620  66.343  1.00  0.00    -0.276 SA 
HETATM    3  C   UNL     1      -9.482  18.703  67.818  1.00  0.00    -0.300 C  
HETATM    4  CA  UNL     1      -7.948  18.841  67.982  1.00  0.00    -0.281 C  
HETATM    5  C   UNL     1     -10.137  17.989  69.018  1.00  0.00    -0.301 C  
HETATM    6  C   UNL     1     -10.254  20.008  67.603  1.00  0.00    -0.548 C  
HETATM    7  N   UNL     1      -7.347  17.554  67.569  1.00  0.00    -0.174 N  
HETATM    8  C   UNL     1      -7.286  19.950  67.143  1.00  0.00    -0.239 C  
HETATM    9  C   UNL     1      -7.384  16.483  68.425  1.00  0.00    -0.179 C  
HETATM   10  OXT UNL     1      -7.627  21.122  67.140  1.00  0.00    -0.347 OA 
HETATM   11  O   UNL     1      -6.199  19.529  66.445  1.00  0.00    -0.172 OA 
HETATM   12  CA  UNL     1      -7.913  15.536  67.323  1.00  0.00    -0.203 C  
HETATM   13  O   UNL     1      -7.231  16.428  69.624  1.00  0.00    -0.168 OA 
ENDROOT
BRANCH  12  14
HETATM   14  N   UNL     1      -9.177  14.797  67.607  1.00  0.00    -0.188 N  
HETATM   15  C   UNL     1      -9.468  13.664  66.882  1.00  0.00    -0.262 C  
HETATM   16  H   UNL     1      -9.817  15.127  68.330  1.00  0.00     0.000 HD 
HETATM   17  C   UNL     1     -10.834  13.040  67.100  1.00  0.00    -0.278 C  
HETATM   18  O   UNL     1      -8.649  13.177  66.098  1.00  0.00     0.312 OA 
HETATM   19  C   UNL     1     -11.446  12.478  65.824  1.00  0.00    -0.365 C  
HETATM   20  C   UNL     1     -10.813  11.999  68.210  1.00  0.00    -0.263 A  
HETATM   21  O   UNL     1     -10.592  12.096  64.848  1.00  0.00    -0.272 OA 
HETATM   22  C   UNL     1     -11.987  11.738  68.937  1.00  0.00    -0.332 A  
HETATM   23  O   UNL     1     -12.659  12.343  65.683  1.00  0.00    -0.575 OA 
HETATM   24  C   UNL     1     -12.002  10.764  69.936  1.00  0.00    -0.418 A  
HETATM   25  C   UNL     1     -10.848  10.039  70.225  1.00  0.00    -0.370 A  
HETATM   26  C   UNL     1      -9.679  10.283  69.512  1.00  0.00    -0.235 A  
HETATM   27  C   UNL     1      -9.662  11.250  68.507  1.00  0.00    -0.199 A  
ENDBRANCH  12  14
TORSDOF 1
ENDMDL
MODEL       17
REMARK 921   NORMALIZED FREE ENERGY PREDICTED BY IDOCK:   -6.50 KCAL/MOL
REMARK 922        TOTAL FREE ENERGY PREDICTED BY IDOCK:   -7.32 KCAL/MOL
REMARK 923 INTER-LIGAND FREE ENERGY PREDICTED BY IDOCK:   -6.80 KCAL/MOL
REMARK 924 INTRA-LIGAND FREE ENERGY PREDICTED BY IDOCK:   -0.52 KCAL/MOL
REMARK 927      BINDING AFFINITY PREDICTED BY RF-SCORE:    0.00 PKD
ROOT
HETATM    1  C   UNL     1      -8.866   9.678  64.030  1.00  0.00    -0.227 C  
HETATM    2  S   UNL     1      -7.157  10.348  64.184  1.00  0.00     0.105 SA 
HETATM    3  C   UNL     1      -6.901   9.735  65.903  1.00  0.00    -0.096 C  
HETATM    4  CA  UNL     1      -7.892   8.553  66.051  1.00  0.00    -0.098 C  
HETATM    5  C   UNL     1      -7.229  10.897  66.863  1.00  0.00    -0.124 C  
HETATM    6  C   UNL     1      -5.421   9.398  66.103  1.00  0.00    -0.044 C  
HETATM    7  N   UNL     1      -9.096   8.892  65.261  1.00  0.00    -0.179 N  
HETATM    8  C   UNL     1      -7.381   7.189  65.553  1.00  0.00    -0.079 C  
HETATM    9  C   UNL     1     -10.012   9.778  65.768  1.00  0.00    -0.279 C  
HETATM   10  OXT UNL     1      -6.336   6.663  65.902  1.00  0.00    -0.042 OA 
HETATM   11  O   UNL     1      -8.251   6.550  64.727  1.00  0.00    -0.129 OA 
HETATM   12  CA  UNL     1     -10.048  10.594  64.455  1.00  0.00    -0.349 C  
HETATM   13  O   UNL     1     -10.436   9.916  66.893  1.00  0.00    -0.238 OA 
ENDROOT
BRANCH  12  14
HETATM   14  N   UNL     1      -9.763  12.054  64.551  1.00  0.00    -0.457 N  
HETATM   15  C   UNL     1     -10.767  12.909  64.941  1.00  0.00    -0.312 C  
HETATM   16  H   UNL     1      -8.834  12.415  64.329  1.00  0.00     0.000 HD 
HETATM   17  C   UNL     1     -10.472  14.396  64.872  1.00  0.00    -0.448 C  
HETATM   18  O   UNL     1     -11.855  12.481  65.338  1.00  0.00    -0.388 OA 
HETATM   19  C   UNL     1     -11.671  15.225  64.430  1.00  0.00    -0.285 C  
HETATM   20  C   UNL     1      -9.885  14.921  66.175  1.00  0.00    -0.332 A  
HETATM   21  O   UNL     1     -12.898  14.713  64.676  1.00  0.00    -0.559 OA 
HETATM   22  C   UNL     1      -9.046  16.048  66.152  1.00  0.00    -0.387 A  
HETATM   23  O   UNL     1     -11.546  16.326  63.899  1.00  0.00    -0.987 OA 
HETATM   24  C   UNL     1      -8.524  16.568  67.337  1.00  0.00    -0.194 A  
HETATM   25  C   UNL     1      -8.829  15.972  68.559  1.00  0.00    -0.199 A  
HETATM   26  C   UNL     1      -9.662  14.859  68.598  1.00  0.00    -0.226 A  
HETATM   27  C   UNL     1     -10.192  14.340  67.417  1.00  0.00    -0.247 A  
ENDBRANCH  12  14
TORSDOF 1
ENDMDL
MODEL       18
REMARK 921   NORMALIZED FREE ENERGY PREDICTED BY IDOCK:   -6.49 KCAL/MOL
REMARK 922        TOTAL FREE ENERGY PREDICTED BY IDOCK:   -7.31 KCAL/MOL
REMARK 923 INTER-LIGAND FREE ENERGY PREDICTED BY IDOCK:   -6.85 KCAL/MOL
REMARK 924 INTRA-LIGAND FREE ENERGY PREDICTED BY IDOCK:   -0.46 KCAL/MOL
REMARK 927      BINDING AFFINITY PREDICTED BY RF-SCORE:    0.00 PKD
ROOT
HETATM    1  C   UNL     1      -9.540  13.394  66.263  1.00  0.00    -0.235 C  
HETATM    2  S   UNL     1     -10.130  12.679  64.671  1.00  0.00    -0.187 SA 
HETATM    3  C   UNL     1     -11.768  13.523  64.717  1.00  0.00    -0.370 C  
HETATM    4  CA  UNL     1     -11.549  14.757  65.629  1.00  0.00    -0.290 C  
HETATM    5  C   UNL     1     -12.786  12.529  65.312  1.00  0.00    -0.093 C  
HETATM    6  C   UNL     1     -12.221  13.820  63.285  1.00  0.00     0.039 C  
HETATM    7  N   UNL     1     -10.581  14.360  66.675  1.00  0.00    -0.279 N  
HETATM    8  C   UNL     1     -10.989  16.010  64.932  1.00  0.00    -0.384 C  
HETATM    9  C   UNL     1     -11.001  13.599  67.735  1.00  0.00    -0.259 C  
HETATM   10  OXT UNL     1     -11.473  16.535  63.941  1.00  0.00    -1.145 OA 
HETATM   11  O   UNL     1      -9.924  16.560  65.572  1.00  0.00    -0.541 OA 
HETATM   12  CA  UNL     1      -9.830  12.602  67.569  1.00  0.00    -0.203 C  
HETATM   13  O   UNL     1     -12.023  13.645  68.381  1.00  0.00    -0.355 OA 
ENDROOT
BRANCH  12  14
HETATM   14  N   UNL     1     -10.177  11.161  67.416  1.00  0.00    -0.185 N  
HETATM   15  C   UNL     1      -9.181  10.217  67.516  1.00  0.00    -0.141 C  
HETATM   16  H   UNL     1     -11.141  10.877  67.238  1.00  0.00     0.000 HD 
HETATM   17  C   UNL     1      -9.557   8.782  67.198  1.00  0.00    -0.228 C  
HETATM   18  O   UNL     1      -8.037  10.527  67.860  1.00  0.00    -0.105 OA 
HETATM   19  C   UNL     1      -8.456   8.022  66.470  1.00  0.00    -0.136 C  
HETATM   20  C   UNL     1     -10.026   8.029  68.435  1.00  0.00    -0.204 A  
HETATM   21  O   UNL     1      -7.185   8.440  66.666  1.00  0.00    -0.075 OA 
HETATM   22  C   UNL     1     -10.918   6.953  68.293  1.00  0.00    -0.208 A  
HETATM   23  O   UNL     1      -8.693   7.051  65.755  1.00  0.00    -0.148 OA 
HETATM   24  C   UNL     1     -11.335   6.226  69.409  1.00  0.00    -0.448 A  
HETATM   25  C   UNL     1     -10.870   6.560  70.678  1.00  0.00    -0.317 A  
HETATM   26  C   UNL     1      -9.983   7.621  70.834  1.00  0.00    -0.183 A  
HETATM   27  C   UNL     1      -9.557   8.345  69.721  1.00  0.00    -0.170 A  
ENDBRANCH  12  14
TORSDOF 1
ENDMDL
MODEL       19
REMARK 921   NORMALIZED FREE ENERGY PREDICTED BY IDOCK:   -6.47 KCAL/MOL
REMARK 922        TOTAL FREE ENERGY PREDICTED BY IDOCK:   -7.29 KCAL/MOL
REMARK 923 INTER-LIGAND FREE ENERGY PREDICTED BY IDOCK:   -6.76 KCAL/MOL
REMARK 924 INTRA-LIGAND FREE ENERGY PREDICTED BY IDOCK:   -0.53 KCAL/MOL
REMARK 927      BINDING AFFINITY PREDICTED BY RF-SCORE:    0.00 PKD
ROOT
HETATM    1  C   UNL     1     -11.427   8.283  71.222  1.00  0.00    -0.274 C  
HETATM    2  S   UNL     1     -11.589   6.824  70.109  1.00  0.00    -0.304 SA 
HETATM    3  C   UNL     1      -9.856   6.246  70.353  1.00  0.00    -0.176 C  
HETATM    4  CA  UNL     1      -9.429   6.847  71.716  1.00  0.00    -0.153 C  
HETATM    5  C   UNL     1      -9.016   6.795  69.182  1.00  0.00    -0.132 C  
HETATM    6  C   UNL     1      -9.816   4.719  70.251  1.00  0.00    -0.313 C  
HETATM    7  N   UNL     1     -10.087   8.167  71.836  1.00  0.00    -0.201 N  
HETATM    8  C   UNL     1      -9.816   6.023  72.958  1.00  0.00    -0.168 C  
HETATM    9  C   UNL     1      -9.578   9.242  71.155  1.00  0.00    -0.234 C  
HETATM   10  OXT UNL     1      -9.546   4.844  73.127  1.00  0.00    -0.136 OA 
HETATM   11  O   UNL     1     -10.430   6.752  73.926  1.00  0.00    -0.347 OA 
HETATM   12  CA  UNL     1     -10.967   9.629  70.595  1.00  0.00    -0.320 C  
HETATM   13  O   UNL     1      -8.433   9.580  70.958  1.00  0.00    -0.284 OA 
ENDROOT
BRANCH  12  14
HETATM   14  N   UNL     1     -11.095   9.757  69.115  1.00  0.00    -0.387 N  
HETATM   15  C   UNL     1     -10.865  10.979  68.526  1.00  0.00    -0.213 C  
HETATM   16  H   UNL     1     -11.350   8.949  68.546  1.00  0.00     0.000 HD 
HETATM   17  C   UNL     1     -11.160  11.094  67.042  1.00  0.00    -0.339 C  
HETATM   18  O   UNL     1     -10.430  11.933  69.177  1.00  0.00    -0.133 OA 
HETATM   19  C   UNL     1     -11.753  12.442  66.652  1.00  0.00    -0.372 C  
HETATM   20  C   UNL     1      -9.943  10.757  66.192  1.00  0.00    -0.283 A  
HETATM   21  O   UNL     1     -11.456  13.497  67.443  1.00  0.00    -0.303 OA 
HETATM   22  C   UNL     1     -10.124  10.255  64.892  1.00  0.00    -0.346 A  
HETATM   23  O   UNL     1     -12.447  12.586  65.649  1.00  0.00    -0.648 OA 
HETATM   24  C   UNL     1      -9.024   9.970  64.082  1.00  0.00    -0.268 A  
HETATM   25  C   UNL     1      -7.731  10.181  64.555  1.00  0.00    -0.138 A  
HETATM   26  C   UNL     1      -7.536  10.681  65.839  1.00  0.00    -0.131 A  
HETATM   27  C   UNL     1      -8.632  10.974  66.649  1.00  0.00    -0.157 A  
ENDBRANCH  12  14
TORSDOF 1
ENDMDL
MODEL       20
REMARK 921   NORMALIZED FREE ENERGY PREDICTED BY IDOCK:   -6.45 KCAL/MOL
REMARK 922        TOTAL FREE ENERGY PREDICTED BY IDOCK:   -7.27 KCAL/MOL
REMARK 923 INTER-LIGAND FREE ENERGY PREDICTED BY IDOCK:   -6.74 KCAL/MOL
REMARK 924 INTRA-LIGAND FREE ENERGY PREDICTED BY IDOCK:   -0.53 KCAL/MOL
REMARK 927      BINDING AFFINITY PREDICTED BY RF-SCORE:    0.00 PKD
ROOT
HETATM    1  C   UNL     1     -10.834  13.702  65.830  1.00  0.00    -0.273 C  
HETATM    2  S   UNL     1     -12.154  13.983  67.083  1.00  0.00    -0.336 SA 
HETATM    3  C   UNL     1     -11.068  14.902  68.254  1.00  0.00    -0.282 C  
HETATM    4  CA  UNL     1      -9.921  15.459  67.372  1.00  0.00    -0.229 C  
HETATM    5  C   UNL     1     -10.561  13.894  69.305  1.00  0.00    -0.062 C  
HETATM    6  C   UNL     1     -11.903  15.944  69.003  1.00  0.00    -0.328 C  
HETATM    7  N   UNL     1      -9.659  14.458  66.315  1.00  0.00    -0.301 N  
HETATM    8  C   UNL     1     -10.208  16.802  66.676  1.00  0.00    -0.309 C  
HETATM    9  C   UNL     1      -8.939  13.330  66.613  1.00  0.00    -0.126 C  
HETATM   10  OXT UNL     1     -10.581  17.817  67.241  1.00  0.00    -0.362 OA 
HETATM   11  O   UNL     1      -9.924  16.798  65.347  1.00  0.00    -0.572 OA 
HETATM   12  CA  UNL     1      -9.984  12.405  65.945  1.00  0.00    -0.255 C  
HETATM   13  O   UNL     1      -7.961  13.181  67.310  1.00  0.00    -0.173 OA 
ENDROOT
BRANCH  12  14
HETATM   14  N   UNL     1     -10.551  11.305  66.776  1.00  0.00    -0.249 N  
HETATM   15  C   UNL     1      -9.912  10.086  66.801  1.00  0.00    -0.210 C  
HETATM   16  H   UNL     1     -11.402  11.453  67.319  1.00  0.00     0.000 HD 
HETATM   17  C   UNL     1     -10.612   8.957  67.533  1.00  0.00    -0.307 C  
HETATM   18  O   UNL     1      -8.815   9.927  66.259  1.00  0.00    -0.140 OA 
HETATM   19  C   UNL     1     -10.439   7.605  66.853  1.00  0.00    -0.318 C  
HETATM   20  C   UNL     1     -10.211   8.895  69.000  1.00  0.00    -0.217 A  
HETATM   21  O   UNL     1      -9.336   7.436  66.090  1.00  0.00    -0.146 OA 
HETATM   22  C   UNL     1     -11.105   8.354  69.940  1.00  0.00    -0.109 A  
HETATM   23  O   UNL     1     -11.242   6.688  67.006  1.00  0.00    -0.404 OA 
HETATM   24  C   UNL     1     -10.746   8.255  71.285  1.00  0.00    -0.276 A  
HETATM   25  C   UNL     1      -9.495   8.694  71.711  1.00  0.00    -0.354 A  
HETATM   26  C   UNL     1      -8.597   9.229  70.792  1.00  0.00    -0.254 A  
HETATM   27  C   UNL     1      -8.949   9.322  69.446  1.00  0.00    -0.147 A  
ENDBRANCH  12  14
TORSDOF 1
ENDMDL
MODEL       21
REMARK 921   NORMALIZED FREE ENERGY PREDICTED BY IDOCK:   -6.40 KCAL/MOL
REMARK 922        TOTAL FREE ENERGY PREDICTED BY IDOCK:   -7.22 KCAL/MOL
REMARK 923 INTER-LIGAND FREE ENERGY PREDICTED BY IDOCK:   -6.78 KCAL/MOL
REMARK 924 INTRA-LIGAND FREE ENERGY PREDICTED BY IDOCK:   -0.44 KCAL/MOL
REMARK 927      BINDING AFFINITY PREDICTED BY RF-SCORE:    0.00 PKD
ROOT
HETATM    1  C   UNL     1     -10.834  16.009  68.054  1.00  0.00    -0.335 C  
HETATM    2  S   UNL     1      -9.295  16.177  69.052  1.00  0.00    -0.247 SA 
HETATM    3  C   UNL     1      -8.230  16.647  67.623  1.00  0.00    -0.172 C  
HETATM    4  CA  UNL     1      -9.213  17.226  66.574  1.00  0.00    -0.261 C  
HETATM    5  C   UNL     1      -7.530  15.366  67.126  1.00  0.00    -0.224 C  
HETATM    6  C   UNL     1      -7.130  17.596  68.106  1.00  0.00    -0.216 C  
HETATM    7  N   UNL     1     -10.476  16.465  66.693  1.00  0.00    -0.293 N  
HETATM    8  C   UNL     1      -9.555  18.718  66.734  1.00  0.00    -0.321 C  
HETATM    9  C   UNL     1     -10.566  15.211  66.147  1.00  0.00    -0.313 C  
HETATM   10  OXT UNL     1      -8.736  19.620  66.809  1.00  0.00    -0.303 OA 
HETATM   11  O   UNL     1     -10.888  18.978  66.701  1.00  0.00    -0.369 OA 
HETATM   12  CA  UNL     1     -11.160  14.616  67.446  1.00  0.00    -0.326 C  
HETATM   13  O   UNL     1     -10.139  14.774  65.103  1.00  0.00    -0.372 OA 
ENDROOT
BRANCH  12  14
HETATM   14  N   UNL     1     -10.457  13.444  68.043  1.00  0.00    -0.233 N  
HETATM   15  C   UNL     1     -11.179  12.311  68.341  1.00  0.00    -0.266 C  
HETATM   16  H   UNL     1      -9.454  13.481  68.228  1.00  0.00     0.000 HD 
HETATM   17  C   UNL     1     -10.451  11.209  69.088  1.00  0.00    -0.211 C  
HETATM   18  O   UNL     1     -12.361  12.197  68.006  1.00  0.00    -0.292 OA 
HETATM   19  C   UNL     1     -11.328  10.501  70.113  1.00  0.00    -0.323 C  
HETATM   20  C   UNL     1      -9.795  10.215  68.140  1.00  0.00    -0.164 A  
HETATM   21  O   UNL     1     -12.662  10.504  69.890  1.00  0.00    -0.209 OA 
HETATM   22  C   UNL     1      -8.658   9.505  68.561  1.00  0.00    -0.119 A  
HETATM   23  O   UNL     1     -10.857   9.921  71.089  1.00  0.00    -0.309 OA 
HETATM   24  C   UNL     1      -8.059   8.564  67.722  1.00  0.00    -0.115 A  
HETATM   25  C   UNL     1      -8.583   8.320  66.454  1.00  0.00    -0.144 A  
HETATM   26  C   UNL     1      -9.710   9.014  66.025  1.00  0.00    -0.339 A  
HETATM   27  C   UNL     1     -10.317   9.949  66.863  1.00  0.00    -0.300 A  
ENDBRANCH  12  14
TORSDOF 1
ENDMDL
MODEL       22
REMARK 921   NORMALIZED FREE ENERGY PREDICTED BY IDOCK:   -6.39 KCAL/MOL
REMARK 922        TOTAL FREE ENERGY PREDICTED BY IDOCK:   -7.20 KCAL/MOL
REMARK 923 INTER-LIGAND FREE ENERGY PREDICTED BY IDOCK:   -6.75 KCAL/MOL
REMARK 924 INTRA-LIGAND FREE ENERGY PREDICTED BY IDOCK:   -0.45 KCAL/MOL
REMARK 927      BINDING AFFINITY PREDICTED BY RF-SCORE:    0.00 PKD
ROOT
HETATM    1  C   UNL     1     -10.141   9.661  67.034  1.00  0.00    -0.214 C  
HETATM    2  S   UNL     1      -9.578   9.682  65.280  1.00  0.00    -0.228 SA 
HETATM    3  C   UNL     1      -7.815   9.316  65.677  1.00  0.00    -0.099 C  
HETATM    4  CA  UNL     1      -7.860   8.616  67.059  1.00  0.00    -0.096 C  
HETATM    5  C   UNL     1      -7.063  10.661  65.726  1.00  0.00    -0.096 C  
HETATM    6  C   UNL     1      -7.200   8.504  64.533  1.00  0.00    -0.086 C  
HETATM    7  N   UNL     1      -8.967   9.230  67.823  1.00  0.00    -0.127 N  
HETATM    8  C   UNL     1      -8.107   7.096  67.028  1.00  0.00    -0.117 C  
HETATM    9  C   UNL     1      -8.790  10.459  68.405  1.00  0.00    -0.136 C  
HETATM   10  OXT UNL     1      -7.452   6.294  66.381  1.00  0.00    -0.083 OA 
HETATM   11  O   UNL     1      -9.090   6.687  67.871  1.00  0.00    -0.117 OA 
HETATM   12  CA  UNL     1     -10.116  11.000  67.823  1.00  0.00    -0.177 C  
HETATM   13  O   UNL     1      -7.833  10.928  68.979  1.00  0.00    -0.132 OA 
ENDROOT
BRANCH  12  14
HETATM   14  N   UNL     1     -10.048  12.252  67.016  1.00  0.00    -0.212 N  
HETATM   15  C   UNL     1     -11.196  12.981  66.811  1.00  0.00    -0.298 C  
HETATM   16  H   UNL     1      -9.160  12.564  66.620  1.00  0.00     0.000 HD 
HETATM   17  C   UNL     1     -11.104  14.157  65.857  1.00  0.00    -0.306 C  
HETATM   18  O   UNL     1     -12.249  12.694  67.388  1.00  0.00    -0.406 OA 
HETATM   19  C   UNL     1     -12.354  14.337  65.005  1.00  0.00    -0.428 C  
HETATM   20  C   UNL     1     -10.733  15.447  66.576  1.00  0.00    -0.308 A  
HETATM   21  O   UNL     1     -13.517  13.870  65.512  1.00  0.00    -0.657 OA 
HETATM   22  C   UNL     1     -10.060  16.462  65.875  1.00  0.00    -0.370 A  
HETATM   23  O   UNL     1     -12.328  14.905  63.916  1.00  0.00    -0.711 OA 
HETATM   24  C   UNL     1      -9.741  17.666  66.503  1.00  0.00    -0.310 A  
HETATM   25  C   UNL     1     -10.086  17.874  67.836  1.00  0.00    -0.350 A  
HETATM   26  C   UNL     1     -10.756  16.880  68.543  1.00  0.00    -0.359 A  
HETATM   27  C   UNL     1     -11.084  15.679  67.916  1.00  0.00    -0.324 A  
ENDBRANCH  12  14
TORSDOF 1
ENDMDL
MODEL       23
REMARK 921   NORMALIZED FREE ENERGY PREDICTED BY IDOCK:   -6.34 KCAL/MOL
REMARK 922        TOTAL FREE ENERGY PREDICTED BY IDOCK:   -7.15 KCAL/MOL
REMARK 923 INTER-LIGAND FREE ENERGY PREDICTED BY IDOCK:   -6.70 KCAL/MOL
REMARK 924 INTRA-LIGAND FREE ENERGY PREDICTED BY IDOCK:   -0.46 KCAL/MOL
REMARK 927      BINDING AFFINITY PREDICTED BY RF-SCORE:    0.00 PKD
ROOT
HETATM    1  C   UNL     1      -8.708   7.777  69.546  1.00  0.00    -0.135 C  
HETATM    2  S   UNL     1      -9.293   8.851  70.923  1.00  0.00    -0.259 SA 
HETATM    3  C   UNL     1     -10.609   7.689  71.483  1.00  0.00    -0.212 C  
HETATM    4  CA  UNL     1     -10.149   6.299  70.975  1.00  0.00    -0.185 C  
HETATM    5  C   UNL     1     -11.933   8.140  70.834  1.00  0.00    -0.195 C  
HETATM    6  C   UNL     1     -10.788   7.824  72.998  1.00  0.00    -0.451 C  
HETATM    7  N   UNL     1      -9.464   6.513  69.681  1.00  0.00    -0.145 N  
HETATM    8  C   UNL     1      -9.172   5.543  71.895  1.00  0.00    -0.141 C  
HETATM    9  C   UNL     1     -10.207   6.727  68.548  1.00  0.00    -0.175 C  
HETATM   10  OXT UNL     1      -9.366   5.308  73.077  1.00  0.00    -0.133 OA 
HETATM   11  O   UNL     1      -8.075   5.066  71.251  1.00  0.00    -0.105 OA 
HETATM   12  CA  UNL     1      -9.364   7.961  68.149  1.00  0.00    -0.142 C  
HETATM   13  O   UNL     1     -11.239   6.218  68.175  1.00  0.00    -0.327 OA 
ENDROOT
BRANCH  12  14
HETATM   14  N   UNL     1     -10.094   9.240  67.916  1.00  0.00    -0.188 N  
HETATM   15  C   UNL     1      -9.403  10.327  67.432  1.00  0.00    -0.145 C  
HETATM   16  H   UNL     1     -11.093   9.308  68.111  1.00  0.00     0.000 HD 
HETATM   17  C   UNL     1     -10.155  11.643  67.360  1.00  0.00    -0.218 C  
HETATM   18  O   UNL     1      -8.229  10.229  67.066  1.00  0.00    -0.120 OA 
HETATM   19  C   UNL     1      -9.288  12.847  67.707  1.00  0.00    -0.203 C  
HETATM   20  C   UNL     1     -10.851  11.829  66.020  1.00  0.00    -0.343 A  
HETATM   21  O   UNL     1      -7.958  12.729  67.497  1.00  0.00    -0.154 OA 
HETATM   22  C   UNL     1     -12.004  12.629  65.943  1.00  0.00    -0.497 A  
HETATM   23  O   UNL     1      -9.765  13.897  68.130  1.00  0.00    -0.210 OA 
HETATM   24  C   UNL     1     -12.640  12.842  64.719  1.00  0.00    -0.518 A  
HETATM   25  C   UNL     1     -12.137  12.260  63.558  1.00  0.00    -0.649 A  
HETATM   26  C   UNL     1     -10.995  11.468  63.617  1.00  0.00    -0.482 A  
HETATM   27  C   UNL     1     -10.352  11.260  64.836  1.00  0.00    -0.362 A  
ENDBRANCH  12  14
TORSDOF 1
ENDMDL
MODEL       24
REMARK 921   NORMALIZED FREE ENERGY PREDICTED BY IDOCK:   -6.32 KCAL/MOL
REMARK 922        TOTAL FREE ENERGY PREDICTED BY IDOCK:   -7.13 KCAL/MOL
REMARK 923 INTER-LIGAND FREE ENERGY PREDICTED BY IDOCK:   -6.67 KCAL/MOL
REMARK 924 INTRA-LIGAND FREE ENERGY PREDICTED BY IDOCK:   -0.46 KCAL/MOL
REMARK 927      BINDING AFFINITY PREDICTED BY RF-SCORE:    0.00 PKD
ROOT
HETATM    1  C   UNL     1      -9.319  12.167  66.646  1.00  0.00    -0.226 C  
HETATM    2  S   UNL     1      -8.968  11.942  68.440  1.00  0.00    -0.126 SA 
HETATM    3  C   UNL     1     -10.617  11.218  68.834  1.00  0.00    -0.207 C  
HETATM    4  CA  UNL     1     -11.124  10.640  67.488  1.00  0.00    -0.300 C  
HETATM    5  C   UNL     1     -11.512  12.360  69.355  1.00  0.00    -0.336 C  
HETATM    6  C   UNL     1     -10.464  10.214  69.980  1.00  0.00    -0.325 C  
HETATM    7  N   UNL     1     -10.638  11.537  66.417  1.00  0.00    -0.250 N  
HETATM    8  C   UNL     1     -10.645   9.216  67.152  1.00  0.00    -0.216 C  
HETATM    9  C   UNL     1     -11.274  12.731  66.192  1.00  0.00    -0.298 C  
HETATM   10  OXT UNL     1     -10.765   8.246  67.883  1.00  0.00    -0.178 OA 
HETATM   11  O   UNL     1     -10.133   9.096  65.899  1.00  0.00    -0.273 OA 
HETATM   12  CA  UNL     1      -9.941  13.516  66.188  1.00  0.00    -0.304 C  
HETATM   13  O   UNL     1     -12.451  13.011  66.202  1.00  0.00    -0.453 OA 
ENDROOT
BRANCH  12  14
HETATM   14  N   UNL     1      -9.821  14.663  67.133  1.00  0.00    -0.234 N  
HETATM   15  C   UNL     1      -8.718  15.482  67.057  1.00  0.00    -0.231 C  
HETATM   16  H   UNL     1     -10.548  14.840  67.827  1.00  0.00     0.000 HD 
HETATM   17  C   UNL     1      -8.567  16.536  68.137  1.00  0.00    -0.193 C  
HETATM   18  O   UNL     1      -7.895  15.366  66.144  1.00  0.00     0.397 OA 
HETATM   19  C   UNL     1      -7.121  16.753  68.565  1.00  0.00    -0.183 C  
HETATM   20  C   UNL     1      -9.233  17.848  67.749  1.00  0.00    -0.258 A  
HETATM   21  O   UNL     1      -6.161  16.463  67.659  1.00  0.00    -0.116 OA 
HETATM   22  C   UNL     1      -9.703  18.710  68.755  1.00  0.00    -0.407 A  
HETATM   23  O   UNL     1      -6.825  17.199  69.671  1.00  0.00    -0.171 OA 
HETATM   24  C   UNL     1     -10.286  19.934  68.424  1.00  0.00    -0.557 A  
HETATM   25  C   UNL     1     -10.409  20.315  67.090  1.00  0.00    -0.419 A  
HETATM   26  C   UNL     1      -9.946  19.474  66.083  1.00  0.00    -0.526 A  
HETATM   27  C   UNL     1      -9.355  18.253  66.409  1.00  0.00    -0.280 A  
ENDBRANCH  12  14
TORSDOF 1
ENDMDL
MODEL       25
REMARK 921   NORMALIZED FREE ENERGY PREDICTED BY IDOCK:   -6.25 KCAL/MOL
REMARK 922        TOTAL FREE ENERGY PREDICTED BY IDOCK:   -7.05 KCAL/MOL
REMARK 923 INTER-LIGAND FREE ENERGY PREDICTED BY IDOCK:   -6.65 KCAL/MOL
REMARK 924 INTRA-LIGAND FREE ENERGY PREDICTED BY IDOCK:   -0.40 KCAL/MOL
REMARK 927      BINDING AFFINITY PREDICTED BY RF-SCORE:    0.00 PKD
ROOT
HETATM    1  C   UNL     1     -10.446   8.990  68.328  1.00  0.00    -0.200 C  
HETATM    2  S   UNL     1      -9.864   8.631  66.617  1.00  0.00    -0.285 SA 
HETATM    3  C   UNL     1      -8.192   8.055  67.137  1.00  0.00    -0.117 C  
HETATM    4  CA  UNL     1      -8.370   7.608  68.610  1.00  0.00    -0.129 C  
HETATM    5  C   UNL     1      -7.228   9.251  67.000  1.00  0.00    -0.087 C  
HETATM    6  C   UNL     1      -7.706   6.978  66.163  1.00  0.00    -0.095 C  
HETATM    7  N   UNL     1      -9.370   8.510  69.222  1.00  0.00    -0.153 N  
HETATM    8  C   UNL     1      -8.865   6.164  68.812  1.00  0.00    -0.121 C  
HETATM    9  C   UNL     1      -8.998   9.772  69.607  1.00  0.00    -0.215 C  
HETATM   10  OXT UNL     1      -8.344   5.171  68.328  1.00  0.00    -0.096 OA 
HETATM   11  O   UNL     1      -9.914   6.063  69.670  1.00  0.00    -0.156 OA 
HETATM   12  CA  UNL     1     -10.209  10.418  68.894  1.00  0.00    -0.205 C  
HETATM   13  O   UNL     1      -7.985  10.168  70.136  1.00  0.00    -0.160 OA 
ENDROOT
BRANCH  12  14
HETATM   14  N   UNL     1      -9.924  11.493  67.900  1.00  0.00    -0.179 N  
HETATM   15  C   UNL     1     -10.971  12.078  67.227  1.00  0.00    -0.262 C  
HETATM   16  H   UNL     1      -8.964  11.790  67.722  1.00  0.00     0.000 HD 
HETATM   17  C   UNL     1     -10.618  13.052  66.118  1.00  0.00    -0.289 C  
HETATM   18  O   UNL     1     -12.143  11.827  67.521  1.00  0.00    -0.599 OA 
HETATM   19  C   UNL     1     -11.559  12.968  64.924  1.00  0.00    -0.326 C  
HETATM   20  C   UNL     1     -10.500  14.481  66.631  1.00  0.00    -0.274 A  
HETATM   21  O   UNL     1     -12.813  12.519  65.159  1.00  0.00    -0.685 OA 
HETATM   22  C   UNL     1      -9.665  15.391  65.960  1.00  0.00    -0.370 A  
HETATM   23  O   UNL     1     -11.219  13.316  63.796  1.00  0.00    -0.341 OA 
HETATM   24  C   UNL     1      -9.568  16.714  66.392  1.00  0.00    -0.308 A  
HETATM   25  C   UNL     1     -10.298  17.148  67.495  1.00  0.00    -0.341 A  
HETATM   26  C   UNL     1     -11.132  16.260  68.168  1.00  0.00    -0.329 A  
HETATM   27  C   UNL     1     -11.238  14.938  67.736  1.00  0.00    -0.329 A  
ENDBRANCH  12  14
TORSDOF 1
ENDMDL
MODEL       26
REMARK 921   NORMALIZED FREE ENERGY PREDICTED BY IDOCK:   -6.20 KCAL/MOL
REMARK 922        TOTAL FREE ENERGY PREDICTED BY IDOCK:   -7.00 KCAL/MOL
REMARK 923 INTER-LIGAND FREE ENERGY PREDICTED BY IDOCK:   -6.46 KCAL/MOL
REMARK 924 INTRA-LIGAND FREE ENERGY PREDICTED BY IDOCK:   -0.54 KCAL/MOL
REMARK 927      BINDING AFFINITY PREDICTED BY RF-SCORE:    0.00 PKD
ROOT
HETATM    1  C   UNL     1      -8.929   9.472  70.192  1.00  0.00    -0.236 C  
HETATM    2  S   UNL     1     -10.635   8.801  70.017  1.00  0.00    -0.225 SA 
HETATM    3  C   UNL     1     -10.178   7.533  68.760  1.00  0.00    -0.197 C  
HETATM    4  CA  UNL     1      -8.663   7.292  68.978  1.00  0.00    -0.132 C  
HETATM    5  C   UNL     1     -10.483   8.126  67.370  1.00  0.00    -0.356 C  
HETATM    6  C   UNL     1     -11.082   6.308  68.929  1.00  0.00    -0.434 C  
HETATM    7  N   UNL     1      -8.068   8.586  69.378  1.00  0.00    -0.110 N  
HETATM    8  C   UNL     1      -8.300   6.262  70.063  1.00  0.00    -0.129 C  
HETATM    9  C   UNL     1      -7.823   9.543  68.427  1.00  0.00    -0.086 C  
HETATM   10  OXT UNL     1      -8.728   5.119  70.113  1.00  0.00    -0.107 OA 
HETATM   11  O   UNL     1      -7.370   6.706  70.948  1.00  0.00    -0.079 OA 
HETATM   12  CA  UNL     1      -8.509  10.647  69.265  1.00  0.00    -0.091 C  
HETATM   13  O   UNL     1      -7.398   9.441  67.299  1.00  0.00    -0.086 OA 
ENDROOT
BRANCH  12  14
HETATM   14  N   UNL     1      -9.611  11.412  68.614  1.00  0.00    -0.261 N  
HETATM   15  C   UNL     1      -9.300  12.500  67.831  1.00  0.00    -0.200 C  
HETATM   16  H   UNL     1     -10.584  11.133  68.747  1.00  0.00     0.000 HD 
HETATM   17  C   UNL     1     -10.459  13.335  67.321  1.00  0.00    -0.247 C  
HETATM   18  O   UNL     1      -8.130  12.775  67.551  1.00  0.00    -0.157 OA 
HETATM   19  C   UNL     1     -10.156  14.828  67.292  1.00  0.00    -0.236 C  
HETATM   20  C   UNL     1     -10.962  12.846  65.970  1.00  0.00    -0.301 A  
HETATM   21  O   UNL     1      -8.858  15.190  67.172  1.00  0.00    -0.190 OA 
HETATM   22  C   UNL     1     -12.302  13.070  65.608  1.00  0.00    -0.504 A  
HETATM   23  O   UNL     1     -11.041  15.677  67.344  1.00  0.00    -0.316 OA 
HETATM   24  C   UNL     1     -12.777  12.661  64.361  1.00  0.00    -0.417 A  
HETATM   25  C   UNL     1     -11.926  12.023  63.461  1.00  0.00    -0.605 A  
HETATM   26  C   UNL     1     -10.597  11.798  63.804  1.00  0.00    -0.470 A  
HETATM   27  C   UNL     1     -10.116  12.212  65.045  1.00  0.00    -0.289 A  
ENDBRANCH  12  14
TORSDOF 1
ENDMDL
MODEL       27
REMARK 921   NORMALIZED FREE ENERGY PREDICTED BY IDOCK:   -6.18 KCAL/MOL
REMARK 922        TOTAL FREE ENERGY PREDICTED BY IDOCK:   -6.98 KCAL/MOL
REMARK 923 INTER-LIGAND FREE ENERGY PREDICTED BY IDOCK:   -6.45 KCAL/MOL
REMARK 924 INTRA-LIGAND FREE ENERGY PREDICTED BY IDOCK:   -0.53 KCAL/MOL
REMARK 927      BINDING AFFINITY PREDICTED BY RF-SCORE:    0.00 PKD
ROOT
HETATM    1  C   UNL     1      -6.678  16.386  68.218  1.00  0.00    -0.132 C  
HETATM    2  S   UNL     1      -6.551  17.046  66.503  1.00  0.00    -0.164 SA 
HETATM    3  C   UNL     1      -7.894  18.290  66.714  1.00  0.00    -0.235 C  
HETATM    4  CA  UNL     1      -7.962  18.542  68.241  1.00  0.00    -0.305 C  
HETATM    5  C   UNL     1      -9.193  17.667  66.164  1.00  0.00    -0.145 C  
HETATM    6  C   UNL     1      -7.587  19.514  65.846  1.00  0.00    -0.306 C  
HETATM    7  N   UNL     1      -7.652  17.258  68.909  1.00  0.00    -0.256 N  
HETATM    8  C   UNL     1      -6.981  19.596  68.787  1.00  0.00    -0.339 C  
HETATM    9  C   UNL     1      -8.613  16.284  68.984  1.00  0.00    -0.247 C  
HETATM   10  OXT UNL     1      -6.876  20.737  68.367  1.00  0.00    -0.203 OA 
HETATM   11  O   UNL     1      -6.273  19.173  69.867  1.00  0.00    -0.264 OA 
HETATM   12  CA  UNL     1      -7.643  15.194  68.471  1.00  0.00    -0.120 C  
HETATM   13  O   UNL     1      -9.802  16.364  69.194  1.00  0.00    -0.260 OA 
ENDROOT
BRANCH  12  14
HETATM   14  N   UNL     1      -8.067  14.411  67.275  1.00  0.00    -0.235 N  
HETATM   15  C   UNL     1      -8.790  13.254  67.453  1.00  0.00    -0.204 C  
HETATM   16  H   UNL     1      -7.823  14.728  66.336  1.00  0.00     0.000 HD 
HETATM   17  C   UNL     1      -9.061  12.415  66.218  1.00  0.00    -0.099 C  
HETATM   18  O   UNL     1      -9.206  12.923  68.567  1.00  0.00    -0.165 OA 
HETATM   19  C   UNL     1      -9.006  10.917  66.489  1.00  0.00    -0.168 C  
HETATM   20  C   UNL     1     -10.365  12.807  65.538  1.00  0.00    -0.301 A  
HETATM   21  O   UNL     1      -9.274  10.508  67.749  1.00  0.00    -0.144 OA 
HETATM   22  C   UNL     1     -10.517  12.593  64.157  1.00  0.00    -0.438 A  
HETATM   23  O   UNL     1      -8.758  10.100  65.605  1.00  0.00    -0.147 OA 
HETATM   24  C   UNL     1     -11.716  12.913  63.518  1.00  0.00    -0.576 A  
HETATM   25  C   UNL     1     -12.776  13.450  64.244  1.00  0.00    -0.112 A  
HETATM   26  C   UNL     1     -12.642  13.664  65.612  1.00  0.00    -0.531 A  
HETATM   27  C   UNL     1     -11.449  13.338  66.256  1.00  0.00    -0.358 A  
ENDBRANCH  12  14
TORSDOF 1
ENDMDL
MODEL       28
REMARK 921   NORMALIZED FREE ENERGY PREDICTED BY IDOCK:   -6.14 KCAL/MOL
REMARK 922        TOTAL FREE ENERGY PREDICTED BY IDOCK:   -6.94 KCAL/MOL
REMARK 923 INTER-LIGAND FREE ENERGY PREDICTED BY IDOCK:   -6.65 KCAL/MOL
REMARK 924 INTRA-LIGAND FREE ENERGY PREDICTED BY IDOCK:   -0.29 KCAL/MOL
REMARK 927      BINDING AFFINITY PREDICTED BY RF-SCORE:    0.00 PKD
ROOT
HETATM    1  C   UNL     1     -10.897   8.667  69.211  1.00  0.00    -0.065 C  
HETATM    2  S   UNL     1     -10.221   8.414  67.516  1.00  0.00    -0.262 SA 
HETATM    3  C   UNL     1      -8.667   7.603  68.085  1.00  0.00    -0.122 C  
HETATM    4  CA  UNL     1      -9.009   7.036  69.486  1.00  0.00    -0.143 C  
HETATM    5  C   UNL     1      -7.572   8.688  68.144  1.00  0.00    -0.097 C  
HETATM    6  C   UNL     1      -8.221   6.579  67.038  1.00  0.00    -0.113 C  
HETATM    7  N   UNL     1      -9.953   7.982  70.121  1.00  0.00    -0.189 N  
HETATM    8  C   UNL     1      -9.670   5.645  69.498  1.00  0.00    -0.154 C  
HETATM    9  C   UNL     1      -9.481   9.150  70.663  1.00  0.00    -0.261 C  
HETATM   10  OXT UNL     1      -9.220   4.653  68.948  1.00  0.00    -0.112 OA 
HETATM   11  O   UNL     1     -10.789   5.581  70.266  1.00  0.00    -0.289 OA 
HETATM   12  CA  UNL     1     -10.555   9.997  69.940  1.00  0.00    -0.282 C  
HETATM   13  O   UNL     1      -8.477   9.373  71.300  1.00  0.00    -0.302 OA 
ENDROOT
BRANCH  12  14
HETATM   14  N   UNL     1     -10.078  11.124  69.090  1.00  0.00    -0.383 N  
HETATM   15  C   UNL     1     -10.976  11.779  68.279  1.00  0.00    -0.229 C  
HETATM   16  H   UNL     1      -9.097  11.406  69.108  1.00  0.00     0.000 HD 
HETATM   17  C   UNL     1     -10.412  12.812  67.321  1.00  0.00    -0.238 C  
HETATM   18  O   UNL     1     -12.185  11.541  68.339  1.00  0.00    -0.540 OA 
HETATM   19  C   UNL     1     -11.122  12.828  65.973  1.00  0.00    -0.285 C  
HETATM   20  C   UNL     1     -10.369  14.201  67.941  1.00  0.00    -0.234 A  
HETATM   21  O   UNL     1     -12.404  12.398  65.946  1.00  0.00    -0.638 OA 
HETATM   22  C   UNL     1      -9.413  15.129  67.495  1.00  0.00    -0.206 A  
HETATM   23  O   UNL     1     -10.577  13.238  64.951  1.00  0.00    -0.325 OA 
HETATM   24  C   UNL     1      -9.377  16.420  68.025  1.00  0.00    -0.216 A  
HETATM   25  C   UNL     1     -10.290  16.802  69.005  1.00  0.00    -0.326 A  
HETATM   26  C   UNL     1     -11.245  15.895  69.454  1.00  0.00    -0.336 A  
HETATM   27  C   UNL     1     -11.290  14.607  68.922  1.00  0.00    -0.305 A  
ENDBRANCH  12  14
TORSDOF 1
ENDMDL
MODEL       29
REMARK 921   NORMALIZED FREE ENERGY PREDICTED BY IDOCK:   -6.08 KCAL/MOL
REMARK 922        TOTAL FREE ENERGY PREDICTED BY IDOCK:   -6.88 KCAL/MOL
REMARK 923 INTER-LIGAND FREE ENERGY PREDICTED BY IDOCK:   -6.38 KCAL/MOL
REMARK 924 INTRA-LIGAND FREE ENERGY PREDICTED BY IDOCK:   -0.49 KCAL/MOL
REMARK 927      BINDING AFFINITY PREDICTED BY RF-SCORE:    0.00 PKD
ROOT
HETATM    1  C   UNL     1     -11.785  12.585  68.017  1.00  0.00    -0.355 C  
HETATM    2  S   UNL     1     -10.608  13.903  68.538  1.00  0.00    -0.255 SA 
HETATM    3  C   UNL     1      -9.727  13.976  66.921  1.00  0.00    -0.271 C  
HETATM    4  CA  UNL     1     -10.746  13.425  65.892  1.00  0.00    -0.279 C  
HETATM    5  C   UNL     1      -8.472  13.087  67.036  1.00  0.00    -0.142 C  
HETATM    6  C   UNL     1      -9.237  15.407  66.680  1.00  0.00    -0.303 C  
HETATM    7  N   UNL     1     -11.531  12.373  66.575  1.00  0.00    -0.350 N  
HETATM    8  C   UNL     1     -11.744  14.453  65.328  1.00  0.00    -0.364 C  
HETATM    9  C   UNL     1     -10.981  11.130  66.759  1.00  0.00    -0.249 C  
HETATM   10  OXT UNL     1     -11.438  15.514  64.807  1.00  0.00    -0.385 OA 
HETATM   11  O   UNL     1     -13.038  14.039  65.377  1.00  0.00    -0.763 OA 
HETATM   12  CA  UNL     1     -11.375  11.105  68.255  1.00  0.00    -0.297 C  
HETATM   13  O   UNL     1     -10.292  10.457  66.027  1.00  0.00    -0.241 OA 
ENDROOT
BRANCH  12  14
HETATM   14  N   UNL     1     -10.285  10.863  69.244  1.00  0.00    -0.351 N  
HETATM   15  C   UNL     1     -10.161   9.617  69.812  1.00  0.00    -0.233 C  
HETATM   16  H   UNL     1      -9.640  11.613  69.496  1.00  0.00     0.000 HD 
HETATM   17  C   UNL     1      -9.139   9.466  70.924  1.00  0.00    -0.220 C  
HETATM   18  O   UNL     1     -10.844   8.665  69.426  1.00  0.00    -0.197 OA 
HETATM   19  C   UNL     1      -9.597   8.531  72.036  1.00  0.00    -0.301 C  
HETATM   20  C   UNL     1      -7.772   9.064  70.390  1.00  0.00    -0.110 A  
HETATM   21  O   UNL     1     -10.496   7.576  71.706  1.00  0.00    -0.193 OA 
HETATM   22  C   UNL     1      -6.617   9.418  71.108  1.00  0.00    -0.058 A  
HETATM   23  O   UNL     1      -9.157   8.610  73.180  1.00  0.00    -0.270 OA 
HETATM   24  C   UNL     1      -5.354   9.030  70.656  1.00  0.00    -0.027 A  
HETATM   25  C   UNL     1      -5.226   8.288  69.484  1.00  0.00    -0.030 A  
HETATM   26  C   UNL     1      -6.361   7.927  68.765  1.00  0.00    -0.044 A  
HETATM   27  C   UNL     1      -7.624   8.305  69.217  1.00  0.00    -0.094 A  
ENDBRANCH  12  14
TORSDOF 1
ENDMDL
MODEL       30
REMARK 921   NORMALIZED FREE ENERGY PREDICTED BY IDOCK:   -6.04 KCAL/MOL
REMARK 922        TOTAL FREE ENERGY PREDICTED BY IDOCK:   -6.83 KCAL/MOL
REMARK 923 INTER-LIGAND FREE ENERGY PREDICTED BY IDOCK:   -6.31 KCAL/MOL
REMARK 924 INTRA-LIGAND FREE ENERGY PREDICTED BY IDOCK:   -0.52 KCAL/MOL
REMARK 927      BINDING AFFINITY PREDICTED BY RF-SCORE:    0.00 PKD
ROOT
HETATM    1  C   UNL     1     -11.948  13.072  66.328  1.00  0.00    -0.414 C  
HETATM    2  S   UNL     1     -11.564  14.003  67.870  1.00  0.00    -0.363 SA 
HETATM    3  C   UNL     1      -9.977  14.700  67.243  1.00  0.00    -0.235 C  
HETATM    4  CA  UNL     1     -10.116  14.668  65.700  1.00  0.00    -0.363 C  
HETATM    5  C   UNL     1      -8.840  13.788  67.747  1.00  0.00    -0.188 C  
HETATM    6  C   UNL     1      -9.751  16.079  67.868  1.00  0.00    -0.220 C  
HETATM    7  N   UNL     1     -10.903  13.463  65.357  1.00  0.00    -0.288 N  
HETATM    8  C   UNL     1     -10.828  15.879  65.070  1.00  0.00    -0.426 C  
HETATM    9  C   UNL     1     -10.298  12.233  65.370  1.00  0.00    -0.269 C  
HETATM   10  OXT UNL     1     -10.518  17.046  65.253  1.00  0.00    -0.649 OA 
HETATM   11  O   UNL     1     -11.812  15.540  64.197  1.00  0.00    -0.463 OA 
HETATM   12  CA  UNL     1     -11.435  11.609  66.213  1.00  0.00    -0.145 C  
HETATM   13  O   UNL     1      -9.196  11.893  65.003  1.00  0.00    -0.001 OA 
ENDROOT
BRANCH  12  14
HETATM   14  N   UNL     1     -11.049  10.933  67.485  1.00  0.00    -0.299 N  
HETATM   15  C   UNL     1     -10.563   9.646  67.440  1.00  0.00    -0.268 C  
HETATM   16  H   UNL     1     -11.145  11.418  68.378  1.00  0.00     0.000 HD 
HETATM   17  C   UNL     1     -10.334   8.950  68.768  1.00  0.00    -0.232 C  
HETATM   18  O   UNL     1     -10.317   9.092  66.365  1.00  0.00    -0.261 OA 
HETATM   19  C   UNL     1     -10.680   7.467  68.735  1.00  0.00    -0.095 C  
HETATM   20  C   UNL     1      -8.924   9.178  69.294  1.00  0.00    -0.145 A  
HETATM   21  O   UNL     1     -10.606   6.845  67.537  1.00  0.00    -0.215 OA 
HETATM   22  C   UNL     1      -8.686   9.133  70.679  1.00  0.00    -0.272 A  
HETATM   23  O   UNL     1     -10.986   6.844  69.748  1.00  0.00    -0.247 OA 
HETATM   24  C   UNL     1      -7.396   9.305  71.182  1.00  0.00    -0.050 A  
HETATM   25  C   UNL     1      -6.328   9.525  70.316  1.00  0.00    -0.066 A  
HETATM   26  C   UNL     1      -6.547   9.569  68.942  1.00  0.00    -0.047 A  
HETATM   27  C   UNL     1      -7.833   9.389  68.434  1.00  0.00    -0.090 A  
ENDBRANCH  12  14
TORSDOF 1
ENDMDL
MODEL       31
REMARK 921   NORMALIZED FREE ENERGY PREDICTED BY IDOCK:   -5.99 KCAL/MOL
REMARK 922        TOTAL FREE ENERGY PREDICTED BY IDOCK:   -6.78 KCAL/MOL
REMARK 923 INTER-LIGAND FREE ENERGY PREDICTED BY IDOCK:   -7.00 KCAL/MOL
REMARK 924 INTRA-LIGAND FREE ENERGY PREDICTED BY IDOCK:    0.22 KCAL/MOL
REMARK 927      BINDING AFFINITY PREDICTED BY RF-SCORE:    0.00 PKD
ROOT
HETATM    1  C   UNL     1      -9.237  12.209  67.499  1.00  0.00    -0.182 C  
HETATM    2  S   UNL     1      -8.218  10.963  66.603  1.00  0.00    -0.150 SA 
HETATM    3  C   UNL     1      -9.599  10.365  65.540  1.00  0.00    -0.234 C  
HETATM    4  CA  UNL     1     -10.607  11.541  65.505  1.00  0.00    -0.281 C  
HETATM    5  C   UNL     1     -10.189   9.108  66.210  1.00  0.00    -0.257 C  
HETATM    6  C   UNL     1      -9.036   9.925  64.185  1.00  0.00    -0.294 C  
HETATM    7  N   UNL     1     -10.556  12.199  66.830  1.00  0.00    -0.222 N  
HETATM    8  C   UNL     1     -10.335  12.621  64.442  1.00  0.00    -0.360 C  
HETATM    9  C   UNL     1     -11.197  11.625  67.897  1.00  0.00    -0.269 C  
HETATM   10  OXT UNL     1     -10.186  12.407  63.250  1.00  0.00    -0.373 OA 
HETATM   11  O   UNL     1     -10.358  13.888  64.934  1.00  0.00    -0.397 OA 
HETATM   12  CA  UNL     1      -9.953  11.762  68.805  1.00  0.00    -0.115 C  
HETATM   13  O   UNL     1     -12.269  11.067  67.965  1.00  0.00    -0.520 OA 
ENDROOT
BRANCH  12  14
HETATM   14  N   UNL     1      -9.443  10.523  69.457  1.00  0.00    -0.399 N  
HETATM   15  C   UNL     1     -10.294   9.780  70.242  1.00  0.00    -0.291 C  
HETATM   16  H   UNL     1      -8.474  10.229  69.323  1.00  0.00     0.000 HD 
HETATM   17  C   UNL     1      -9.687   8.618  71.007  1.00  0.00    -0.266 C  
HETATM   18  O   UNL     1     -11.497  10.044  70.311  1.00  0.00    -0.265 OA 
HETATM   19  C   UNL     1     -10.291   8.432  72.393  1.00  0.00    -0.329 C  
HETATM   20  C   UNL     1      -9.730   7.324  70.205  1.00  0.00    -0.175 A  
HETATM   21  O   UNL     1     -11.555   8.875  72.578  1.00  0.00    -0.258 OA 
HETATM   22  C   UNL     1      -8.768   6.329  70.447  1.00  0.00    -0.146 A  
HETATM   23  O   UNL     1      -9.682   7.879  73.304  1.00  0.00    -0.282 OA 
HETATM   24  C   UNL     1      -8.807   5.121  69.749  1.00  0.00    -0.130 A  
HETATM   25  C   UNL     1      -9.803   4.890  68.802  1.00  0.00    -0.231 A  
HETATM   26  C   UNL     1     -10.764   5.865  68.555  1.00  0.00    -0.327 A  
HETATM   27  C   UNL     1     -10.733   7.070  69.256  1.00  0.00    -0.245 A  
ENDBRANCH  12  14
TORSDOF 1
ENDMDL
MODEL       32
REMARK 921   NORMALIZED FREE ENERGY PREDICTED BY IDOCK:   -5.96 KCAL/MOL
REMARK 922        TOTAL FREE ENERGY PREDICTED BY IDOCK:   -6.75 KCAL/MOL
REMARK 923 INTER-LIGAND FREE ENERGY PREDICTED BY IDOCK:   -6.31 KCAL/MOL
REMARK 924 INTRA-LIGAND FREE ENERGY PREDICTED BY IDOCK:   -0.44 KCAL/MOL
REMARK 927      BINDING AFFINITY PREDICTED BY RF-SCORE:    0.00 PKD
ROOT
HETATM    1  C   UNL     1     -10.678  14.894  68.348  1.00  0.00    -0.245 C  
HETATM    2  S   UNL     1      -9.109  15.171  69.272  1.00  0.00    -0.165 SA 
HETATM    3  C   UNL     1      -8.084  15.439  67.764  1.00  0.00    -0.140 C  
HETATM    4  CA  UNL     1      -9.092  15.889  66.677  1.00  0.00    -0.260 C  
HETATM    5  C   UNL     1      -7.410  14.096  67.417  1.00  0.00    -0.143 C  
HETATM    6  C   UNL     1      -6.961  16.428  68.088  1.00  0.00    -0.138 C  
HETATM    7  N   UNL     1     -10.358  15.166  66.930  1.00  0.00    -0.267 N  
HETATM    8  C   UNL     1      -9.417  17.394  66.651  1.00  0.00    -0.274 C  
HETATM    9  C   UNL     1     -10.475  13.852  66.554  1.00  0.00    -0.282 C  
HETATM   10  OXT UNL     1      -8.587  18.287  66.585  1.00  0.00    -0.258 OA 
HETATM   11  O   UNL     1     -10.748  17.663  66.622  1.00  0.00    -0.254 OA 
HETATM   12  CA  UNL     1     -11.034  13.438  67.935  1.00  0.00    -0.256 C  
HETATM   13  O   UNL     1     -10.082  13.278  65.564  1.00  0.00    -0.292 OA 
ENDROOT
BRANCH  12  14
HETATM   14  N   UNL     1     -10.324  12.345  68.659  1.00  0.00    -0.324 N  
HETATM   15  C   UNL     1     -11.030  11.228  69.045  1.00  0.00    -0.236 C  
HETATM   16  H   UNL     1      -9.328  12.424  68.867  1.00  0.00     0.000 HD 
HETATM   17  C   UNL     1     -10.301  10.219  69.912  1.00  0.00    -0.281 C  
HETATM   18  O   UNL     1     -12.199  11.054  68.690  1.00  0.00    -0.571 OA 
HETATM   19  C   UNL     1     -11.191   9.589  70.976  1.00  0.00    -0.362 C  
HETATM   20  C   UNL     1      -9.595   9.157  69.080  1.00  0.00    -0.156 A  
HETATM   21  O   UNL     1     -12.517   9.540  70.718  1.00  0.00    -0.237 OA 
HETATM   22  C   UNL     1      -8.456   8.516  69.597  1.00  0.00    -0.130 A  
HETATM   23  O   UNL     1     -10.736   9.116  72.014  1.00  0.00    -0.341 OA 
HETATM   24  C   UNL     1      -7.813   7.516  68.867  1.00  0.00    -0.124 A  
HETATM   25  C   UNL     1      -8.295   7.141  67.615  1.00  0.00    -0.117 A  
HETATM   26  C   UNL     1      -9.424   7.763  67.091  1.00  0.00    -0.198 A  
HETATM   27  C   UNL     1     -10.074   8.758  67.821  1.00  0.00    -0.261 A  
ENDBRANCH  12  14
TORSDOF 1
ENDMDL
MODEL       33
REMARK 921   NORMALIZED FREE ENERGY PREDICTED BY IDOCK:   -5.87 KCAL/MOL
REMARK 922        TOTAL FREE ENERGY PREDICTED BY IDOCK:   -6.66 KCAL/MOL
REMARK 923 INTER-LIGAND FREE ENERGY PREDICTED BY IDOCK:   -6.26 KCAL/MOL
REMARK 924 INTRA-LIGAND FREE ENERGY PREDICTED BY IDOCK:   -0.40 KCAL/MOL
REMARK 927      BINDING AFFINITY PREDICTED BY RF-SCORE:    0.00 PKD
ROOT
HETATM    1  C   UNL     1      -8.961  13.573  67.425  1.00  0.00    -0.219 C  
HETATM    2  S   UNL     1      -9.537  14.347  68.994  1.00  0.00     0.023 SA 
HETATM    3  C   UNL     1     -11.329  14.226  68.580  1.00  0.00    -0.275 C  
HETATM    4  CA  UNL     1     -11.418  13.076  67.546  1.00  0.00    -0.328 C  
HETATM    5  C   UNL     1     -11.760  15.582  67.986  1.00  0.00    -0.198 C  
HETATM    6  C   UNL     1     -12.131  14.031  69.870  1.00  0.00    -0.406 C  
HETATM    7  N   UNL     1     -10.187  13.130  66.727  1.00  0.00    -0.248 N  
HETATM    8  C   UNL     1     -11.519  11.657  68.134  1.00  0.00    -0.313 C  
HETATM    9  C   UNL     1     -10.074  14.070  65.735  1.00  0.00    -0.327 C  
HETATM   10  OXT UNL     1     -12.348  11.297  68.955  1.00  0.00    -0.485 OA 
HETATM   11  O   UNL     1     -10.637  10.778  67.591  1.00  0.00    -0.199 OA 
HETATM   12  CA  UNL     1      -8.670  14.506  66.216  1.00  0.00     0.209 C  
HETATM   13  O   UNL     1     -10.890  14.480  64.941  1.00  0.00    -0.385 OA 
ENDROOT
BRANCH  12  14
HETATM   14  N   UNL     1      -8.471  15.952  66.519  1.00  0.00    -0.293 N  
HETATM   15  C   UNL     1      -7.246  16.378  66.979  1.00  0.00    -0.222 C  
HETATM   16  H   UNL     1      -9.234  16.618  66.388  1.00  0.00     0.000 HD 
HETATM   17  C   UNL     1      -7.142  17.826  67.419  1.00  0.00    -0.201 C  
HETATM   18  O   UNL     1      -6.277  15.616  67.019  1.00  0.00    -0.298 OA 
HETATM   19  C   UNL     1      -6.244  18.019  68.634  1.00  0.00    -0.206 C  
HETATM   20  C   UNL     1      -6.730  18.742  66.275  1.00  0.00    -0.247 A  
HETATM   21  O   UNL     1      -5.271  17.101  68.833  1.00  0.00    -0.141 OA 
HETATM   22  C   UNL     1      -7.117  20.093  66.295  1.00  0.00    -0.291 A  
HETATM   23  O   UNL     1      -6.365  18.978  69.393  1.00  0.00    -0.266 OA 
HETATM   24  C   UNL     1      -6.723  20.959  65.275  1.00  0.00    -0.074 A  
HETATM   25  C   UNL     1      -5.941  20.491  64.221  1.00  0.00    -0.325 A  
HETATM   26  C   UNL     1      -5.546  19.158  64.189  1.00  0.00    -0.329 A  
HETATM   27  C   UNL     1      -5.931  18.290  65.211  1.00  0.00    -0.215 A  
ENDBRANCH  12  14
TORSDOF 1
ENDMDL
MODEL       34
REMARK 921   NORMALIZED FREE ENERGY PREDICTED BY IDOCK:   -5.86 KCAL/MOL
REMARK 922        TOTAL FREE ENERGY PREDICTED BY IDOCK:   -6.64 KCAL/MOL
REMARK 923 INTER-LIGAND FREE ENERGY PREDICTED BY IDOCK:   -6.13 KCAL/MOL
REMARK 924 INTRA-LIGAND FREE ENERGY PREDICTED BY IDOCK:   -0.52 KCAL/MOL
REMARK 927      BINDING AFFINITY PREDICTED BY RF-SCORE:    0.00 PKD
ROOT
HETATM    1  C   UNL     1      -8.589  18.888  68.502  1.00  0.00    -0.348 C  
HETATM    2  S   UNL     1      -7.111  17.791  68.570  1.00  0.00    -0.254 SA 
HETATM    3  C   UNL     1      -6.934  17.651  66.741  1.00  0.00    -0.199 C  
HETATM    4  CA  UNL     1      -7.637  18.912  66.180  1.00  0.00    -0.261 C  
HETATM    5  C   UNL     1      -7.634  16.347  66.306  1.00  0.00    -0.075 C  
HETATM    6  C   UNL     1      -5.451  17.497  66.390  1.00  0.00    -0.238 C  
HETATM    7  N   UNL     1      -8.781  19.207  67.070  1.00  0.00    -0.287 N  
HETATM    8  C   UNL     1      -6.769  20.182  66.107  1.00  0.00    -0.239 C  
HETATM    9  C   UNL     1      -9.931  18.467  66.964  1.00  0.00    -0.344 C  
HETATM   10  OXT UNL     1      -5.682  20.256  65.556  1.00  0.00    -0.170 OA 
HETATM   11  O   UNL     1      -7.362  21.278  66.649  1.00  0.00    -0.145 OA 
HETATM   12  CA  UNL     1      -9.993  18.221  68.489  1.00  0.00    -0.393 C  
HETATM   13  O   UNL     1     -10.509  18.045  65.988  1.00  0.00    -0.429 OA 
ENDROOT
BRANCH  12  14
HETATM   14  N   UNL     1     -10.065  16.804  68.950  1.00  0.00    -0.269 N  
HETATM   15  C   UNL     1     -11.290  16.263  69.265  1.00  0.00    -0.288 C  
HETATM   16  H   UNL     1      -9.216  16.243  69.031  1.00  0.00     0.000 HD 
HETATM   17  C   UNL     1     -11.292  14.874  69.875  1.00  0.00    -0.311 C  
HETATM   18  O   UNL     1     -12.337  16.880  69.049  1.00  0.00     0.943 OA 
HETATM   19  C   UNL     1     -12.357  14.694  70.949  1.00  0.00    -0.336 C  
HETATM   20  C   UNL     1     -11.385  13.786  68.815  1.00  0.00    -0.318 A  
HETATM   21  O   UNL     1     -13.454  15.481  70.867  1.00  0.00    -0.507 OA 
HETATM   22  C   UNL     1     -10.846  12.515  69.078  1.00  0.00    -0.183 A  
HETATM   23  O   UNL     1     -12.254  13.855  71.840  1.00  0.00    -0.160 OA 
HETATM   24  C   UNL     1     -10.950  11.492  68.134  1.00  0.00    -0.279 A  
HETATM   25  C   UNL     1     -11.589  11.721  66.918  1.00  0.00    -0.310 A  
HETATM   26  C   UNL     1     -12.130  12.973  66.644  1.00  0.00    -0.386 A  
HETATM   27  C   UNL     1     -12.036  13.996  67.588  1.00  0.00    -0.344 A  
ENDBRANCH  12  14
TORSDOF 1
ENDMDL
MODEL       35
REMARK 921   NORMALIZED FREE ENERGY PREDICTED BY IDOCK:   -5.81 KCAL/MOL
REMARK 922        TOTAL FREE ENERGY PREDICTED BY IDOCK:   -6.59 KCAL/MOL
REMARK 923 INTER-LIGAND FREE ENERGY PREDICTED BY IDOCK:   -6.10 KCAL/MOL
REMARK 924 INTRA-LIGAND FREE ENERGY PREDICTED BY IDOCK:   -0.50 KCAL/MOL
REMARK 927      BINDING AFFINITY PREDICTED BY RF-SCORE:    0.00 PKD
ROOT
HETATM    1  C   UNL     1      -9.895  12.852  68.096  1.00  0.00    -0.227 C  
HETATM    2  S   UNL     1      -8.921  12.208  66.670  1.00  0.00    -0.172 SA 
HETATM    3  C   UNL     1     -10.395  11.686  65.695  1.00  0.00    -0.262 C  
HETATM    4  CA  UNL     1     -11.555  12.560  66.236  1.00  0.00    -0.394 C  
HETATM    5  C   UNL     1     -10.620  10.184  65.963  1.00  0.00    -0.071 C  
HETATM    6  C   UNL     1     -10.087  11.830  64.202  1.00  0.00    -0.344 C  
HETATM    7  N   UNL     1     -11.312  12.762  67.681  1.00  0.00    -0.290 N  
HETATM    8  C   UNL     1     -11.696  13.952  65.593  1.00  0.00    -0.354 C  
HETATM    9  C   UNL     1     -11.603  11.754  68.565  1.00  0.00    -0.321 C  
HETATM   10  OXT UNL     1     -11.784  14.162  64.393  1.00  0.00    -0.399 OA 
HETATM   11  O   UNL     1     -11.803  14.961  66.496  1.00  0.00    -0.279 OA 
HETATM   12  CA  UNL     1     -10.224  11.871  69.255  1.00  0.00     0.231 C  
HETATM   13  O   UNL     1     -12.534  10.982  68.599  1.00  0.00    -0.462 OA 
ENDROOT
BRANCH  12  14
HETATM   14  N   UNL     1      -9.397  10.633  69.341  1.00  0.00    -0.392 N  
HETATM   15  C   UNL     1      -9.687   9.698  70.308  1.00  0.00    -0.259 C  
HETATM   16  H   UNL     1      -8.625  10.482  68.691  1.00  0.00     0.000 HD 
HETATM   17  C   UNL     1      -8.723   8.536  70.453  1.00  0.00    -0.153 C  
HETATM   18  O   UNL     1     -10.693   9.799  71.015  1.00  0.00    -0.324 OA 
HETATM   19  C   UNL     1      -8.516   8.106  71.899  1.00  0.00    -0.150 C  
HETATM   20  C   UNL     1      -9.116   7.357  69.575  1.00  0.00    -0.143 A  
HETATM   21  O   UNL     1      -9.521   8.362  72.767  1.00  0.00    -0.272 OA 
HETATM   22  C   UNL     1      -8.125   6.467  69.126  1.00  0.00    -0.111 A  
HETATM   23  O   UNL     1      -7.500   7.525  72.271  1.00  0.00    -0.070 OA 
HETATM   24  C   UNL     1      -8.466   5.359  68.349  1.00  0.00    -0.096 A  
HETATM   25  C   UNL     1      -9.796   5.124  68.008  1.00  0.00    -0.199 A  
HETATM   26  C   UNL     1     -10.789   5.994  68.447  1.00  0.00    -0.361 A  
HETATM   27  C   UNL     1     -10.453   7.098  69.231  1.00  0.00    -0.220 A  
ENDBRANCH  12  14
TORSDOF 1
ENDMDL
MODEL       36
REMARK 921   NORMALIZED FREE ENERGY PREDICTED BY IDOCK:   -5.81 KCAL/MOL
REMARK 922        TOTAL FREE ENERGY PREDICTED BY IDOCK:   -6.59 KCAL/MOL
REMARK 923 INTER-LIGAND FREE ENERGY PREDICTED BY IDOCK:   -6.63 KCAL/MOL
REMARK 924 INTRA-LIGAND FREE ENERGY PREDICTED BY IDOCK:    0.04 KCAL/MOL
REMARK 927      BINDING AFFINITY PREDICTED BY RF-SCORE:    0.00 PKD
ROOT
HETATM    1  C   UNL     1      -9.993  17.033  68.430  1.00  0.00    -0.289 C  
HETATM    2  S   UNL     1      -9.402  15.712  69.570  1.00  0.00    -0.204 SA 
HETATM    3  C   UNL     1      -7.691  15.666  68.885  1.00  0.00    -0.181 C  
HETATM    4  CA  UNL     1      -7.491  17.057  68.233  1.00  0.00    -0.207 C  
HETATM    5  C   UNL     1      -7.636  14.522  67.852  1.00  0.00    -0.153 C  
HETATM    6  C   UNL     1      -6.711  15.302  70.004  1.00  0.00    -0.104 C  
HETATM    7  N   UNL     1      -8.798  17.471  67.676  1.00  0.00    -0.226 N  
HETATM    8  C   UNL     1      -7.018  18.175  69.181  1.00  0.00    -0.209 C  
HETATM    9  C   UNL     1      -9.231  16.932  66.492  1.00  0.00    -0.269 C  
HETATM   10  OXT UNL     1      -6.035  18.111  69.902  1.00  0.00    -0.238 OA 
HETATM   11  O   UNL     1      -7.754  19.313  69.091  1.00  0.00    -0.328 OA 
HETATM   12  CA  UNL     1     -10.623  16.599  67.077  1.00  0.00    -0.247 C  
HETATM   13  O   UNL     1      -8.626  16.673  65.477  1.00  0.00    -0.235 OA 
ENDROOT
BRANCH  12  14
HETATM   14  N   UNL     1     -11.086  15.185  66.976  1.00  0.00    -0.334 N  
HETATM   15  C   UNL     1     -11.213  14.608  65.734  1.00  0.00    -0.336 C  
HETATM   16  H   UNL     1     -11.305  14.652  67.818  1.00  0.00     0.000 HD 
HETATM   17  C   UNL     1     -11.833  13.225  65.677  1.00  0.00    -0.419 C  
HETATM   18  O   UNL     1     -10.829  15.189  64.715  1.00  0.00    -0.403 OA 
HETATM   19  C   UNL     1     -12.731  13.020  64.464  1.00  0.00    -0.249 C  
HETATM   20  C   UNL     1     -10.786  12.126  65.784  1.00  0.00    -0.303 A  
HETATM   21  O   UNL     1     -12.469  13.771  63.371  1.00  0.00    -0.817 OA 
HETATM   22  C   UNL     1     -11.146  10.875  66.313  1.00  0.00    -0.038 A  
HETATM   23  O   UNL     1     -13.637  12.191  64.452  1.00  0.00    -0.513 OA 
HETATM   24  C   UNL     1     -10.211   9.841  66.389  1.00  0.00    -0.288 A  
HETATM   25  C   UNL     1      -8.908  10.040  65.941  1.00  0.00    -0.164 A  
HETATM   26  C   UNL     1      -8.537  11.272  65.412  1.00  0.00     0.066 A  
HETATM   27  C   UNL     1      -9.469  12.305  65.326  1.00  0.00     0.057 A  
ENDBRANCH  12  14
TORSDOF 1
ENDMDL
MODEL       37
REMARK 921   NORMALIZED FREE ENERGY PREDICTED BY IDOCK:   -5.74 KCAL/MOL
REMARK 922        TOTAL FREE ENERGY PREDICTED BY IDOCK:   -6.51 KCAL/MOL
REMARK 923 INTER-LIGAND FREE ENERGY PREDICTED BY IDOCK:   -6.05 KCAL/MOL
REMARK 924 INTRA-LIGAND FREE ENERGY PREDICTED BY IDOCK:   -0.46 KCAL/MOL
REMARK 927      BINDING AFFINITY PREDICTED BY RF-SCORE:    0.00 PKD
ROOT
HETATM    1  C   UNL     1      -8.613   6.820  68.428  1.00  0.00    -0.125 C  
HETATM    2  S   UNL     1      -9.248   7.523  70.008  1.00  0.00    -0.150 SA 
HETATM    3  C   UNL     1     -10.598   6.284  70.200  1.00  0.00    -0.248 C  
HETATM    4  CA  UNL     1     -10.128   5.059  69.376  1.00  0.00    -0.218 C  
HETATM    5  C   UNL     1     -11.888   6.911  69.634  1.00  0.00     0.019 C  
HETATM    6  C   UNL     1     -10.843   6.034  71.691  1.00  0.00    -0.314 C  
HETATM    7  N   UNL     1      -9.385   5.579  68.207  1.00  0.00    -0.109 N  
HETATM    8  C   UNL     1      -9.201   4.075  70.113  1.00  0.00    -0.142 C  
HETATM    9  C   UNL     1     -10.075   6.088  67.137  1.00  0.00    -0.173 C  
HETATM   10  OXT UNL     1      -9.448   3.552  71.187  1.00  0.00    -0.135 OA 
HETATM   11  O   UNL     1      -8.081   3.755  69.413  1.00  0.00    -0.054 OA 
HETATM   12  CA  UNL     1      -9.204   7.365  67.098  1.00  0.00    -0.136 C  
HETATM   13  O   UNL     1     -11.094   5.710  66.605  1.00  0.00    -0.202 OA 
ENDROOT
BRANCH  12  14
HETATM   14  N   UNL     1      -9.911   8.676  67.167  1.00  0.00    -0.207 N  
HETATM   15  C   UNL     1      -9.218   9.828  66.874  1.00  0.00    -0.147 C  
HETATM   16  H   UNL     1     -10.897   8.719  67.428  1.00  0.00     0.000 HD 
HETATM   17  C   UNL     1      -9.937  11.143  67.110  1.00  0.00    -0.215 C  
HETATM   18  O   UNL     1      -8.067   9.788  66.431  1.00  0.00    -0.114 OA 
HETATM   19  C   UNL     1      -9.023  12.239  67.642  1.00  0.00    -0.181 C  
HETATM   20  C   UNL     1     -10.697  11.606  65.875  1.00  0.00    -0.328 A  
HETATM   21  O   UNL     1      -7.708  12.144  67.339  1.00  0.00    -0.146 OA 
HETATM   22  C   UNL     1     -11.830  12.423  66.026  1.00  0.00    -0.459 A  
HETATM   23  O   UNL     1      -9.449  13.189  68.294  1.00  0.00    -0.217 OA 
HETATM   24  C   UNL     1     -12.523  12.888  64.907  1.00  0.00    -0.540 A  
HETATM   25  C   UNL     1     -12.097  12.545  63.626  1.00  0.00    -0.642 A  
HETATM   26  C   UNL     1     -10.974  11.740  63.460  1.00  0.00    -0.499 A  
HETATM   27  C   UNL     1     -10.274  11.280  64.576  1.00  0.00    -0.370 A  
ENDBRANCH  12  14
TORSDOF 1
ENDMDL
MODEL       38
REMARK 921   NORMALIZED FREE ENERGY PREDICTED BY IDOCK:   -5.72 KCAL/MOL
REMARK 922        TOTAL FREE ENERGY PREDICTED BY IDOCK:   -6.50 KCAL/MOL
REMARK 923 INTER-LIGAND FREE ENERGY PREDICTED BY IDOCK:   -6.06 KCAL/MOL
REMARK 924 INTRA-LIGAND FREE ENERGY PREDICTED BY IDOCK:   -0.44 KCAL/MOL
REMARK 927      BINDING AFFINITY PREDICTED BY RF-SCORE:    0.00 PKD
ROOT
HETATM    1  C   UNL     1     -11.395  11.548  66.489  1.00  0.00    -0.193 C  
HETATM    2  S   UNL     1     -11.703  12.795  67.809  1.00  0.00    -0.345 SA 
HETATM    3  C   UNL     1     -10.241  13.835  67.387  1.00  0.00    -0.252 C  
HETATM    4  CA  UNL     1      -9.938  13.506  65.903  1.00  0.00    -0.283 C  
HETATM    5  C   UNL     1      -9.090  13.419  68.326  1.00  0.00    -0.181 C  
HETATM    6  C   UNL     1     -10.560  15.300  67.697  1.00  0.00    -0.270 C  
HETATM    7  N   UNL     1     -10.262  12.077  65.699  1.00  0.00    -0.244 N  
HETATM    8  C   UNL     1     -10.738  14.314  64.865  1.00  0.00    -0.432 C  
HETATM    9  C   UNL     1      -9.388  11.115  66.134  1.00  0.00    -0.206 C  
HETATM   10  OXT UNL     1     -10.802  15.532  64.825  1.00  0.00    -0.430 OA 
HETATM   11  O   UNL     1     -11.322  13.545  63.909  1.00  0.00    -0.333 OA 
HETATM   12  CA  UNL     1     -10.511  10.319  66.840  1.00  0.00    -0.229 C  
HETATM   13  O   UNL     1      -8.178  11.077  66.105  1.00  0.00    -0.167 OA 
ENDROOT
BRANCH  12  14
HETATM   14  N   UNL     1     -10.328  10.017  68.288  1.00  0.00    -0.183 N  
HETATM   15  C   UNL     1     -10.515   8.729  68.734  1.00  0.00    -0.191 C  
HETATM   16  H   UNL     1     -10.068  10.757  68.941  1.00  0.00     0.000 HD 
HETATM   17  C   UNL     1     -10.470   8.506  70.234  1.00  0.00    -0.233 C  
HETATM   18  O   UNL     1     -10.699   7.798  67.944  1.00  0.00    -0.187 OA 
HETATM   19  C   UNL     1     -11.475   7.466  70.714  1.00  0.00    -0.288 C  
HETATM   20  C   UNL     1      -9.064   8.184  70.720  1.00  0.00    -0.159 A  
HETATM   21  O   UNL     1     -11.858   6.523  69.825  1.00  0.00    -0.345 OA 
HETATM   22  C   UNL     1      -8.699   8.501  72.040  1.00  0.00    -0.265 A  
HETATM   23  O   UNL     1     -11.905   7.455  71.865  1.00  0.00    -0.280 OA 
HETATM   24  C   UNL     1      -7.427   8.185  72.519  1.00  0.00    -0.149 A  
HETATM   25  C   UNL     1      -6.503   7.552  71.691  1.00  0.00    -0.039 A  
HETATM   26  C   UNL     1      -6.851   7.228  70.384  1.00  0.00    -0.053 A  
HETATM   27  C   UNL     1      -8.124   7.535  69.903  1.00  0.00    -0.129 A  
ENDBRANCH  12  14
TORSDOF 1
ENDMDL
MODEL       39
REMARK 921   NORMALIZED FREE ENERGY PREDICTED BY IDOCK:   -5.70 KCAL/MOL
REMARK 922        TOTAL FREE ENERGY PREDICTED BY IDOCK:   -6.47 KCAL/MOL
REMARK 923 INTER-LIGAND FREE ENERGY PREDICTED BY IDOCK:   -5.94 KCAL/MOL
REMARK 924 INTRA-LIGAND FREE ENERGY PREDICTED BY IDOCK:   -0.53 KCAL/MOL
REMARK 927      BINDING AFFINITY PREDICTED BY RF-SCORE:    0.00 PKD
ROOT
HETATM    1  C   UNL     1     -10.079  12.241  65.703  1.00  0.00    -0.252 C  
HETATM    2  S   UNL     1     -11.750  12.352  66.469  1.00  0.00    -0.342 SA 
HETATM    3  C   UNL     1     -11.171  13.229  67.984  1.00  0.00    -0.276 C  
HETATM    4  CA  UNL     1      -9.846  13.912  67.561  1.00  0.00    -0.236 C  
HETATM    5  C   UNL     1     -10.958  12.166  69.081  1.00  0.00    -0.215 C  
HETATM    6  C   UNL     1     -12.279  14.162  68.479  1.00  0.00    -0.204 C  
HETATM    7  N   UNL     1      -9.183  13.014  66.590  1.00  0.00    -0.241 N  
HETATM    8  C   UNL     1      -9.992  15.290  66.891  1.00  0.00    -0.239 C  
HETATM    9  C   UNL     1      -8.516  11.904  67.040  1.00  0.00    -0.177 C  
HETATM   10  OXT UNL     1     -10.602  16.237  67.363  1.00  0.00    -0.308 OA 
HETATM   11  O   UNL     1      -9.295  15.409  65.731  1.00  0.00    -0.325 OA 
HETATM   12  CA  UNL     1      -9.218  10.984  66.013  1.00  0.00    -0.193 C  
HETATM   13  O   UNL     1      -7.808  11.749  68.008  1.00  0.00    -0.118 OA 
ENDROOT
BRANCH  12  14
HETATM   14  N   UNL     1      -9.939   9.793  66.544  1.00  0.00    -0.223 N  
HETATM   15  C   UNL     1      -9.258   8.606  66.689  1.00  0.00    -0.181 C  
HETATM   16  H   UNL     1     -10.926   9.856  66.797  1.00  0.00     0.000 HD 
HETATM   17  C   UNL     1     -10.072   7.389  67.084  1.00  0.00    -0.314 C  
HETATM   18  O   UNL     1      -8.038   8.542  66.515  1.00  0.00    -0.101 OA 
HETATM   19  C   UNL     1      -9.603   6.108  66.406  1.00  0.00    -0.127 C  
HETATM   20  C   UNL     1     -10.148   7.220  68.595  1.00  0.00    -0.182 A  
HETATM   21  O   UNL     1      -8.307   6.054  66.022  1.00  0.00    -0.122 OA 
HETATM   22  C   UNL     1     -11.252   6.562  69.164  1.00  0.00    -0.367 A  
HETATM   23  O   UNL     1     -10.348   5.147  66.234  1.00  0.00    -0.236 OA 
HETATM   24  C   UNL     1     -11.326   6.365  70.543  1.00  0.00    -0.438 A  
HETATM   25  C   UNL     1     -10.305   6.821  71.373  1.00  0.00    -0.223 A  
HETATM   26  C   UNL     1      -9.204   7.470  70.825  1.00  0.00    -0.158 A  
HETATM   27  C   UNL     1      -9.121   7.662  69.446  1.00  0.00    -0.142 A  
ENDBRANCH  12  14
TORSDOF 1
ENDMDL
MODEL       40
REMARK 921   NORMALIZED FREE ENERGY PREDICTED BY IDOCK:   -5.67 KCAL/MOL
REMARK 922        TOTAL FREE ENERGY PREDICTED BY IDOCK:   -6.45 KCAL/MOL
REMARK 923 INTER-LIGAND FREE ENERGY PREDICTED BY IDOCK:   -5.98 KCAL/MOL
REMARK 924 INTRA-LIGAND FREE ENERGY PREDICTED BY IDOCK:   -0.46 KCAL/MOL
REMARK 927      BINDING AFFINITY PREDICTED BY RF-SCORE:    0.00 PKD
ROOT
HETATM    1  C   UNL     1      -9.779   9.044  66.534  1.00  0.00    -0.244 C  
HETATM    2  S   UNL     1      -8.701   9.841  65.271  1.00  0.00    -0.173 SA 
HETATM    3  C   UNL     1      -7.120   9.298  66.046  1.00  0.00    -0.090 C  
HETATM    4  CA  UNL     1      -7.500   8.051  66.884  1.00  0.00    -0.091 C  
HETATM    5  C   UNL     1      -6.612  10.460  66.924  1.00  0.00    -0.078 C  
HETATM    6  C   UNL     1      -6.073   9.077  64.951  1.00  0.00    -0.065 C  
HETATM    7  N   UNL     1      -8.864   8.278  67.409  1.00  0.00    -0.130 N  
HETATM    8  C   UNL     1      -7.515   6.715  66.119  1.00  0.00    -0.081 C  
HETATM    9  C   UNL     1      -9.047   9.108  68.485  1.00  0.00    -0.132 C  
HETATM   10  OXT UNL     1      -6.588   6.277  65.457  1.00  0.00    -0.044 OA 
HETATM   11  O   UNL     1      -8.648   5.990  66.312  1.00  0.00    -0.127 OA 
HETATM   12  CA  UNL     1     -10.185   9.882  67.779  1.00  0.00    -0.197 C  
HETATM   13  O   UNL     1      -8.393   9.247  69.493  1.00  0.00    -0.115 OA 
ENDROOT
BRANCH  12  14
HETATM   14  N   UNL     1     -10.038  11.361  67.667  1.00  0.00    -0.178 N  
HETATM   15  C   UNL     1     -11.117  12.114  67.264  1.00  0.00    -0.287 C  
HETATM   16  H   UNL     1      -9.148  11.810  67.886  1.00  0.00     0.000 HD 
HETATM   17  C   UNL     1     -10.873  13.590  67.017  1.00  0.00    -0.287 C  
HETATM   18  O   UNL     1     -12.234  11.608  67.122  1.00  0.00    -0.365 OA 
HETATM   19  C   UNL     1     -11.663  14.138  65.835  1.00  0.00    -0.365 C  
HETATM   20  C   UNL     1     -11.101  14.423  68.270  1.00  0.00    -0.275 A  
HETATM   21  O   UNL     1     -12.812  13.502  65.515  1.00  0.00    -0.549 OA 
HETATM   22  C   UNL     1     -10.414  15.639  68.427  1.00  0.00    -0.242 A  
HETATM   23  O   UNL     1     -11.300  15.131  65.208  1.00  0.00    -0.349 OA 
HETATM   24  C   UNL     1     -10.633  16.437  69.551  1.00  0.00    -0.320 A  
HETATM   25  C   UNL     1     -11.536  16.034  70.532  1.00  0.00    -0.409 A  
HETATM   26  C   UNL     1     -12.225  14.834  70.389  1.00  0.00    -0.395 A  
HETATM   27  C   UNL     1     -12.016  14.038  69.263  1.00  0.00    -0.396 A  
ENDBRANCH  12  14
TORSDOF 1
ENDMDL
MODEL       41
REMARK 921   NORMALIZED FREE ENERGY PREDICTED BY IDOCK:   -5.62 KCAL/MOL
REMARK 922        TOTAL FREE ENERGY PREDICTED BY IDOCK:   -6.39 KCAL/MOL
REMARK 923 INTER-LIGAND FREE ENERGY PREDICTED BY IDOCK:   -5.90 KCAL/MOL
REMARK 924 INTRA-LIGAND FREE ENERGY PREDICTED BY IDOCK:   -0.50 KCAL/MOL
REMARK 927      BINDING AFFINITY PREDICTED BY RF-SCORE:    0.00 PKD
ROOT
HETATM    1  C   UNL     1      -7.711   7.325  67.955  1.00  0.00    -0.117 C  
HETATM    2  S   UNL     1      -9.186   7.343  66.852  1.00  0.00    -0.159 SA 
HETATM    3  C   UNL     1      -9.314   9.180  66.789  1.00  0.00    -0.165 C  
HETATM    4  CA  UNL     1      -7.887   9.686  67.121  1.00  0.00    -0.091 C  
HETATM    5  C   UNL     1     -10.348   9.610  67.848  1.00  0.00    -0.271 C  
HETATM    6  C   UNL     1      -9.873   9.599  65.426  1.00  0.00    -0.322 C  
HETATM    7  N   UNL     1      -7.306   8.740  68.100  1.00  0.00    -0.086 N  
HETATM    8  C   UNL     1      -6.916   9.771  65.929  1.00  0.00    -0.101 C  
HETATM    9  C   UNL     1      -7.683   8.811  69.416  1.00  0.00    -0.093 C  
HETATM   10  OXT UNL     1      -7.138  10.367  64.887  1.00  0.00    -0.122 OA 
HETATM   11  O   UNL     1      -5.714   9.182  66.162  1.00  0.00    -0.051 OA 
HETATM   12  CA  UNL     1      -7.949   7.289  69.491  1.00  0.00    -0.127 C  
HETATM   13  O   UNL     1      -7.891   9.769  70.125  1.00  0.00    -0.159 OA 
ENDROOT
BRANCH  12  14
HETATM   14  N   UNL     1      -9.300   6.854  69.949  1.00  0.00    -0.151 N  
HETATM   15  C   UNL     1      -9.590   6.871  71.294  1.00  0.00    -0.165 C  
HETATM   16  H   UNL     1     -10.001   6.548  69.273  1.00  0.00     0.000 HD 
HETATM   17  C   UNL     1     -10.917   6.273  71.719  1.00  0.00    -0.305 C  
HETATM   18  O   UNL     1      -8.806   7.360  72.112  1.00  0.00    -0.122 OA 
HETATM   19  C   UNL     1     -10.838   5.518  73.040  1.00  0.00    -0.274 C  
HETATM   20  C   UNL     1     -12.029   7.313  71.741  1.00  0.00    -0.342 A  
HETATM   21  O   UNL     1      -9.870   5.892  73.906  1.00  0.00    -0.161 OA 
HETATM   22  C   UNL     1     -13.360   6.907  71.542  1.00  0.00    -0.303 A  
HETATM   23  O   UNL     1     -11.630   4.626  73.332  1.00  0.00    -0.317 OA 
HETATM   24  C   UNL     1     -14.399   7.837  71.592  1.00  0.00    -0.607 A  
HETATM   25  C   UNL     1     -14.127   9.181  71.839  1.00  0.00    -0.349 A  
HETATM   26  C   UNL     1     -12.815   9.597  72.041  1.00  0.00    -0.497 A  
HETATM   27  C   UNL     1     -11.774   8.670  72.000  1.00  0.00    -0.439 A  
ENDBRANCH  12  14
TORSDOF 1
ENDMDL
MODEL       42
REMARK 921   NORMALIZED FREE ENERGY PREDICTED BY IDOCK:   -5.61 KCAL/MOL
REMARK 922        TOTAL FREE ENERGY PREDICTED BY IDOCK:   -6.38 KCAL/MOL
REMARK 923 INTER-LIGAND FREE ENERGY PREDICTED BY IDOCK:   -5.86 KCAL/MOL
REMARK 924 INTRA-LIGAND FREE ENERGY PREDICTED BY IDOCK:   -0.52 KCAL/MOL
REMARK 927      BINDING AFFINITY PREDICTED BY RF-SCORE:    0.00 PKD
ROOT
HETATM    1  C   UNL     1      -9.981  13.835  69.400  1.00  0.00     0.473 C  
HETATM    2  S   UNL     1      -8.396  14.435  68.677  1.00  0.00    -0.123 SA 
HETATM    3  C   UNL     1      -9.195  15.572  67.466  1.00  0.00    -0.198 C  
HETATM    4  CA  UNL     1     -10.588  15.877  68.073  1.00  0.00    -0.287 C  
HETATM    5  C   UNL     1      -9.294  14.822  66.122  1.00  0.00    -0.292 C  
HETATM    6  C   UNL     1      -8.284  16.781  67.235  1.00  0.00    -0.198 C  
HETATM    7  N   UNL     1     -11.040  14.651  68.767  1.00  0.00    -0.248 N  
HETATM    8  C   UNL     1     -10.632  17.029  69.094  1.00  0.00    -0.303 C  
HETATM    9  C   UNL     1     -11.541  13.605  68.037  1.00  0.00    -0.333 C  
HETATM   10  OXT UNL     1     -10.212  18.158  68.894  1.00  0.00    -0.379 OA 
HETATM   11  O   UNL     1     -11.272  16.709  70.249  1.00  0.00    -0.262 OA 
HETATM   12  CA  UNL     1     -10.642  12.579  68.765  1.00  0.00    -0.175 C  
HETATM   13  O   UNL     1     -12.268  13.595  67.069  1.00  0.00    -0.389 OA 
ENDROOT
BRANCH  12  14
HETATM   14  N   UNL     1      -9.766  11.716  67.921  1.00  0.00    -0.174 N  
HETATM   15  C   UNL     1     -10.303  10.600  67.321  1.00  0.00    -0.220 C  
HETATM   16  H   UNL     1      -8.782  11.951  67.789  1.00  0.00     0.000 HD 
HETATM   17  C   UNL     1      -9.339   9.674  66.603  1.00  0.00    -0.200 C  
HETATM   18  O   UNL     1     -11.515  10.372  67.360  1.00  0.00    -0.354 OA 
HETATM   19  C   UNL     1      -9.695   8.201  66.760  1.00  0.00    -0.235 C  
HETATM   20  C   UNL     1      -9.172  10.051  65.138  1.00  0.00    -0.273 A  
HETATM   21  O   UNL     1     -10.993   7.903  66.991  1.00  0.00    -0.219 OA 
HETATM   22  C   UNL     1      -7.975   9.734  64.473  1.00  0.00    -0.144 A  
HETATM   23  O   UNL     1      -8.856   7.310  66.654  1.00  0.00    -0.127 OA 
HETATM   24  C   UNL     1      -7.812  10.039  63.121  1.00  0.00    -0.145 A  
HETATM   25  C   UNL     1      -8.837  10.664  62.415  1.00  0.00    -0.320 A  
HETATM   26  C   UNL     1     -10.029  10.981  63.058  1.00  0.00    -0.333 A  
HETATM   27  C   UNL     1     -10.199  10.671  64.407  1.00  0.00    -0.400 A  
ENDBRANCH  12  14
TORSDOF 1
ENDMDL
MODEL       43
REMARK 921   NORMALIZED FREE ENERGY PREDICTED BY IDOCK:   -5.61 KCAL/MOL
REMARK 922        TOTAL FREE ENERGY PREDICTED BY IDOCK:   -6.38 KCAL/MOL
REMARK 923 INTER-LIGAND FREE ENERGY PREDICTED BY IDOCK:   -6.15 KCAL/MOL
REMARK 924 INTRA-LIGAND FREE ENERGY PREDICTED BY IDOCK:   -0.23 KCAL/MOL
REMARK 927      BINDING AFFINITY PREDICTED BY RF-SCORE:    0.00 PKD
ROOT
HETATM    1  C   UNL     1      -9.414  10.214  66.460  1.00  0.00    -0.169 C  
HETATM    2  S   UNL     1     -10.032  10.174  64.725  1.00  0.00    -0.148 SA 
HETATM    3  C   UNL     1      -8.408   9.708  63.990  1.00  0.00    -0.171 C  
HETATM    4  CA  UNL     1      -7.631   9.033  65.148  1.00  0.00    -0.098 C  
HETATM    5  C   UNL     1      -7.728  11.005  63.507  1.00  0.00     0.519 C  
HETATM    6  C   UNL     1      -8.647   8.843  62.749  1.00  0.00    -0.167 C  
HETATM    7  N   UNL     1      -8.020   9.725  66.397  1.00  0.00    -0.108 N  
HETATM    8  C   UNL     1      -7.905   7.531  65.348  1.00  0.00    -0.117 C  
HETATM    9  C   UNL     1      -7.478  10.949  66.690  1.00  0.00    -0.139 C  
HETATM   10  OXT UNL     1      -7.810   6.681  64.477  1.00  0.00    -0.107 OA 
HETATM   11  O   UNL     1      -8.188   7.195  66.634  1.00  0.00    -0.107 OA 
HETATM   12  CA  UNL     1      -8.862  11.561  67.006  1.00  0.00    -0.173 C  
HETATM   13  O   UNL     1      -6.352  11.368  66.544  1.00  0.00    -0.138 OA 
ENDROOT
BRANCH  12  14
HETATM   14  N   UNL     1      -9.250  12.794  66.262  1.00  0.00    -0.416 N  
HETATM   15  C   UNL     1     -10.554  13.230  66.320  1.00  0.00    -0.289 C  
HETATM   16  H   UNL     1      -8.557  13.308  65.717  1.00  0.00     0.000 HD 
HETATM   17  C   UNL     1     -10.930  14.395  65.424  1.00  0.00    -0.343 C  
HETATM   18  O   UNL     1     -11.373  12.700  67.075  1.00  0.00    -0.287 OA 
HETATM   19  C   UNL     1     -12.332  14.273  64.840  1.00  0.00    -0.425 C  
HETATM   20  C   UNL     1     -10.734  15.735  66.119  1.00  0.00    -0.293 A  
HETATM   21  O   UNL     1     -13.229  13.542  65.540  1.00  0.00    -0.536 OA 
HETATM   22  C   UNL     1     -10.470  16.881  65.350  1.00  0.00    -0.172 A  
HETATM   23  O   UNL     1     -12.657  14.831  63.796  1.00  0.00    -0.806 OA 
HETATM   24  C   UNL     1     -10.321  18.126  65.962  1.00  0.00    -0.360 A  
HETATM   25  C   UNL     1     -10.431  18.245  67.346  1.00  0.00    -0.430 A  
HETATM   26  C   UNL     1     -10.696  17.120  68.120  1.00  0.00    -0.366 A  
HETATM   27  C   UNL     1     -10.854  15.875  67.511  1.00  0.00    -0.305 A  
ENDBRANCH  12  14
TORSDOF 1
ENDMDL
MODEL       44
REMARK 921   NORMALIZED FREE ENERGY PREDICTED BY IDOCK:   -5.44 KCAL/MOL
REMARK 922        TOTAL FREE ENERGY PREDICTED BY IDOCK:   -6.20 KCAL/MOL
REMARK 923 INTER-LIGAND FREE ENERGY PREDICTED BY IDOCK:   -5.80 KCAL/MOL
REMARK 924 INTRA-LIGAND FREE ENERGY PREDICTED BY IDOCK:   -0.40 KCAL/MOL
REMARK 927      BINDING AFFINITY PREDICTED BY RF-SCORE:    0.00 PKD
ROOT
HETATM    1  C   UNL     1      -9.656   6.413  69.796  1.00  0.00    -0.151 C  
HETATM    2  S   UNL     1      -8.482   7.141  71.016  1.00  0.00    -0.129 SA 
HETATM    3  C   UNL     1      -9.512   6.732  72.488  1.00  0.00    -0.139 C  
HETATM    4  CA  UNL     1     -10.401   5.548  72.031  1.00  0.00    -0.213 C  
HETATM    5  C   UNL     1     -10.341   7.985  72.837  1.00  0.00    -0.397 C  
HETATM    6  C   UNL     1      -8.595   6.459  73.684  1.00  0.00    -0.129 C  
HETATM    7  N   UNL     1     -10.713   5.764  70.601  1.00  0.00    -0.278 N  
HETATM    8  C   UNL     1      -9.767   4.151  72.159  1.00  0.00    -0.162 C  
HETATM    9  C   UNL     1     -11.673   6.676  70.247  1.00  0.00    -0.371 C  
HETATM   10  OXT UNL     1      -9.280   3.695  73.182  1.00  0.00    -0.101 OA 
HETATM   11  O   UNL     1      -9.869   3.400  71.031  1.00  0.00    -0.169 OA 
HETATM   12  CA  UNL     1     -10.751   7.339  69.197  1.00  0.00    -0.185 C  
HETATM   13  O   UNL     1     -12.744   6.928  70.750  1.00  0.00    -0.286 OA 
ENDROOT
BRANCH  12  14
HETATM   14  N   UNL     1     -10.526   8.808  69.316  1.00  0.00    -0.221 N  
HETATM   15  C   UNL     1      -9.686   9.432  68.423  1.00  0.00    -0.149 C  
HETATM   16  H   UNL     1     -10.988   9.344  70.052  1.00  0.00     0.000 HD 
HETATM   17  C   UNL     1      -9.369  10.893  68.682  1.00  0.00    -0.188 C  
HETATM   18  O   UNL     1      -9.223   8.830  67.450  1.00  0.00    -0.134 OA 
HETATM   19  C   UNL     1      -7.930  11.262  68.343  1.00  0.00    -0.140 C  
HETATM   20  C   UNL     1     -10.357  11.822  67.991  1.00  0.00    -0.212 A  
HETATM   21  O   UNL     1      -7.306  10.512  67.408  1.00  0.00    -0.090 OA 
HETATM   22  C   UNL     1     -10.600  13.097  68.528  1.00  0.00    -0.274 A  
HETATM   23  O   UNL     1      -7.358  12.216  68.866  1.00  0.00    -0.107 OA 
HETATM   24  C   UNL     1     -11.476  13.979  67.893  1.00  0.00    -0.347 A  
HETATM   25  C   UNL     1     -12.120  13.603  66.717  1.00  0.00    -0.445 A  
HETATM   26  C   UNL     1     -11.886  12.345  66.171  1.00  0.00    -0.442 A  
HETATM   27  C   UNL     1     -11.006  11.463  66.797  1.00  0.00    -0.347 A  
ENDBRANCH  12  14
TORSDOF 1
ENDMDL
MODEL       45
REMARK 921   NORMALIZED FREE ENERGY PREDICTED BY IDOCK:   -5.39 KCAL/MOL
REMARK 922        TOTAL FREE ENERGY PREDICTED BY IDOCK:   -6.15 KCAL/MOL
REMARK 923 INTER-LIGAND FREE ENERGY PREDICTED BY IDOCK:   -5.75 KCAL/MOL
REMARK 924 INTRA-LIGAND FREE ENERGY PREDICTED BY IDOCK:   -0.40 KCAL/MOL
REMARK 927      BINDING AFFINITY PREDICTED BY RF-SCORE:    0.00 PKD
ROOT
HETATM    1  C   UNL     1     -11.154  11.108  67.398  1.00  0.00    -0.307 C  
HETATM    2  S   UNL     1      -9.985  12.138  68.381  1.00  0.00    -0.181 SA 
HETATM    3  C   UNL     1      -8.926  12.591  66.942  1.00  0.00    -0.212 C  
HETATM    4  CA  UNL     1      -9.848  12.424  65.707  1.00  0.00    -0.240 C  
HETATM    5  C   UNL     1      -7.734  11.613  66.918  1.00  0.00    -0.147 C  
HETATM    6  C   UNL     1      -8.349  13.991  67.163  1.00  0.00    -0.174 C  
HETATM    7  N   UNL     1     -10.750  11.285  65.987  1.00  0.00    -0.263 N  
HETATM    8  C   UNL     1     -10.730  13.639  65.365  1.00  0.00    -0.308 C  
HETATM    9  C   UNL     1     -10.281  10.002  65.862  1.00  0.00    -0.205 C  
HETATM   10  OXT UNL     1     -10.319  14.776  65.198  1.00  0.00    -0.384 OA 
HETATM   11  O   UNL     1     -12.037  13.325  65.172  1.00  0.00    -0.366 OA 
HETATM   12  CA  UNL     1     -10.840   9.593  67.245  1.00  0.00    -0.142 C  
HETATM   13  O   UNL     1      -9.545   9.509  65.038  1.00  0.00    -0.268 OA 
ENDROOT
BRANCH  12  14
HETATM   14  N   UNL     1      -9.880   9.007  68.224  1.00  0.00    -0.160 N  
HETATM   15  C   UNL     1     -10.329   8.657  69.476  1.00  0.00    -0.214 C  
HETATM   16  H   UNL     1      -8.902   8.866  67.968  1.00  0.00     0.000 HD 
HETATM   17  C   UNL     1      -9.284   8.212  70.483  1.00  0.00    -0.157 C  
HETATM   18  O   UNL     1     -11.529   8.696  69.761  1.00  0.00     0.020 OA 
HETATM   19  C   UNL     1      -9.577   8.687  71.900  1.00  0.00    -0.307 C  
HETATM   20  C   UNL     1      -9.056   6.708  70.439  1.00  0.00    -0.152 A  
HETATM   21  O   UNL     1     -10.870   8.926  72.214  1.00  0.00    -0.332 OA 
HETATM   22  C   UNL     1      -7.811   6.185  70.828  1.00  0.00    -0.103 A  
HETATM   23  O   UNL     1      -8.692   8.825  72.741  1.00  0.00    -0.398 OA 
HETATM   24  C   UNL     1      -7.589   4.807  70.829  1.00  0.00    -0.065 A  
HETATM   25  C   UNL     1      -8.603   3.934  70.442  1.00  0.00    -0.111 A  
HETATM   26  C   UNL     1      -9.842   4.436  70.057  1.00  0.00    -0.294 A  
HETATM   27  C   UNL     1     -10.070   5.811  70.063  1.00  0.00    -0.279 A  
ENDBRANCH  12  14
TORSDOF 1
ENDMDL
MODEL       46
REMARK 921   NORMALIZED FREE ENERGY PREDICTED BY IDOCK:   -5.39 KCAL/MOL
REMARK 922        TOTAL FREE ENERGY PREDICTED BY IDOCK:   -6.14 KCAL/MOL
REMARK 923 INTER-LIGAND FREE ENERGY PREDICTED BY IDOCK:   -5.63 KCAL/MOL
REMARK 924 INTRA-LIGAND FREE ENERGY PREDICTED BY IDOCK:   -0.52 KCAL/MOL
REMARK 927      BINDING AFFINITY PREDICTED BY RF-SCORE:    0.00 PKD
ROOT
HETATM    1  C   UNL     1      -9.152   5.745  70.471  1.00  0.00    -0.147 C  
HETATM    2  S   UNL     1      -8.300   6.813  71.707  1.00  0.00    -0.109 SA 
HETATM    3  C   UNL     1      -9.806   7.103  72.730  1.00  0.00    -0.179 C  
HETATM    4  CA  UNL     1     -10.733   5.902  72.414  1.00  0.00    -0.232 C  
HETATM    5  C   UNL     1     -10.417   8.447  72.285  1.00  0.00    -0.407 C  
HETATM    6  C   UNL     1      -9.395   7.265  74.196  1.00  0.00    -0.262 C  
HETATM    7  N   UNL     1     -10.522   5.550  70.993  1.00  0.00    -0.241 N  
HETATM    8  C   UNL     1     -10.484   4.631  73.247  1.00  0.00    -0.200 C  
HETATM    9  C   UNL     1     -11.105   6.311  70.012  1.00  0.00    -0.388 C  
HETATM   10  OXT UNL     1     -10.454   4.588  74.467  1.00  0.00    -0.251 OA 
HETATM   11  O   UNL     1     -10.379   3.501  72.499  1.00  0.00    -0.168 OA 
HETATM   12  CA  UNL     1      -9.779   6.430  69.225  1.00  0.00    -0.136 C  
HETATM   13  O   UNL     1     -12.201   6.820  69.957  1.00  0.00    -0.172 OA 
ENDROOT
BRANCH  12  14
HETATM   14  N   UNL     1      -9.297   7.804  68.903  1.00  0.00    -0.147 N  
HETATM   15  C   UNL     1      -9.576   8.340  67.666  1.00  0.00    -0.152 C  
HETATM   16  H   UNL     1      -8.767   8.340  69.591  1.00  0.00     0.000 HD 
HETATM   17  C   UNL     1      -8.933   9.672  67.333  1.00  0.00    -0.141 C  
HETATM   18  O   UNL     1     -10.324   7.763  66.872  1.00  0.00    -0.295 OA 
HETATM   19  C   UNL     1      -8.503   9.782  65.875  1.00  0.00    -0.128 C  
HETATM   20  C   UNL     1      -9.811  10.847  67.742  1.00  0.00    -0.194 A  
HETATM   21  O   UNL     1      -9.173   9.025  64.978  1.00  0.00    -0.178 OA 
HETATM   22  C   UNL     1      -9.215  12.081  68.052  1.00  0.00    -0.192 A  
HETATM   23  O   UNL     1      -7.610  10.542  65.511  1.00  0.00    -0.152 OA 
HETATM   24  C   UNL     1     -10.001  13.181  68.396  1.00  0.00    -0.223 A  
HETATM   25  C   UNL     1     -11.389  13.066  68.437  1.00  0.00    -0.326 A  
HETATM   26  C   UNL     1     -11.994  11.852  68.128  1.00  0.00    -0.222 A  
HETATM   27  C   UNL     1     -11.212  10.752  67.776  1.00  0.00    -0.385 A  
ENDBRANCH  12  14
TORSDOF 1
ENDMDL
MODEL       47
REMARK 921   NORMALIZED FREE ENERGY PREDICTED BY IDOCK:   -5.38 KCAL/MOL
REMARK 922        TOTAL FREE ENERGY PREDICTED BY IDOCK:   -6.14 KCAL/MOL
REMARK 923 INTER-LIGAND FREE ENERGY PREDICTED BY IDOCK:   -5.71 KCAL/MOL
REMARK 924 INTRA-LIGAND FREE ENERGY PREDICTED BY IDOCK:   -0.43 KCAL/MOL
REMARK 927      BINDING AFFINITY PREDICTED BY RF-SCORE:    0.00 PKD
ROOT
HETATM    1  C   UNL     1     -10.402   9.186  66.882  1.00  0.00    -0.251 C  
HETATM    2  S   UNL     1     -11.266  10.631  67.629  1.00  0.00    -0.204 SA 
HETATM    3  C   UNL     1      -9.973  11.853  67.150  1.00  0.00    -0.194 C  
HETATM    4  CA  UNL     1      -9.248  11.207  65.942  1.00  0.00    -0.206 C  
HETATM    5  C   UNL     1      -9.038  12.038  68.363  1.00  0.00    -0.158 C  
HETATM    6  C   UNL     1     -10.635  13.209  66.888  1.00  0.00    -0.265 C  
HETATM    7  N   UNL     1      -9.229   9.746  66.176  1.00  0.00    -0.166 N  
HETATM    8  C   UNL     1      -9.900  11.447  64.568  1.00  0.00    -0.260 C  
HETATM    9  C   UNL     1      -8.325   9.212  67.057  1.00  0.00    -0.120 C  
HETATM   10  OXT UNL     1     -10.185  12.543  64.111  1.00  0.00    -0.359 OA 
HETATM   11  O   UNL     1     -10.065  10.313  63.838  1.00  0.00    -0.228 OA 
HETATM   12  CA  UNL     1      -9.415   8.384  67.777  1.00  0.00    -0.149 C  
HETATM   13  O   UNL     1      -7.164   9.487  67.257  1.00  0.00    -0.085 OA 
ENDROOT
BRANCH  12  14
HETATM   14  N   UNL     1      -9.549   8.566  69.251  1.00  0.00    -0.168 N  
HETATM   15  C   UNL     1     -10.472   7.812  69.938  1.00  0.00    -0.232 C  
HETATM   16  H   UNL     1      -8.964   9.242  69.744  1.00  0.00     0.000 HD 
HETATM   17  C   UNL     1     -10.678   8.145  71.404  1.00  0.00    -0.280 C  
HETATM   18  O   UNL     1     -11.094   6.901  69.385  1.00  0.00    -0.244 OA 
HETATM   19  C   UNL     1     -12.130   8.018  71.848  1.00  0.00    -0.317 C  
HETATM   20  C   UNL     1      -9.751   7.343  72.306  1.00  0.00    -0.191 A  
HETATM   21  O   UNL     1     -12.914   7.163  71.154  1.00  0.00    -0.366 OA 
HETATM   22  C   UNL     1      -9.372   7.869  73.553  1.00  0.00    -0.333 A  
HETATM   23  O   UNL     1     -12.576   8.636  72.812  1.00  0.00    -0.319 OA 
HETATM   24  C   UNL     1      -8.550   7.138  74.411  1.00  0.00    -0.234 A  
HETATM   25  C   UNL     1      -8.094   5.875  74.039  1.00  0.00    -0.104 A  
HETATM   26  C   UNL     1      -8.463   5.339  72.809  1.00  0.00    -0.116 A  
HETATM   27  C   UNL     1      -9.291   6.063  71.952  1.00  0.00    -0.160 A  
ENDBRANCH  12  14
TORSDOF 1
ENDMDL
MODEL       48
REMARK 921   NORMALIZED FREE ENERGY PREDICTED BY IDOCK:   -5.34 KCAL/MOL
REMARK 922        TOTAL FREE ENERGY PREDICTED BY IDOCK:   -6.10 KCAL/MOL
REMARK 923 INTER-LIGAND FREE ENERGY PREDICTED BY IDOCK:   -5.72 KCAL/MOL
REMARK 924 INTRA-LIGAND FREE ENERGY PREDICTED BY IDOCK:   -0.38 KCAL/MOL
REMARK 927      BINDING AFFINITY PREDICTED BY RF-SCORE:    0.00 PKD
ROOT
HETATM    1  C   UNL     1      -8.049   9.711  67.841  1.00  0.00    -0.106 C  
HETATM    2  S   UNL     1      -7.889  10.033  69.648  1.00  0.00    -0.177 SA 
HETATM    3  C   UNL     1      -9.524   9.302  70.083  1.00  0.00    -0.226 C  
HETATM    4  CA  UNL     1      -9.841   8.326  68.923  1.00  0.00    -0.180 C  
HETATM    5  C   UNL     1     -10.541  10.459  70.169  1.00  0.00    -0.245 C  
HETATM    6  C   UNL     1      -9.441   8.679  71.480  1.00  0.00    -0.320 C  
HETATM    7  N   UNL     1      -9.292   8.925  67.686  1.00  0.00    -0.136 N  
HETATM    8  C   UNL     1      -9.241   6.914  69.057  1.00  0.00    -0.137 C  
HETATM    9  C   UNL     1      -9.970   9.945  67.069  1.00  0.00    -0.200 C  
HETATM   10  OXT UNL     1      -9.384   6.182  70.024  1.00  0.00    -0.152 OA 
HETATM   11  O   UNL     1      -8.585   6.493  67.944  1.00  0.00    -0.118 OA 
HETATM   12  CA  UNL     1      -8.696  10.814  66.959  1.00  0.00    -0.136 C  
HETATM   13  O   UNL     1     -11.156  10.109  66.891  1.00  0.00    -0.116 OA 
ENDROOT
BRANCH  12  14
HETATM   14  N   UNL     1      -8.753  12.187  67.538  1.00  0.00    -0.165 N  
HETATM   15  C   UNL     1      -9.491  13.155  66.897  1.00  0.00    -0.244 C  
HETATM   16  H   UNL     1      -8.252  12.406  68.399  1.00  0.00     0.000 HD 
HETATM   17  C   UNL     1      -9.391  14.569  67.438  1.00  0.00    -0.197 C  
HETATM   18  O   UNL     1     -10.208  12.880  65.931  1.00  0.00    -0.280 OA 
HETATM   19  C   UNL     1      -9.407  15.631  66.347  1.00  0.00    -0.300 C  
HETATM   20  C   UNL     1     -10.446  14.848  68.499  1.00  0.00    -0.242 A  
HETATM   21  O   UNL     1     -10.025  15.313  65.187  1.00  0.00    -0.318 OA 
HETATM   22  C   UNL     1     -10.192  15.812  69.490  1.00  0.00    -0.271 A  
HETATM   23  O   UNL     1      -8.911  16.743  66.508  1.00  0.00    -0.236 OA 
HETATM   24  C   UNL     1     -11.158  16.110  70.453  1.00  0.00    -0.362 A  
HETATM   25  C   UNL     1     -12.386  15.452  70.442  1.00  0.00    -0.443 A  
HETATM   26  C   UNL     1     -12.652  14.498  69.465  1.00  0.00    -0.037 A  
HETATM   27  C   UNL     1     -11.694  14.203  68.497  1.00  0.00    -0.380 A  
ENDBRANCH  12  14
TORSDOF 1
ENDMDL
MODEL       49
REMARK 921   NORMALIZED FREE ENERGY PREDICTED BY IDOCK:   -5.29 KCAL/MOL
REMARK 922        TOTAL FREE ENERGY PREDICTED BY IDOCK:   -6.04 KCAL/MOL
REMARK 923 INTER-LIGAND FREE ENERGY PREDICTED BY IDOCK:   -5.63 KCAL/MOL
REMARK 924 INTRA-LIGAND FREE ENERGY PREDICTED BY IDOCK:   -0.41 KCAL/MOL
REMARK 927      BINDING AFFINITY PREDICTED BY RF-SCORE:    0.00 PKD
ROOT
HETATM    1  C   UNL     1     -10.662  13.264  68.697  1.00  0.00    -0.259 C  
HETATM    2  S   UNL     1      -8.976  13.703  68.097  1.00  0.00    -0.192 SA 
HETATM    3  C   UNL     1      -9.572  14.660  66.639  1.00  0.00    -0.278 C  
HETATM    4  CA  UNL     1     -11.012  15.092  67.013  1.00  0.00    -0.322 C  
HETATM    5  C   UNL     1      -9.542  13.715  65.421  1.00  0.00     0.073 C  
HETATM    6  C   UNL     1      -8.586  15.795  66.346  1.00  0.00    -0.346 C  
HETATM    7  N   UNL     1     -11.599  14.000  67.821  1.00  0.00    -0.325 N  
HETATM    8  C   UNL     1     -11.126  16.388  67.837  1.00  0.00    -0.249 C  
HETATM    9  C   UNL     1     -12.056  12.867  67.199  1.00  0.00    -0.219 C  
HETATM   10  OXT UNL     1     -10.634  17.461  67.524  1.00  0.00    -0.356 OA 
HETATM   11  O   UNL     1     -11.914  16.268  68.936  1.00  0.00    -0.224 OA 
HETATM   12  CA  UNL     1     -11.297  11.943  68.180  1.00  0.00    -0.288 C  
HETATM   13  O   UNL     1     -12.660  12.728  66.160  1.00  0.00    -0.428 OA 
ENDROOT
BRANCH  12  14
HETATM   14  N   UNL     1     -10.367  10.937  67.591  1.00  0.00    -0.189 N  
HETATM   15  C   UNL     1      -9.673  10.094  68.428  1.00  0.00    -0.147 C  
HETATM   16  H   UNL     1     -10.246  10.875  66.579  1.00  0.00     0.000 HD 
HETATM   17  C   UNL     1      -8.627   9.199  67.791  1.00  0.00    -0.121 C  
HETATM   18  O   UNL     1      -9.902  10.064  69.640  1.00  0.00    -0.214 OA 
HETATM   19  C   UNL     1      -7.388   9.015  68.658  1.00  0.00    -0.077 C  
HETATM   20  C   UNL     1      -9.208   7.859  67.363  1.00  0.00    -0.160 A  
HETATM   21  O   UNL     1      -7.545   9.155  69.993  1.00  0.00    -0.062 OA 
HETATM   22  C   UNL     1      -8.617   7.157  66.298  1.00  0.00    -0.143 A  
HETATM   23  O   UNL     1      -6.294   8.723  68.183  1.00  0.00    -0.054 OA 
HETATM   24  C   UNL     1      -9.111   5.911  65.910  1.00  0.00    -0.135 A  
HETATM   25  C   UNL     1     -10.199   5.349  66.575  1.00  0.00    -0.287 A  
HETATM   26  C   UNL     1     -10.792   6.031  67.633  1.00  0.00    -0.386 A  
HETATM   27  C   UNL     1     -10.297   7.273  68.029  1.00  0.00    -0.243 A  
ENDBRANCH  12  14
TORSDOF 1
ENDMDL
MODEL       50
REMARK 921   NORMALIZED FREE ENERGY PREDICTED BY IDOCK:   -5.26 KCAL/MOL
REMARK 922        TOTAL FREE ENERGY PREDICTED BY IDOCK:   -6.01 KCAL/MOL
REMARK 923 INTER-LIGAND FREE ENERGY PREDICTED BY IDOCK:   -5.48 KCAL/MOL
REMARK 924 INTRA-LIGAND FREE ENERGY PREDICTED BY IDOCK:   -0.53 KCAL/MOL
REMARK 927      BINDING AFFINITY PREDICTED BY RF-SCORE:    0.00 PKD
ROOT
HETATM    1  C   UNL     1     -11.409   8.025  70.545  1.00  0.00    -0.225 C  
HETATM    2  S   UNL     1     -11.239   6.418  69.660  1.00  0.00    -0.413 SA 
HETATM    3  C   UNL     1      -9.568   6.039  70.341  1.00  0.00    -0.164 C  
HETATM    4  CA  UNL     1      -9.483   6.858  71.654  1.00  0.00    -0.157 C  
HETATM    5  C   UNL     1      -8.528   6.497  69.297  1.00  0.00    -0.127 C  
HETATM    6  C   UNL     1      -9.415   4.522  70.485  1.00  0.00    -0.246 C  
HETATM    7  N   UNL     1     -10.229   8.116  71.433  1.00  0.00    -0.192 N  
HETATM    8  C   UNL     1     -10.079   6.180  72.901  1.00  0.00    -0.182 C  
HETATM    9  C   UNL     1      -9.650   9.130  70.714  1.00  0.00    -0.275 C  
HETATM   10  OXT UNL     1      -9.782   5.066  73.301  1.00  0.00    -0.142 OA 
HETATM   11  O   UNL     1     -10.931   6.976  73.599  1.00  0.00    -0.270 OA 
HETATM   12  CA  UNL     1     -10.905   9.309  69.828  1.00  0.00    -0.224 C  
HETATM   13  O   UNL     1      -8.511   9.540  70.706  1.00  0.00    -0.232 OA 
ENDROOT
BRANCH  12  14
HETATM   14  N   UNL     1     -10.717   9.220  68.352  1.00  0.00    -0.389 N  
HETATM   15  C   UNL     1     -10.277  10.328  67.664  1.00  0.00    -0.205 C  
HETATM   16  H   UNL     1     -10.913   8.350  67.856  1.00  0.00     0.000 HD 
HETATM   17  C   UNL     1     -10.251  10.234  66.151  1.00  0.00    -0.285 C  
HETATM   18  O   UNL     1      -9.910  11.346  68.258  1.00  0.00    -0.186 OA 
HETATM   19  C   UNL     1     -10.644  11.535  65.463  1.00  0.00    -0.281 C  
HETATM   20  C   UNL     1      -8.917   9.715  65.634  1.00  0.00    -0.208 A  
HETATM   21  O   UNL     1     -10.434  12.682  66.149  1.00  0.00    -0.250 OA 
HETATM   22  C   UNL     1      -8.867   9.034  64.406  1.00  0.00    -0.107 A  
HETATM   23  O   UNL     1     -11.105  11.562  64.325  1.00  0.00    -0.342 OA 
HETATM   24  C   UNL     1      -7.650   8.580  63.896  1.00  0.00    -0.129 A  
HETATM   25  C   UNL     1      -6.469   8.796  64.602  1.00  0.00    -0.066 A  
HETATM   26  C   UNL     1      -6.502   9.472  65.817  1.00  0.00    -0.074 A  
HETATM   27  C   UNL     1      -7.714   9.935  66.327  1.00  0.00    -0.105 A  
ENDBRANCH  12  14
TORSDOF 1
ENDMDL
MODEL       51
REMARK 921   NORMALIZED FREE ENERGY PREDICTED BY IDOCK:   -5.24 KCAL/MOL
REMARK 922        TOTAL FREE ENERGY PREDICTED BY IDOCK:   -5.98 KCAL/MOL
REMARK 923 INTER-LIGAND FREE ENERGY PREDICTED BY IDOCK:   -5.54 KCAL/MOL
REMARK 924 INTRA-LIGAND FREE ENERGY PREDICTED BY IDOCK:   -0.44 KCAL/MOL
REMARK 927      BINDING AFFINITY PREDICTED BY RF-SCORE:    0.00 PKD
ROOT
HETATM    1  C   UNL     1      -8.668   6.820  70.017  1.00  0.00    -0.141 C  
HETATM    2  S   UNL     1      -9.020   8.092  71.302  1.00  0.00    -0.147 SA 
HETATM    3  C   UNL     1     -10.810   7.677  71.448  1.00  0.00    -0.225 C  
HETATM    4  CA  UNL     1     -10.917   6.214  70.951  1.00  0.00    -0.297 C  
HETATM    5  C   UNL     1     -11.588   8.659  70.548  1.00  0.00    -0.158 C  
HETATM    6  C   UNL     1     -11.270   7.933  72.886  1.00  0.00    -0.429 C  
HETATM    7  N   UNL     1      -9.919   6.045  69.872  1.00  0.00    -0.169 N  
HETATM    8  C   UNL     1     -10.640   5.129  72.009  1.00  0.00    -0.200 C  
HETATM    9  C   UNL     1     -10.187   6.534  68.619  1.00  0.00    -0.172 C  
HETATM   10  OXT UNL     1     -11.199   5.050  73.091  1.00  0.00    -0.297 OA 
HETATM   11  O   UNL     1      -9.756   4.182  71.600  1.00  0.00    -0.157 OA 
HETATM   12  CA  UNL     1      -8.811   7.234  68.525  1.00  0.00    -0.129 C  
HETATM   13  O   UNL     1     -11.213   6.538  67.977  1.00  0.00    -0.281 OA 
ENDROOT
BRANCH  12  14
HETATM   14  N   UNL     1      -8.806   8.695  68.232  1.00  0.00    -0.141 N  
HETATM   15  C   UNL     1      -8.026   9.170  67.202  1.00  0.00    -0.106 C  
HETATM   16  H   UNL     1      -9.374   9.336  68.787  1.00  0.00     0.000 HD 
HETATM   17  C   UNL     1      -7.936  10.676  67.045  1.00  0.00    -0.121 C  
HETATM   18  O   UNL     1      -7.437   8.401  66.438  1.00  0.00    -0.081 OA 
HETATM   19  C   UNL     1      -6.552  11.152  66.622  1.00  0.00    -0.137 C  
HETATM   20  C   UNL     1      -9.015  11.218  66.119  1.00  0.00    -0.210 A  
HETATM   21  O   UNL     1      -5.783  10.277  65.935  1.00  0.00    -0.066 OA 
HETATM   22  C   UNL     1      -9.465  12.540  66.280  1.00  0.00    -0.210 A  
HETATM   23  O   UNL     1      -6.149  12.288  66.861  1.00  0.00    -0.221 OA 
HETATM   24  C   UNL     1     -10.430  13.070  65.422  1.00  0.00    -0.308 A  
HETATM   25  C   UNL     1     -10.958  12.291  64.395  1.00  0.00    -0.374 A  
HETATM   26  C   UNL     1     -10.520  10.983  64.221  1.00  0.00    -0.427 A  
HETATM   27  C   UNL     1      -9.551  10.452  65.071  1.00  0.00    -0.339 A  
ENDBRANCH  12  14
TORSDOF 1
ENDMDL
MODEL       52
REMARK 921   NORMALIZED FREE ENERGY PREDICTED BY IDOCK:   -5.22 KCAL/MOL
REMARK 922        TOTAL FREE ENERGY PREDICTED BY IDOCK:   -5.97 KCAL/MOL
REMARK 923 INTER-LIGAND FREE ENERGY PREDICTED BY IDOCK:   -5.51 KCAL/MOL
REMARK 924 INTRA-LIGAND FREE ENERGY PREDICTED BY IDOCK:   -0.46 KCAL/MOL
REMARK 927      BINDING AFFINITY PREDICTED BY RF-SCORE:    0.00 PKD
ROOT
HETATM    1  C   UNL     1     -11.037   6.560  70.589  1.00  0.00    -0.309 C  
HETATM    2  S   UNL     1      -9.223   6.397  70.864  1.00  0.00    -0.157 SA 
HETATM    3  C   UNL     1      -9.284   6.915  72.631  1.00  0.00    -0.135 C  
HETATM    4  CA  UNL     1     -10.736   6.614  73.080  1.00  0.00    -0.270 C  
HETATM    5  C   UNL     1      -8.956   8.421  72.685  1.00  0.00    -0.304 C  
HETATM    6  C   UNL     1      -8.179   6.192  73.406  1.00  0.00    -0.112 C  
HETATM    7  N   UNL     1     -11.614   6.867  71.916  1.00  0.00    -0.273 N  
HETATM    8  C   UNL     1     -11.002   5.173  73.554  1.00  0.00    -0.310 C  
HETATM    9  C   UNL     1     -11.940   8.155  71.580  1.00  0.00    -0.300 C  
HETATM   10  OXT UNL     1     -10.365   4.593  74.419  1.00  0.00    -0.228 OA 
HETATM   11  O   UNL     1     -12.091   4.602  72.977  1.00  0.00    -0.071 OA 
HETATM   12  CA  UNL     1     -11.579   7.931  70.093  1.00  0.00     0.066 C  
HETATM   13  O   UNL     1     -12.213   9.106  72.277  1.00  0.00    -0.344 OA 
ENDROOT
BRANCH  12  14
HETATM   14  N   UNL     1     -10.587   8.862  69.483  1.00  0.00    -0.232 N  
HETATM   15  C   UNL     1     -10.350   8.795  68.129  1.00  0.00    -0.216 C  
HETATM   16  H   UNL     1     -10.090   9.540  70.062  1.00  0.00     0.000 HD 
HETATM   17  C   UNL     1      -9.223   9.653  67.585  1.00  0.00    -0.144 C  
HETATM   18  O   UNL     1     -11.032   8.077  67.394  1.00  0.00    -0.151 OA 
HETATM   19  C   UNL     1      -8.438   8.974  66.470  1.00  0.00    -0.119 C  
HETATM   20  C   UNL     1      -9.711  11.031  67.160  1.00  0.00    -0.198 A  
HETATM   21  O   UNL     1      -9.087   8.036  65.744  1.00  0.00    -0.147 OA 
HETATM   22  C   UNL     1      -8.819  12.118  67.181  1.00  0.00    -0.191 A  
HETATM   23  O   UNL     1      -7.276   9.276  66.210  1.00  0.00    -0.086 OA 
HETATM   24  C   UNL     1      -9.234  13.383  66.764  1.00  0.00    -0.242 A  
HETATM   25  C   UNL     1     -10.540  13.583  66.322  1.00  0.00    -0.288 A  
HETATM   26  C   UNL     1     -11.433  12.516  66.292  1.00  0.00    -0.421 A  
HETATM   27  C   UNL     1     -11.020  11.248  66.700  1.00  0.00    -0.326 A  
ENDBRANCH  12  14
TORSDOF 1
ENDMDL
MODEL       53
REMARK 921   NORMALIZED FREE ENERGY PREDICTED BY IDOCK:   -5.18 KCAL/MOL
REMARK 922        TOTAL FREE ENERGY PREDICTED BY IDOCK:   -5.93 KCAL/MOL
REMARK 923 INTER-LIGAND FREE ENERGY PREDICTED BY IDOCK:   -5.97 KCAL/MOL
REMARK 924 INTRA-LIGAND FREE ENERGY PREDICTED BY IDOCK:    0.04 KCAL/MOL
REMARK 927      BINDING AFFINITY PREDICTED BY RF-SCORE:    0.00 PKD
ROOT
HETATM    1  C   UNL     1      -8.852  14.791  66.976  1.00  0.00    -0.237 C  
HETATM    2  S   UNL     1      -9.917  13.884  65.777  1.00  0.00    -0.252 SA 
HETATM    3  C   UNL     1     -11.411  14.921  66.077  1.00  0.00    -0.306 C  
HETATM    4  CA  UNL     1     -10.857  16.260  66.625  1.00  0.00    -0.115 C  
HETATM    5  C   UNL     1     -12.287  14.184  67.110  1.00  0.00    -0.213 C  
HETATM    6  C   UNL     1     -12.228  15.012  64.785  1.00  0.00    -0.223 C  
HETATM    7  N   UNL     1      -9.663  15.938  67.438  1.00  0.00    -0.226 N  
HETATM    8  C   UNL     1     -10.428  17.289  65.562  1.00  0.00    -0.122 C  
HETATM    9  C   UNL     1      -9.821  15.437  68.704  1.00  0.00    -0.208 C  
HETATM   10  OXT UNL     1     -11.134  17.685  64.648  1.00  0.00    -0.906 OA 
HETATM   11  O   UNL     1      -9.190  17.806  65.774  1.00  0.00    -0.505 OA 
HETATM   12  CA  UNL     1      -8.818  14.288  68.446  1.00  0.00    -0.187 C  
HETATM   13  O   UNL     1     -10.613  15.724  69.573  1.00  0.00    -0.228 OA 
ENDROOT
BRANCH  12  14
HETATM   14  N   UNL     1      -9.295  12.897  68.689  1.00  0.00    -0.408 N  
HETATM   15  C   UNL     1      -8.632  11.847  68.097  1.00  0.00    -0.165 C  
HETATM   16  H   UNL     1     -10.104  12.725  69.287  1.00  0.00     0.000 HD 
HETATM   17  C   UNL     1      -9.248  10.469  68.249  1.00  0.00    -0.152 C  
HETATM   18  O   UNL     1      -7.577  12.022  67.480  1.00  0.00    -0.127 OA 
HETATM   19  C   UNL     1      -9.102   9.607  67.001  1.00  0.00    -0.135 C  
HETATM   20  C   UNL     1      -8.732   9.747  69.485  1.00  0.00    -0.193 A  
HETATM   21  O   UNL     1      -8.060   9.879  66.184  1.00  0.00    -0.115 OA 
HETATM   22  C   UNL     1      -9.538   8.780  70.109  1.00  0.00    -0.187 A  
HETATM   23  O   UNL     1      -9.872   8.683  66.750  1.00  0.00    -0.205 OA 
HETATM   24  C   UNL     1      -9.072   8.080  71.223  1.00  0.00    -0.168 A  
HETATM   25  C   UNL     1      -7.801   8.336  71.730  1.00  0.00    -0.147 A  
HETATM   26  C   UNL     1      -6.989   9.288  71.122  1.00  0.00    -0.064 A  
HETATM   27  C   UNL     1      -7.447   9.984  70.003  1.00  0.00    -0.181 A  
ENDBRANCH  12  14
TORSDOF 1
ENDMDL
MODEL       54
REMARK 921   NORMALIZED FREE ENERGY PREDICTED BY IDOCK:   -5.15 KCAL/MOL
REMARK 922        TOTAL FREE ENERGY PREDICTED BY IDOCK:   -5.89 KCAL/MOL
REMARK 923 INTER-LIGAND FREE ENERGY PREDICTED BY IDOCK:   -5.37 KCAL/MOL
REMARK 924 INTRA-LIGAND FREE ENERGY PREDICTED BY IDOCK:   -0.52 KCAL/MOL
REMARK 927      BINDING AFFINITY PREDICTED BY RF-SCORE:    0.00 PKD
ROOT
HETATM    1  C   UNL     1      -9.079   8.018  68.544  1.00  0.00    -0.136 C  
HETATM    2  S   UNL     1      -7.304   8.486  68.390  1.00  0.00    -0.095 SA 
HETATM    3  C   UNL     1      -7.097   8.907  70.173  1.00  0.00    -0.048 C  
HETATM    4  CA  UNL     1      -8.211   8.111  70.897  1.00  0.00    -0.109 C  
HETATM    5  C   UNL     1      -7.280  10.431  70.313  1.00  0.00    -0.000 C  
HETATM    6  C   UNL     1      -5.661   8.591  70.600  1.00  0.00    -0.028 C  
HETATM    7  N   UNL     1      -9.380   8.073  69.991  1.00  0.00    -0.156 N  
HETATM    8  C   UNL     1      -7.862   6.656  71.261  1.00  0.00    -0.102 C  
HETATM    9  C   UNL     1     -10.185   9.178  69.877  1.00  0.00    -0.205 C  
HETATM   10  OXT UNL     1      -6.878   6.310  71.896  1.00  0.00    -0.065 OA 
HETATM   11  O   UNL     1      -8.808   5.757  70.882  1.00  0.00    -0.137 OA 
HETATM   12  CA  UNL     1     -10.146   9.129  68.332  1.00  0.00    -0.196 C  
HETATM   13  O   UNL     1     -10.576   9.957  70.716  1.00  0.00    -0.304 OA 
ENDROOT
BRANCH  12  14
HETATM   14  N   UNL     1      -9.699  10.360  67.621  1.00  0.00    -0.166 N  
HETATM   15  C   UNL     1     -10.644  11.232  67.130  1.00  0.00    -0.235 C  
HETATM   16  H   UNL     1      -8.704  10.554  67.499  1.00  0.00     0.000 HD 
HETATM   17  C   UNL     1     -10.142  12.385  66.282  1.00  0.00    -0.257 C  
HETATM   18  O   UNL     1     -11.843  11.084  67.381  1.00  0.00    -0.523 OA 
HETATM   19  C   UNL     1     -11.070  12.724  65.123  1.00  0.00    -0.291 C  
HETATM   20  C   UNL     1      -9.830  13.616  67.121  1.00  0.00    -0.242 A  
HETATM   21  O   UNL     1     -12.377  12.412  65.269  1.00  0.00    -0.563 OA 
HETATM   22  C   UNL     1      -8.867  14.535  66.671  1.00  0.00    -0.214 A  
HETATM   23  O   UNL     1     -10.669  13.283  64.105  1.00  0.00    -0.405 OA 
HETATM   24  C   UNL     1      -8.589  15.688  67.406  1.00  0.00    -0.192 A  
HETATM   25  C   UNL     1      -9.266  15.941  68.597  1.00  0.00    -0.209 A  
HETATM   26  C   UNL     1     -10.225  15.043  69.054  1.00  0.00    -0.242 A  
HETATM   27  C   UNL     1     -10.511  13.893  68.318  1.00  0.00    -0.252 A  
ENDBRANCH  12  14
TORSDOF 1
ENDMDL
MODEL       55
REMARK 921   NORMALIZED FREE ENERGY PREDICTED BY IDOCK:   -5.05 KCAL/MOL
REMARK 922        TOTAL FREE ENERGY PREDICTED BY IDOCK:   -5.79 KCAL/MOL
REMARK 923 INTER-LIGAND FREE ENERGY PREDICTED BY IDOCK:   -5.34 KCAL/MOL
REMARK 924 INTRA-LIGAND FREE ENERGY PREDICTED BY IDOCK:   -0.45 KCAL/MOL
REMARK 927      BINDING AFFINITY PREDICTED BY RF-SCORE:    0.00 PKD
ROOT
HETATM    1  C   UNL     1      -7.419  14.539  67.502  1.00  0.00    -0.194 C  
HETATM    2  S   UNL     1      -9.199  14.861  67.153  1.00  0.00    -0.231 SA 
HETATM    3  C   UNL     1      -9.358  16.221  68.387  1.00  0.00    -0.210 C  
HETATM    4  CA  UNL     1      -7.915  16.753  68.574  1.00  0.00    -0.235 C  
HETATM    5  C   UNL     1      -9.928  15.607  69.682  1.00  0.00    -0.290 C  
HETATM    6  C   UNL     1     -10.388  17.237  67.886  1.00  0.00    -0.360 C  
HETATM    7  N   UNL     1      -7.003  15.595  68.450  1.00  0.00    -0.112 N  
HETATM    8  C   UNL     1      -7.458  17.813  67.554  1.00  0.00    -0.203 C  
HETATM    9  C   UNL     1      -6.864  14.726  69.502  1.00  0.00    -0.169 C  
HETATM   10  OXT UNL     1      -8.058  18.846  67.303  1.00  0.00    -0.257 OA 
HETATM   11  O   UNL     1      -6.250  17.544  66.994  1.00  0.00    -0.138 OA 
HETATM   12  CA  UNL     1      -7.069  13.491  68.595  1.00  0.00    -0.106 C  
HETATM   13  O   UNL     1      -6.802  14.934  70.692  1.00  0.00     0.063 OA 
ENDROOT
BRANCH  12  14
HETATM   14  N   UNL     1      -8.148  12.535  68.976  1.00  0.00    -0.323 N  
HETATM   15  C   UNL     1      -8.084  11.237  68.525  1.00  0.00    -0.148 C  
HETATM   16  H   UNL     1      -8.925  12.840  69.564  1.00  0.00     0.000 HD 
HETATM   17  C   UNL     1      -9.281  10.349  68.809  1.00  0.00    -0.172 C  
HETATM   18  O   UNL     1      -7.092  10.815  67.925  1.00  0.00    -0.083 OA 
HETATM   19  C   UNL     1      -9.599   9.389  67.671  1.00  0.00    -0.134 C  
HETATM   20  C   UNL     1      -9.142   9.612  70.134  1.00  0.00    -0.280 A  
HETATM   21  O   UNL     1      -8.576   9.034  66.861  1.00  0.00    -0.121 OA 
HETATM   22  C   UNL     1     -10.296   9.226  70.836  1.00  0.00    -0.367 A  
HETATM   23  O   UNL     1     -10.723   8.924  67.500  1.00  0.00    -0.258 OA 
HETATM   24  C   UNL     1     -10.193   8.519  72.035  1.00  0.00    -0.391 A  
HETATM   25  C   UNL     1      -8.942   8.190  72.550  1.00  0.00    -0.286 A  
HETATM   26  C   UNL     1      -7.790   8.562  71.864  1.00  0.00    -0.157 A  
HETATM   27  C   UNL     1      -7.888   9.261  70.662  1.00  0.00    -0.181 A  
ENDBRANCH  12  14
TORSDOF 1
ENDMDL
MODEL       56
REMARK 921   NORMALIZED FREE ENERGY PREDICTED BY IDOCK:   -4.99 KCAL/MOL
REMARK 922        TOTAL FREE ENERGY PREDICTED BY IDOCK:   -5.73 KCAL/MOL
REMARK 923 INTER-LIGAND FREE ENERGY PREDICTED BY IDOCK:   -5.42 KCAL/MOL
REMARK 924 INTRA-LIGAND FREE ENERGY PREDICTED BY IDOCK:   -0.31 KCAL/MOL
REMARK 927      BINDING AFFINITY PREDICTED BY RF-SCORE:    0.00 PKD
ROOT
HETATM    1  C   UNL     1     -10.070  12.917  68.076  1.00  0.00    -0.235 C  
HETATM    2  S   UNL     1      -8.709  13.890  67.306  1.00  0.00    -0.218 SA 
HETATM    3  C   UNL     1      -9.826  14.966  66.311  1.00  0.00    -0.294 C  
HETATM    4  CA  UNL     1     -11.182  14.925  67.061  1.00  0.00    -0.344 C  
HETATM    5  C   UNL     1      -9.920  14.355  64.898  1.00  0.00    -0.124 C  
HETATM    6  C   UNL     1      -9.187  16.349  66.156  1.00  0.00    -0.365 C  
HETATM    7  N   UNL     1     -11.322  13.569  67.635  1.00  0.00    -0.282 N  
HETATM    8  C   UNL     1     -11.336  15.933  68.215  1.00  0.00    -0.342 C  
HETATM    9  C   UNL     1     -11.691  12.525  66.826  1.00  0.00    -0.384 C  
HETATM   10  OXT UNL     1     -11.158  17.137  68.120  1.00  0.00    -0.315 OA 
HETATM   11  O   UNL     1     -11.783  15.375  69.370  1.00  0.00    -0.310 OA 
HETATM   12  CA  UNL     1     -10.545  11.628  67.349  1.00  0.00    -0.220 C  
HETATM   13  O   UNL     1     -12.499  12.473  65.926  1.00  0.00    -0.596 OA 
ENDROOT
BRANCH  12  14
HETATM   14  N   UNL     1      -9.616  11.048  66.338  1.00  0.00    -0.193 N  
HETATM   15  C   UNL     1      -8.488  10.385  66.766  1.00  0.00    -0.125 C  
HETATM   16  H   UNL     1      -9.813  11.141  65.341  1.00  0.00     0.000 HD 
HETATM   17  C   UNL     1      -7.499   9.952  65.701  1.00  0.00    -0.116 C  
HETATM   18  O   UNL     1      -8.300  10.148  67.962  1.00  0.00    -0.115 OA 
HETATM   19  C   UNL     1      -6.047  10.081  66.144  1.00  0.00    -0.074 C  
HETATM   20  C   UNL     1      -7.797   8.552  65.182  1.00  0.00    -0.116 A  
HETATM   21  O   UNL     1      -5.800  10.013  67.472  1.00  0.00    -0.049 OA 
HETATM   22  C   UNL     1      -7.410   8.201  63.877  1.00  0.00    -0.101 A  
HETATM   23  O   UNL     1      -5.126  10.211  65.342  1.00  0.00    -0.045 OA 
HETATM   24  C   UNL     1      -7.642   6.913  63.391  1.00  0.00    -0.100 A  
HETATM   25  C   UNL     1      -8.263   5.961  64.197  1.00  0.00    -0.075 A  
HETATM   26  C   UNL     1      -8.649   6.293  65.491  1.00  0.00    -0.124 A  
HETATM   27  C   UNL     1      -8.411   7.576  65.984  1.00  0.00    -0.152 A  
ENDBRANCH  12  14
TORSDOF 1
ENDMDL
MODEL       57
REMARK 921   NORMALIZED FREE ENERGY PREDICTED BY IDOCK:   -4.98 KCAL/MOL
REMARK 922        TOTAL FREE ENERGY PREDICTED BY IDOCK:   -5.72 KCAL/MOL
REMARK 923 INTER-LIGAND FREE ENERGY PREDICTED BY IDOCK:   -5.25 KCAL/MOL
REMARK 924 INTRA-LIGAND FREE ENERGY PREDICTED BY IDOCK:   -0.47 KCAL/MOL
REMARK 927      BINDING AFFINITY PREDICTED BY RF-SCORE:    0.00 PKD
ROOT
HETATM    1  C   UNL     1      -9.498  15.792  69.206  1.00  0.00    -0.270 C  
HETATM    2  S   UNL     1      -7.741  15.453  69.642  1.00  0.00    -0.076 SA 
HETATM    3  C   UNL     1      -7.044  16.317  68.171  1.00  0.00    -0.135 C  
HETATM    4  CA  UNL     1      -8.146  17.320  67.744  1.00  0.00    -0.198 C  
HETATM    5  C   UNL     1      -6.773  15.250  67.092  1.00  0.00     0.090 C  
HETATM    6  C   UNL     1      -5.689  16.928  68.542  1.00  0.00    -0.131 C  
HETATM    7  N   UNL     1      -9.450  16.679  68.023  1.00  0.00    -0.222 N  
HETATM    8  C   UNL     1      -8.132  18.675  68.474  1.00  0.00    -0.341 C  
HETATM    9  C   UNL     1      -9.931  15.721  67.168  1.00  0.00    -0.242 C  
HETATM   10  OXT UNL     1      -7.164  19.415  68.558  1.00  0.00    -0.292 OA 
HETATM   11  O   UNL     1      -9.345  19.043  68.964  1.00  0.00    -0.325 OA 
HETATM   12  CA  UNL     1     -10.245  14.748  68.329  1.00  0.00    -0.227 C  
HETATM   13  O   UNL     1      -9.904  15.658  65.960  1.00  0.00    -0.282 OA 
ENDROOT
BRANCH  12  14
HETATM   14  N   UNL     1      -9.648  13.384  68.257  1.00  0.00    -0.222 N  
HETATM   15  C   UNL     1     -10.474  12.299  68.068  1.00  0.00    -0.218 C  
HETATM   16  H   UNL     1      -8.639  13.255  68.347  1.00  0.00     0.000 HD 
HETATM   17  C   UNL     1      -9.837  10.925  68.158  1.00  0.00    -0.187 C  
HETATM   18  O   UNL     1     -11.676  12.444  67.827  1.00  0.00    -0.335 OA 
HETATM   19  C   UNL     1     -10.738   9.890  68.821  1.00  0.00    -0.220 C  
HETATM   20  C   UNL     1      -9.337  10.440  66.806  1.00  0.00    -0.181 A  
HETATM   21  O   UNL     1     -12.072  10.097  68.747  1.00  0.00     0.030 OA 
HETATM   22  C   UNL     1      -8.266   9.531  66.749  1.00  0.00    -0.113 A  
HETATM   23  O   UNL     1     -10.289   8.891  69.376  1.00  0.00    -0.204 OA 
HETATM   24  C   UNL     1      -7.812   9.046  65.522  1.00  0.00    -0.096 A  
HETATM   25  C   UNL     1      -8.417   9.459  64.337  1.00  0.00    -0.196 A  
HETATM   26  C   UNL     1      -9.480  10.355  64.377  1.00  0.00    -0.343 A  
HETATM   27  C   UNL     1      -9.942  10.836  65.602  1.00  0.00    -0.317 A  
ENDBRANCH  12  14
TORSDOF 1
ENDMDL
MODEL       58
REMARK 921   NORMALIZED FREE ENERGY PREDICTED BY IDOCK:   -4.97 KCAL/MOL
REMARK 922        TOTAL FREE ENERGY PREDICTED BY IDOCK:   -5.70 KCAL/MOL
REMARK 923 INTER-LIGAND FREE ENERGY PREDICTED BY IDOCK:   -5.25 KCAL/MOL
REMARK 924 INTRA-LIGAND FREE ENERGY PREDICTED BY IDOCK:   -0.45 KCAL/MOL
REMARK 927      BINDING AFFINITY PREDICTED BY RF-SCORE:    0.00 PKD
ROOT
HETATM    1  C   UNL     1     -10.436  10.870  66.375  1.00  0.00    -0.250 C  
HETATM    2  S   UNL     1      -9.434  10.841  64.830  1.00  0.00    -0.267 SA 
HETATM    3  C   UNL     1      -8.024   9.916  65.573  1.00  0.00    -0.128 C  
HETATM    4  CA  UNL     1      -8.638   9.166  66.782  1.00  0.00    -0.127 C  
HETATM    5  C   UNL     1      -6.965  10.952  66.003  1.00  0.00    -0.066 C  
HETATM    6  C   UNL     1      -7.375   9.038  64.499  1.00  0.00    -0.099 C  
HETATM    7  N   UNL     1      -9.692  10.038  67.346  1.00  0.00    -0.157 N  
HETATM    8  C   UNL     1      -9.285   7.806  66.464  1.00  0.00    -0.184 C  
HETATM    9  C   UNL     1      -9.341  11.104  68.133  1.00  0.00    -0.176 C  
HETATM   10  OXT UNL     1      -8.733   6.889  65.877  1.00  0.00    -0.152 OA 
HETATM   11  O   UNL     1     -10.535   7.663  66.977  1.00  0.00    -0.304 OA 
HETATM   12  CA  UNL     1     -10.250  12.073  67.342  1.00  0.00    -0.200 C  
HETATM   13  O   UNL     1      -8.485  11.209  68.982  1.00  0.00    -0.131 OA 
ENDROOT
BRANCH  12  14
HETATM   14  N   UNL     1      -9.614  13.296  66.773  1.00  0.00    -0.251 N  
HETATM   15  C   UNL     1      -9.996  14.531  67.244  1.00  0.00    -0.236 C  
HETATM   16  H   UNL     1      -8.905  13.218  66.043  1.00  0.00     0.000 HD 
HETATM   17  C   UNL     1      -9.436  15.745  66.527  1.00  0.00    -0.298 C  
HETATM   18  O   UNL     1     -10.753  14.641  68.213  1.00  0.00    -0.232 OA 
HETATM   19  C   UNL     1     -10.437  16.888  66.414  1.00  0.00    -0.252 C  
HETATM   20  C   UNL     1      -8.125  16.214  67.141  1.00  0.00    -0.223 A  
HETATM   21  O   UNL     1     -11.408  16.951  67.353  1.00  0.00     0.068 OA 
HETATM   22  C   UNL     1      -7.192  16.898  66.343  1.00  0.00    -0.269 A  
HETATM   23  O   UNL     1     -10.360  17.740  65.533  1.00  0.00    -0.623 OA 
HETATM   24  C   UNL     1      -5.998  17.368  66.891  1.00  0.00    -0.206 A  
HETATM   25  C   UNL     1      -5.718  17.163  68.240  1.00  0.00    -0.128 A  
HETATM   26  C   UNL     1      -6.633  16.491  69.045  1.00  0.00    -0.193 A  
HETATM   27  C   UNL     1      -7.831  16.027  68.502  1.00  0.00    -0.160 A  
ENDBRANCH  12  14
TORSDOF 1
ENDMDL
MODEL       59
REMARK 921   NORMALIZED FREE ENERGY PREDICTED BY IDOCK:   -4.92 KCAL/MOL
REMARK 922        TOTAL FREE ENERGY PREDICTED BY IDOCK:   -5.65 KCAL/MOL
REMARK 923 INTER-LIGAND FREE ENERGY PREDICTED BY IDOCK:   -5.23 KCAL/MOL
REMARK 924 INTRA-LIGAND FREE ENERGY PREDICTED BY IDOCK:   -0.43 KCAL/MOL
REMARK 927      BINDING AFFINITY PREDICTED BY RF-SCORE:    0.00 PKD
ROOT
HETATM    1  C   UNL     1      -9.423   6.013  67.543  1.00  0.00    -0.112 C  
HETATM    2  S   UNL     1      -7.818   6.390  68.365  1.00  0.00    -0.106 SA 
HETATM    3  C   UNL     1      -8.339   5.770  70.021  1.00  0.00    -0.123 C  
HETATM    4  CA  UNL     1      -9.487   4.773  69.724  1.00  0.00    -0.162 C  
HETATM    5  C   UNL     1      -8.817   6.986  70.841  1.00  0.00    -0.148 C  
HETATM    6  C   UNL     1      -7.121   5.194  70.748  1.00  0.00    -0.060 C  
HETATM    7  N   UNL     1     -10.228   5.295  68.555  1.00  0.00    -0.165 N  
HETATM    8  C   UNL     1      -9.051   3.335  69.390  1.00  0.00    -0.134 C  
HETATM    9  C   UNL     1     -11.113   6.329  68.720  1.00  0.00    -0.346 C  
HETATM   10  OXT UNL     1      -8.317   2.647  70.082  1.00  0.00    -0.041 OA 
HETATM   11  O   UNL     1      -9.630   2.837  68.266  1.00  0.00    -0.187 OA 
HETATM   12  CA  UNL     1     -10.515   7.119  67.533  1.00  0.00    -0.260 C  
HETATM   13  O   UNL     1     -11.906   6.554  69.607  1.00  0.00    -0.310 OA 
ENDROOT
BRANCH  12  14
HETATM   14  N   UNL     1     -10.057   8.513  67.802  1.00  0.00    -0.198 N  
HETATM   15  C   UNL     1      -9.551   9.264  66.766  1.00  0.00    -0.183 C  
HETATM   16  H   UNL     1     -10.119   8.905  68.742  1.00  0.00     0.000 HD 
HETATM   17  C   UNL     1      -8.957  10.614  67.120  1.00  0.00    -0.143 C  
HETATM   18  O   UNL     1      -9.589   8.857  65.601  1.00  0.00    -0.220 OA 
HETATM   19  C   UNL     1      -7.725  10.962  66.294  1.00  0.00    -0.147 C  
HETATM   20  C   UNL     1      -9.995  11.726  67.063  1.00  0.00    -0.224 A  
HETATM   21  O   UNL     1      -7.623  10.393  65.072  1.00  0.00    -0.142 OA 
HETATM   22  C   UNL     1      -9.831  12.868  67.864  1.00  0.00    -0.227 A  
HETATM   23  O   UNL     1      -6.869  11.746  66.694  1.00  0.00    -0.096 OA 
HETATM   24  C   UNL     1     -10.752  13.915  67.803  1.00  0.00    -0.252 A  
HETATM   25  C   UNL     1     -11.847  13.837  66.945  1.00  0.00    -0.447 A  
HETATM   26  C   UNL     1     -12.021  12.714  66.143  1.00  0.00    -0.458 A  
HETATM   27  C   UNL     1     -11.099  11.669  66.195  1.00  0.00    -0.335 A  
ENDBRANCH  12  14
TORSDOF 1
ENDMDL
MODEL       60
REMARK 921   NORMALIZED FREE ENERGY PREDICTED BY IDOCK:   -4.92 KCAL/MOL
REMARK 922        TOTAL FREE ENERGY PREDICTED BY IDOCK:   -5.65 KCAL/MOL
REMARK 923 INTER-LIGAND FREE ENERGY PREDICTED BY IDOCK:   -5.16 KCAL/MOL
REMARK 924 INTRA-LIGAND FREE ENERGY PREDICTED BY IDOCK:   -0.48 KCAL/MOL
REMARK 927      BINDING AFFINITY PREDICTED BY RF-SCORE:    0.00 PKD
ROOT
HETATM    1  C   UNL     1      -7.173  16.748  67.754  1.00  0.00    -0.138 C  
HETATM    2  S   UNL     1      -8.056  16.958  66.151  1.00  0.00    -0.150 SA 
HETATM    3  C   UNL     1      -9.691  17.324  66.917  1.00  0.00    -0.273 C  
HETATM    4  CA  UNL     1      -9.353  17.848  68.336  1.00  0.00    -0.288 C  
HETATM    5  C   UNL     1     -10.490  16.005  66.956  1.00  0.00    -0.307 C  
HETATM    6  C   UNL     1     -10.466  18.287  66.013  1.00  0.00    -0.380 C  
HETATM    7  N   UNL     1      -8.155  17.113  68.798  1.00  0.00    -0.267 N  
HETATM    8  C   UNL     1      -9.038  19.352  68.432  1.00  0.00    -0.358 C  
HETATM    9  C   UNL     1      -8.284  15.828  69.259  1.00  0.00    -0.247 C  
HETATM   10  OXT UNL     1      -9.759  20.246  68.019  1.00  0.00    -0.352 OA 
HETATM   11  O   UNL     1      -7.894  19.627  69.112  1.00  0.00    -0.328 OA 
HETATM   12  CA  UNL     1      -7.120  15.323  68.375  1.00  0.00    -0.111 C  
HETATM   13  O   UNL     1      -9.139  15.321  69.948  1.00  0.00    -0.145 OA 
ENDROOT
BRANCH  12  14
HETATM   14  N   UNL     1      -7.403  14.182  67.458  1.00  0.00    -0.185 N  
HETATM   15  C   UNL     1      -6.917  12.934  67.771  1.00  0.00    -0.138 C  
HETATM   16  H   UNL     1      -7.951  14.325  66.608  1.00  0.00     0.000 HD 
HETATM   17  C   UNL     1      -7.099  11.844  66.732  1.00  0.00    -0.003 C  
HETATM   18  O   UNL     1      -6.368  12.713  68.854  1.00  0.00    -0.074 OA 
HETATM   19  C   UNL     1      -5.913  10.890  66.651  1.00  0.00    -0.097 C  
HETATM   20  C   UNL     1      -8.406  11.088  66.922  1.00  0.00    -0.138 A  
HETATM   21  O   UNL     1      -5.159  10.750  67.764  1.00  0.00    -0.040 OA 
HETATM   22  C   UNL     1      -9.022  10.481  65.814  1.00  0.00    -0.199 A  
HETATM   23  O   UNL     1      -5.658  10.248  65.635  1.00  0.00    -0.064 OA 
HETATM   24  C   UNL     1     -10.203   9.753  65.970  1.00  0.00    -0.263 A  
HETATM   25  C   UNL     1     -10.785   9.622  67.228  1.00  0.00    -0.284 A  
HETATM   26  C   UNL     1     -10.185  10.214  68.335  1.00  0.00    -0.192 A  
HETATM   27  C   UNL     1      -9.001  10.935  68.186  1.00  0.00    -0.144 A  
ENDBRANCH  12  14
TORSDOF 1
ENDMDL
MODEL       61
REMARK 921   NORMALIZED FREE ENERGY PREDICTED BY IDOCK:   -4.90 KCAL/MOL
REMARK 922        TOTAL FREE ENERGY PREDICTED BY IDOCK:   -5.62 KCAL/MOL
REMARK 923 INTER-LIGAND FREE ENERGY PREDICTED BY IDOCK:   -5.85 KCAL/MOL
REMARK 924 INTRA-LIGAND FREE ENERGY PREDICTED BY IDOCK:    0.23 KCAL/MOL
REMARK 927      BINDING AFFINITY PREDICTED BY RF-SCORE:    0.00 PKD
ROOT
HETATM    1  C   UNL     1     -10.581   6.817  68.892  1.00  0.00    -0.228 C  
HETATM    2  S   UNL     1     -10.967   6.370  67.147  1.00  0.00    -0.350 SA 
HETATM    3  C   UNL     1      -9.206   6.300  66.608  1.00  0.00    -0.146 C  
HETATM    4  CA  UNL     1      -8.406   6.039  67.910  1.00  0.00    -0.116 C  
HETATM    5  C   UNL     1      -8.861   7.663  65.973  1.00  0.00    -0.186 C  
HETATM    6  C   UNL     1      -9.058   5.247  65.507  1.00  0.00    -0.145 C  
HETATM    7  N   UNL     1      -9.108   6.748  69.003  1.00  0.00    -0.138 N  
HETATM    8  C   UNL     1      -8.276   4.562  68.326  1.00  0.00    -0.090 C  
HETATM    9  C   UNL     1      -8.960   8.105  69.135  1.00  0.00    -0.144 C  
HETATM   10  OXT UNL     1      -7.854   3.668  67.610  1.00  0.00    -0.077 OA 
HETATM   11  O   UNL     1      -8.597   4.332  69.626  1.00  0.00    -0.070 OA 
HETATM   12  CA  UNL     1     -10.486   8.326  69.253  1.00  0.00    -0.210 C  
HETATM   13  O   UNL     1      -7.984   8.808  69.001  1.00  0.00    -0.106 OA 
ENDROOT
BRANCH  12  14
HETATM   14  N   UNL     1     -11.113   9.284  68.298  1.00  0.00    -0.487 N  
HETATM   15  C   UNL     1     -10.635  10.572  68.229  1.00  0.00    -0.206 C  
HETATM   16  H   UNL     1     -11.888   8.988  67.703  1.00  0.00     0.000 HD 
HETATM   17  C   UNL     1     -11.405  11.547  67.359  1.00  0.00    -0.367 C  
HETATM   18  O   UNL     1      -9.619  10.912  68.842  1.00  0.00    -0.192 OA 
HETATM   19  C   UNL     1     -11.467  12.952  67.944  1.00  0.00    -0.318 C  
HETATM   20  C   UNL     1     -10.888  11.565  65.928  1.00  0.00    -0.316 A  
HETATM   21  O   UNL     1     -10.467  13.317  68.777  1.00  0.00    -0.232 OA 
HETATM   22  C   UNL     1     -11.757  11.918  64.881  1.00  0.00    -0.262 A  
HETATM   23  O   UNL     1     -12.364  13.742  67.657  1.00  0.00    -0.260 OA 
HETATM   24  C   UNL     1     -11.296  11.974  63.565  1.00  0.00    -0.528 A  
HETATM   25  C   UNL     1      -9.966  11.678  63.274  1.00  0.00    -0.442 A  
HETATM   26  C   UNL     1      -9.093  11.331  64.300  1.00  0.00     0.024 A  
HETATM   27  C   UNL     1      -9.547  11.281  65.617  1.00  0.00    -0.260 A  
ENDBRANCH  12  14
TORSDOF 1
ENDMDL
MODEL       62
REMARK 921   NORMALIZED FREE ENERGY PREDICTED BY IDOCK:   -4.89 KCAL/MOL
REMARK 922        TOTAL FREE ENERGY PREDICTED BY IDOCK:   -5.62 KCAL/MOL
REMARK 923 INTER-LIGAND FREE ENERGY PREDICTED BY IDOCK:   -5.48 KCAL/MOL
REMARK 924 INTRA-LIGAND FREE ENERGY PREDICTED BY IDOCK:   -0.14 KCAL/MOL
REMARK 927      BINDING AFFINITY PREDICTED BY RF-SCORE:    0.00 PKD
ROOT
HETATM    1  C   UNL     1      -9.223  13.978  66.370  1.00  0.00    -0.162 C  
HETATM    2  S   UNL     1      -9.891  12.492  65.511  1.00  0.00    -0.126 SA 
HETATM    3  C   UNL     1     -11.657  12.894  65.850  1.00  0.00    -0.377 C  
HETATM    4  CA  UNL     1     -11.676  14.426  66.078  1.00  0.00    -0.375 C  
HETATM    5  C   UNL     1     -12.078  12.110  67.109  1.00  0.00     0.054 C  
HETATM    6  C   UNL     1     -12.521  12.377  64.696  1.00  0.00    -0.500 C  
HETATM    7  N   UNL     1     -10.405  14.783  66.748  1.00  0.00    -0.265 N  
HETATM    8  C   UNL     1     -11.785  15.288  64.806  1.00  0.00    -0.276 C  
HETATM    9  C   UNL     1     -10.256  14.543  68.090  1.00  0.00    -0.230 C  
HETATM   10  OXT UNL     1     -12.649  15.169  63.953  1.00  0.00    -0.794 OA 
HETATM   11  O   UNL     1     -10.863  16.284  64.743  1.00  0.00    -0.671 OA 
HETATM   12  CA  UNL     1      -8.886  13.856  67.882  1.00  0.00    -0.184 C  
HETATM   13  O   UNL     1     -11.037  14.673  69.005  1.00  0.00    -0.237 OA 
ENDROOT
BRANCH  12  14
HETATM   14  N   UNL     1      -8.725  12.476  68.423  1.00  0.00    -0.296 N  
HETATM   15  C   UNL     1      -7.666  11.709  67.996  1.00  0.00    -0.121 C  
HETATM   16  H   UNL     1      -9.391  12.105  69.101  1.00  0.00     0.000 HD 
HETATM   17  C   UNL     1      -7.634  10.263  68.455  1.00  0.00    -0.089 C  
HETATM   18  O   UNL     1      -6.779  12.182  67.281  1.00  0.00    -0.129 OA 
HETATM   19  C   UNL     1      -7.113   9.307  67.389  1.00  0.00    -0.079 C  
HETATM   20  C   UNL     1      -6.878  10.098  69.766  1.00  0.00    -0.105 A  
HETATM   21  O   UNL     1      -6.274   9.820  66.460  1.00  0.00    -0.065 OA 
HETATM   22  C   UNL     1      -7.201   9.031  70.621  1.00  0.00    -0.093 A  
HETATM   23  O   UNL     1      -7.408   8.115  67.378  1.00  0.00    -0.086 OA 
HETATM   24  C   UNL     1      -6.498   8.839  71.812  1.00  0.00    -0.073 A  
HETATM   25  C   UNL     1      -5.467   9.706  72.165  1.00  0.00    -0.005 A  
HETATM   26  C   UNL     1      -5.133  10.765  71.326  1.00  0.00    -0.096 A  
HETATM   27  C   UNL     1      -5.827  10.955  70.132  1.00  0.00    -0.100 A  
ENDBRANCH  12  14
TORSDOF 1
ENDMDL
MODEL       63
REMARK 921   NORMALIZED FREE ENERGY PREDICTED BY IDOCK:   -4.88 KCAL/MOL
REMARK 922        TOTAL FREE ENERGY PREDICTED BY IDOCK:   -5.61 KCAL/MOL
REMARK 923 INTER-LIGAND FREE ENERGY PREDICTED BY IDOCK:   -5.15 KCAL/MOL
REMARK 924 INTRA-LIGAND FREE ENERGY PREDICTED BY IDOCK:   -0.46 KCAL/MOL
REMARK 927      BINDING AFFINITY PREDICTED BY RF-SCORE:    0.00 PKD
ROOT
HETATM    1  C   UNL     1      -9.314  12.387  68.445  1.00  0.00    -0.158 C  
HETATM    2  S   UNL     1      -8.850  12.755  66.701  1.00  0.00    -0.039 SA 
HETATM    3  C   UNL     1     -10.535  13.312  66.204  1.00  0.00    -0.293 C  
HETATM    4  CA  UNL     1     -11.212  13.749  67.527  1.00  0.00    -0.294 C  
HETATM    5  C   UNL     1     -11.247  12.109  65.552  1.00  0.00    -0.381 C  
HETATM    6  C   UNL     1     -10.411  14.392  65.126  1.00  0.00    -0.447 C  
HETATM    7  N   UNL     1     -10.711  12.850  68.591  1.00  0.00    -0.251 N  
HETATM    8  C   UNL     1     -10.931  15.195  67.974  1.00  0.00    -0.295 C  
HETATM    9  C   UNL     1     -11.219  11.581  68.701  1.00  0.00    -0.248 C  
HETATM   10  OXT UNL     1     -11.106  16.187  67.283  1.00  0.00    -0.231 OA 
HETATM   11  O   UNL     1     -10.538  15.298  69.270  1.00  0.00    -0.232 OA 
HETATM   12  CA  UNL     1      -9.808  10.952  68.781  1.00  0.00    -0.196 C  
HETATM   13  O   UNL     1     -12.351  11.172  68.577  1.00  0.00    -0.561 OA 
ENDROOT
BRANCH  12  14
HETATM   14  N   UNL     1      -9.480   9.883  67.795  1.00  0.00    -0.140 N  
HETATM   15  C   UNL     1      -8.351   9.121  67.983  1.00  0.00    -0.120 C  
HETATM   16  H   UNL     1     -10.086   9.719  66.990  1.00  0.00     0.000 HD 
HETATM   17  C   UNL     1      -7.979   8.155  66.874  1.00  0.00    -0.104 C  
HETATM   18  O   UNL     1      -7.680   9.214  69.015  1.00  0.00    -0.076 OA 
HETATM   19  C   UNL     1      -6.475   8.046  66.655  1.00  0.00    -0.055 C  
HETATM   20  C   UNL     1      -8.611   6.786  67.074  1.00  0.00    -0.114 A  
HETATM   21  O   UNL     1      -5.678   8.320  67.711  1.00  0.00    -0.037 OA 
HETATM   22  C   UNL     1      -8.874   5.974  65.957  1.00  0.00    -0.159 A  
HETATM   23  O   UNL     1      -5.994   7.696  65.580  1.00  0.00    -0.037 OA 
HETATM   24  C   UNL     1      -9.422   4.701  66.119  1.00  0.00    -0.169 A  
HETATM   25  C   UNL     1      -9.715   4.220  67.393  1.00  0.00    -0.210 A  
HETATM   26  C   UNL     1      -9.457   5.010  68.509  1.00  0.00    -0.185 A  
HETATM   27  C   UNL     1      -8.902   6.280  68.352  1.00  0.00    -0.114 A  
ENDBRANCH  12  14
TORSDOF 1
ENDMDL
MODEL       64
REMARK 921   NORMALIZED FREE ENERGY PREDICTED BY IDOCK:   -4.86 KCAL/MOL
REMARK 922        TOTAL FREE ENERGY PREDICTED BY IDOCK:   -5.59 KCAL/MOL
REMARK 923 INTER-LIGAND FREE ENERGY PREDICTED BY IDOCK:   -5.90 KCAL/MOL
REMARK 924 INTRA-LIGAND FREE ENERGY PREDICTED BY IDOCK:    0.30 KCAL/MOL
REMARK 927      BINDING AFFINITY PREDICTED BY RF-SCORE:    0.00 PKD
ROOT
HETATM    1  C   UNL     1     -11.373  13.774  67.598  1.00  0.00    -0.304 C  
HETATM    2  S   UNL     1     -11.410  15.583  67.250  1.00  0.00    -0.086 SA 
HETATM    3  C   UNL     1     -10.625  15.439  65.589  1.00  0.00    -0.364 C  
HETATM    4  CA  UNL     1     -10.917  13.985  65.139  1.00  0.00    -0.353 C  
HETATM    5  C   UNL     1      -9.116  15.706  65.765  1.00  0.00    -0.157 C  
HETATM    6  C   UNL     1     -11.168  16.545  64.679  1.00  0.00    -0.123 C  
HETATM    7  N   UNL     1     -10.889  13.140  66.353  1.00  0.00    -0.285 N  
HETATM    8  C   UNL     1     -12.276  13.761  64.451  1.00  0.00    -0.399 C  
HETATM    9  C   UNL     1      -9.685  12.774  66.897  1.00  0.00    -0.234 C  
HETATM   10  OXT UNL     1     -12.684  14.390  63.488  1.00  0.00    -0.742 OA 
HETATM   11  O   UNL     1     -12.979  12.716  64.961  1.00  0.00    -0.812 OA 
HETATM   12  CA  UNL     1     -10.123  13.196  68.319  1.00  0.00    -0.247 C  
HETATM   13  O   UNL     1      -8.650  12.440  66.366  1.00  0.00    -0.075 OA 
ENDROOT
BRANCH  12  14
HETATM   14  N   UNL     1      -9.256  14.171  69.040  1.00  0.00    -0.396 N  
HETATM   15  C   UNL     1      -7.917  13.891  69.194  1.00  0.00     0.196 C  
HETATM   16  H   UNL     1      -9.650  15.034  69.415  1.00  0.00     0.000 HD 
HETATM   17  C   UNL     1      -7.113  14.836  70.067  1.00  0.00    -0.030 C  
HETATM   18  O   UNL     1      -7.397  12.921  68.636  1.00  0.00    -0.107 OA 
HETATM   19  C   UNL     1      -6.057  14.125  70.903  1.00  0.00    -0.149 C  
HETATM   20  C   UNL     1      -6.507  15.978  69.263  1.00  0.00    -0.169 A  
HETATM   21  O   UNL     1      -5.581  12.952  70.427  1.00  0.00    -0.133 OA 
HETATM   22  C   UNL     1      -6.240  17.204  69.895  1.00  0.00    -0.128 A  
HETATM   23  O   UNL     1      -5.624  14.597  71.951  1.00  0.00    -0.085 OA 
HETATM   24  C   UNL     1      -5.654  18.254  69.187  1.00  0.00    -0.206 A  
HETATM   25  C   UNL     1      -5.326  18.097  67.843  1.00  0.00    -0.152 A  
HETATM   26  C   UNL     1      -5.581  16.887  67.204  1.00  0.00    -0.196 A  
HETATM   27  C   UNL     1      -6.159  15.833  67.909  1.00  0.00    -0.159 A  
ENDBRANCH  12  14
TORSDOF 1
ENDMDL
MODEL       65
REMARK 921   NORMALIZED FREE ENERGY PREDICTED BY IDOCK:   -4.85 KCAL/MOL
REMARK 922        TOTAL FREE ENERGY PREDICTED BY IDOCK:   -5.58 KCAL/MOL
REMARK 923 INTER-LIGAND FREE ENERGY PREDICTED BY IDOCK:   -5.08 KCAL/MOL
REMARK 924 INTRA-LIGAND FREE ENERGY PREDICTED BY IDOCK:   -0.50 KCAL/MOL
REMARK 927      BINDING AFFINITY PREDICTED BY RF-SCORE:    0.00 PKD
ROOT
HETATM    1  C   UNL     1      -9.528  10.006  67.413  1.00  0.00    -0.152 C  
HETATM    2  S   UNL     1      -7.691   9.867  67.414  1.00  0.00    -0.091 SA 
HETATM    3  C   UNL     1      -7.625   8.642  66.039  1.00  0.00    -0.093 C  
HETATM    4  CA  UNL     1      -8.949   8.851  65.262  1.00  0.00    -0.162 C  
HETATM    5  C   UNL     1      -7.533   7.239  66.672  1.00  0.00    -0.088 C  
HETATM    6  C   UNL     1      -6.337   8.853  65.238  1.00  0.00    -0.063 C  
HETATM    7  N   UNL     1      -9.986   9.209  66.255  1.00  0.00    -0.287 N  
HETATM    8  C   UNL     1      -8.927   9.961  64.195  1.00  0.00    -0.240 C  
HETATM    9  C   UNL     1     -10.548   8.229  67.032  1.00  0.00    -0.258 C  
HETATM   10  OXT UNL     1      -8.110  10.047  63.292  1.00  0.00    -0.145 OA 
HETATM   11  O   UNL     1      -9.973  10.823  64.285  1.00  0.00    -0.288 OA 
HETATM   12  CA  UNL     1     -10.332   9.043  68.330  1.00  0.00    -0.209 C  
HETATM   13  O   UNL     1     -10.883   7.100  66.756  1.00  0.00    -0.320 OA 
ENDROOT
BRANCH  12  14
HETATM   14  N   UNL     1      -9.578   8.382  69.433  1.00  0.00    -0.169 N  
HETATM   15  C   UNL     1     -10.270   7.871  70.506  1.00  0.00    -0.198 C  
HETATM   16  H   UNL     1      -8.560   8.309  69.392  1.00  0.00     0.000 HD 
HETATM   17  C   UNL     1      -9.448   7.350  71.670  1.00  0.00    -0.163 C  
HETATM   18  O   UNL     1     -11.503   7.831  70.513  1.00  0.00    -0.271 OA 
HETATM   19  C   UNL     1     -10.076   7.644  73.026  1.00  0.00    -0.304 C  
HETATM   20  C   UNL     1      -9.121   5.871  71.520  1.00  0.00    -0.150 A  
HETATM   21  O   UNL     1     -11.419   7.796  73.063  1.00  0.00    -0.372 OA 
HETATM   22  C   UNL     1      -7.963   5.353  72.124  1.00  0.00    -0.107 A  
HETATM   23  O   UNL     1      -9.410   7.715  74.056  1.00  0.00    -0.262 OA 
HETATM   24  C   UNL     1      -7.660   3.994  72.029  1.00  0.00    -0.066 A  
HETATM   25  C   UNL     1      -8.506   3.135  71.332  1.00  0.00    -0.091 A  
HETATM   26  C   UNL     1      -9.659   3.632  70.732  1.00  0.00    -0.249 A  
HETATM   27  C   UNL     1      -9.969   4.988  70.831  1.00  0.00    -0.286 A  
ENDBRANCH  12  14
TORSDOF 1
ENDMDL
MODEL       66
REMARK 921   NORMALIZED FREE ENERGY PREDICTED BY IDOCK:   -4.84 KCAL/MOL
REMARK 922        TOTAL FREE ENERGY PREDICTED BY IDOCK:   -5.57 KCAL/MOL
REMARK 923 INTER-LIGAND FREE ENERGY PREDICTED BY IDOCK:   -5.13 KCAL/MOL
REMARK 924 INTRA-LIGAND FREE ENERGY PREDICTED BY IDOCK:   -0.44 KCAL/MOL
REMARK 927      BINDING AFFINITY PREDICTED BY RF-SCORE:    0.00 PKD
ROOT
HETATM    1  C   UNL     1     -10.108  15.484  68.293  1.00  0.00    -0.218 C  
HETATM    2  S   UNL     1      -8.385  15.584  68.938  1.00  0.00    -0.224 SA 
HETATM    3  C   UNL     1      -7.863  16.924  67.784  1.00  0.00    -0.178 C  
HETATM    4  CA  UNL     1      -9.182  17.629  67.378  1.00  0.00    -0.247 C  
HETATM    5  C   UNL     1      -7.163  16.255  66.584  1.00  0.00    -0.160 C  
HETATM    6  C   UNL     1      -6.817  17.803  68.475  1.00  0.00    -0.233 C  
HETATM    7  N   UNL     1     -10.233  16.590  67.320  1.00  0.00    -0.282 N  
HETATM    8  C   UNL     1      -9.672  18.728  68.339  1.00  0.00    -0.376 C  
HETATM    9  C   UNL     1     -10.298  15.753  66.235  1.00  0.00    -0.310 C  
HETATM   10  OXT UNL     1      -9.004  19.679  68.714  1.00  0.00    -0.342 OA 
HETATM   11  O   UNL     1     -10.980  18.604  68.687  1.00  0.00     0.350 OA 
HETATM   12  CA  UNL     1     -10.394  14.494  67.129  1.00  0.00    -0.265 C  
HETATM   13  O   UNL     1     -10.136  15.976  65.057  1.00  0.00    -0.463 OA 
ENDROOT
BRANCH  12  14
HETATM   14  N   UNL     1      -9.388  13.417  66.903  1.00  0.00    -0.245 N  
HETATM   15  C   UNL     1      -9.819  12.121  66.738  1.00  0.00    -0.206 C  
HETATM   16  H   UNL     1      -8.392  13.639  66.871  1.00  0.00     0.000 HD 
HETATM   17  C   UNL     1      -8.752  11.045  66.668  1.00  0.00    -0.160 C  
HETATM   18  O   UNL     1     -11.019  11.852  66.642  1.00  0.00    -0.263 OA 
HETATM   19  C   UNL     1      -9.161   9.750  67.358  1.00  0.00    -0.134 C  
HETATM   20  C   UNL     1      -8.293  10.790  65.239  1.00  0.00    -0.086 A  
HETATM   21  O   UNL     1     -10.485   9.491  67.447  1.00  0.00    -0.244 OA 
HETATM   22  C   UNL     1      -6.996  10.303  65.005  1.00  0.00    -0.112 A  
HETATM   23  O   UNL     1      -8.336   8.951  67.794  1.00  0.00    -0.110 OA 
HETATM   24  C   UNL     1      -6.565  10.029  63.706  1.00  0.00    -0.130 A  
HETATM   25  C   UNL     1      -7.419  10.238  62.625  1.00  0.00    -0.148 A  
HETATM   26  C   UNL     1      -8.707  10.716  62.841  1.00  0.00    -0.229 A  
HETATM   27  C   UNL     1      -9.145  10.984  64.138  1.00  0.00    -0.110 A  
ENDBRANCH  12  14
TORSDOF 1
ENDMDL
MODEL       67
REMARK 921   NORMALIZED FREE ENERGY PREDICTED BY IDOCK:   -4.84 KCAL/MOL
REMARK 922        TOTAL FREE ENERGY PREDICTED BY IDOCK:   -5.56 KCAL/MOL
REMARK 923 INTER-LIGAND FREE ENERGY PREDICTED BY IDOCK:   -5.27 KCAL/MOL
REMARK 924 INTRA-LIGAND FREE ENERGY PREDICTED BY IDOCK:   -0.29 KCAL/MOL
REMARK 927      BINDING AFFINITY PREDICTED BY RF-SCORE:    0.00 PKD
ROOT
HETATM    1  C   UNL     1     -10.907  15.500  67.936  1.00  0.00    -0.307 C  
HETATM    2  S   UNL     1      -9.463  15.915  69.002  1.00  0.00    -0.262 SA 
HETATM    3  C   UNL     1      -8.283  16.111  67.599  1.00  0.00    -0.147 C  
HETATM    4  CA  UNL     1      -9.177  16.432  66.375  1.00  0.00    -0.302 C  
HETATM    5  C   UNL     1      -7.528  14.776  67.439  1.00  0.00    -0.221 C  
HETATM    6  C   UNL     1      -7.240  17.171  67.964  1.00  0.00    -0.187 C  
HETATM    7  N   UNL     1     -10.438  15.676  66.545  1.00  0.00    -0.297 N  
HETATM    8  C   UNL     1      -9.549  17.915  66.192  1.00  0.00    -0.178 C  
HETATM    9  C   UNL     1     -10.465  14.334  66.266  1.00  0.00    -0.291 C  
HETATM   10  OXT UNL     1      -8.749  18.836  66.145  1.00  0.00    -0.439 OA 
HETATM   11  O   UNL     1     -10.877  18.123  65.995  1.00  0.00    -0.227 OA 
HETATM   12  CA  UNL     1     -11.163  14.002  67.606  1.00  0.00    -0.297 C  
HETATM   13  O   UNL     1      -9.944  13.703  65.375  1.00  0.00    -0.283 OA 
ENDROOT
BRANCH  12  14
HETATM   14  N   UNL     1     -10.502  13.000  68.490  1.00  0.00    -0.253 N  
HETATM   15  C   UNL     1     -10.467  11.681  68.099  1.00  0.00    -0.195 C  
HETATM   16  H   UNL     1     -10.082  13.288  69.374  1.00  0.00     0.000 HD 
HETATM   17  C   UNL     1      -9.924  10.680  69.101  1.00  0.00    -0.228 C  
HETATM   18  O   UNL     1     -10.851  11.335  66.978  1.00  0.00    -0.253 OA 
HETATM   19  C   UNL     1     -10.662   9.348  69.076  1.00  0.00    -0.187 C  
HETATM   20  C   UNL     1      -8.422  10.485  68.955  1.00  0.00    -0.152 A  
HETATM   21  O   UNL     1     -11.265   8.999  67.917  1.00  0.00     0.096 OA 
HETATM   22  C   UNL     1      -7.663  10.090  70.070  1.00  0.00    -0.181 A  
HETATM   23  O   UNL     1     -10.692   8.597  70.048  1.00  0.00    -0.225 OA 
HETATM   24  C   UNL     1      -6.289   9.872  69.951  1.00  0.00    -0.063 A  
HETATM   25  C   UNL     1      -5.655  10.044  68.723  1.00  0.00    -0.035 A  
HETATM   26  C   UNL     1      -6.393  10.431  67.610  1.00  0.00    -0.057 A  
HETATM   27  C   UNL     1      -7.767  10.643  67.721  1.00  0.00    -0.100 A  
ENDBRANCH  12  14
TORSDOF 1
ENDMDL
MODEL       68
REMARK 921   NORMALIZED FREE ENERGY PREDICTED BY IDOCK:   -4.71 KCAL/MOL
REMARK 922        TOTAL FREE ENERGY PREDICTED BY IDOCK:   -5.43 KCAL/MOL
REMARK 923 INTER-LIGAND FREE ENERGY PREDICTED BY IDOCK:   -5.02 KCAL/MOL
REMARK 924 INTRA-LIGAND FREE ENERGY PREDICTED BY IDOCK:   -0.41 KCAL/MOL
REMARK 927      BINDING AFFINITY PREDICTED BY RF-SCORE:    0.00 PKD
ROOT
HETATM    1  C   UNL     1      -9.268   7.846  70.345  1.00  0.00    -0.158 C  
HETATM    2  S   UNL     1      -8.210   8.639  69.063  1.00  0.00    -0.124 SA 
HETATM    3  C   UNL     1      -6.668   8.579  70.071  1.00  0.00    -0.042 C  
HETATM    4  CA  UNL     1      -6.906   7.432  71.086  1.00  0.00    -0.050 C  
HETATM    5  C   UNL     1      -6.512   9.948  70.762  1.00  0.00    -0.081 C  
HETATM    6  C   UNL     1      -5.464   8.411  69.140  1.00  0.00    -0.031 C  
HETATM    7  N   UNL     1      -8.345   7.444  71.429  1.00  0.00    -0.111 N  
HETATM    8  C   UNL     1      -6.563   6.017  70.584  1.00  0.00    -0.048 C  
HETATM    9  C   UNL     1      -8.824   8.380  72.310  1.00  0.00    -0.220 C  
HETATM   10  OXT UNL     1      -5.490   5.686  70.105  1.00  0.00    -0.008 OA 
HETATM   11  O   UNL     1      -7.550   5.108  70.800  1.00  0.00    -0.074 OA 
HETATM   12  CA  UNL     1      -9.988   8.768  71.368  1.00  0.00    -0.283 C  
HETATM   13  O   UNL     1      -8.346   8.816  73.332  1.00  0.00    -0.374 OA 
ENDROOT
BRANCH  12  14
HETATM   14  N   UNL     1     -10.115  10.207  70.999  1.00  0.00     0.013 N  
HETATM   15  C   UNL     1     -11.133  10.595  70.157  1.00  0.00    -0.268 C  
HETATM   16  H   UNL     1      -9.457  10.896  71.365  1.00  0.00     0.000 HD 
HETATM   17  C   UNL     1     -11.126  12.038  69.689  1.00  0.00    -0.074 C  
HETATM   18  O   UNL     1     -12.014   9.804  69.810  1.00  0.00     0.011 OA 
HETATM   19  C   UNL     1     -11.580  12.201  68.244  1.00  0.00    -0.325 C  
HETATM   20  C   UNL     1     -11.915  12.944  70.623  1.00  0.00    -0.207 A  
HETATM   21  O   UNL     1     -12.407  11.253  67.748  1.00  0.00    -0.262 OA 
HETATM   22  C   UNL     1     -11.580  14.306  70.713  1.00  0.00    -0.182 A  
HETATM   23  O   UNL     1     -11.242  13.160  67.555  1.00  0.00    -0.261 OA 
HETATM   24  C   UNL     1     -12.311  15.163  71.537  1.00  0.00    -0.409 A  
HETATM   25  C   UNL     1     -13.383  14.675  72.281  1.00  0.00    -0.485 A  
HETATM   26  C   UNL     1     -13.730  13.330  72.199  1.00  0.00    -0.619 A  
HETATM   27  C   UNL     1     -13.007  12.472  71.371  1.00  0.00    -0.347 A  
ENDBRANCH  12  14
TORSDOF 1
ENDMDL
MODEL       69
REMARK 921   NORMALIZED FREE ENERGY PREDICTED BY IDOCK:   -4.66 KCAL/MOL
REMARK 922        TOTAL FREE ENERGY PREDICTED BY IDOCK:   -5.38 KCAL/MOL
REMARK 923 INTER-LIGAND FREE ENERGY PREDICTED BY IDOCK:   -4.92 KCAL/MOL
REMARK 924 INTRA-LIGAND FREE ENERGY PREDICTED BY IDOCK:   -0.46 KCAL/MOL
REMARK 927      BINDING AFFINITY PREDICTED BY RF-SCORE:    0.00 PKD
ROOT
HETATM    1  C   UNL     1     -10.311   9.704  67.708  1.00  0.00    -0.236 C  
HETATM    2  S   UNL     1      -9.809   9.588  65.939  1.00  0.00    -0.261 SA 
HETATM    3  C   UNL     1      -8.259   8.650  66.276  1.00  0.00    -0.116 C  
HETATM    4  CA  UNL     1      -8.503   7.964  67.644  1.00  0.00    -0.127 C  
HETATM    5  C   UNL     1      -7.103   9.669  66.331  1.00  0.00    -0.093 C  
HETATM    6  C   UNL     1      -7.971   7.714  65.099  1.00  0.00    -0.130 C  
HETATM    7  N   UNL     1      -9.329   8.887  68.454  1.00  0.00    -0.136 N  
HETATM    8  C   UNL     1      -9.239   6.612  67.590  1.00  0.00    -0.110 C  
HETATM    9  C   UNL     1      -8.743   9.971  69.055  1.00  0.00    -0.158 C  
HETATM   10  OXT UNL     1      -8.900   5.658  66.907  1.00  0.00    -0.113 OA 
HETATM   11  O   UNL     1     -10.285   6.526  68.453  1.00  0.00    -0.150 OA 
HETATM   12  CA  UNL     1      -9.829  10.936  68.523  1.00  0.00    -0.184 C  
HETATM   13  O   UNL     1      -7.674  10.081  69.610  1.00  0.00    -0.121 OA 
ENDROOT
BRANCH  12  14
HETATM   14  N   UNL     1      -9.367  12.118  67.740  1.00  0.00    -0.186 N  
HETATM   15  C   UNL     1     -10.221  13.183  67.567  1.00  0.00    -0.225 C  
HETATM   16  H   UNL     1      -8.430  12.137  67.337  1.00  0.00     0.000 HD 
HETATM   17  C   UNL     1      -9.763  14.289  66.636  1.00  0.00    -0.297 C  
HETATM   18  O   UNL     1     -11.306  13.236  68.154  1.00  0.00    -0.255 OA 
HETATM   19  C   UNL     1     -10.895  14.881  65.806  1.00  0.00    -0.339 C  
HETATM   20  C   UNL     1      -8.992  15.373  67.374  1.00  0.00    -0.202 A  
HETATM   21  O   UNL     1     -12.143  14.801  66.322  1.00  0.00    -0.249 OA 
HETATM   22  C   UNL     1      -8.033  16.134  66.683  1.00  0.00    -0.305 A  
HETATM   23  O   UNL     1     -10.697  15.436  64.729  1.00  0.00    -0.415 OA 
HETATM   24  C   UNL     1      -7.338  17.156  67.331  1.00  0.00    -0.176 A  
HETATM   25  C   UNL     1      -7.587  17.433  68.673  1.00  0.00    -0.265 A  
HETATM   26  C   UNL     1      -8.535  16.690  69.370  1.00  0.00     0.141 A  
HETATM   27  C   UNL     1      -9.238  15.673  68.725  1.00  0.00    -0.211 A  
ENDBRANCH  12  14
TORSDOF 1
ENDMDL
MODEL       70
REMARK 921   NORMALIZED FREE ENERGY PREDICTED BY IDOCK:   -4.65 KCAL/MOL
REMARK 922        TOTAL FREE ENERGY PREDICTED BY IDOCK:   -5.37 KCAL/MOL
REMARK 923 INTER-LIGAND FREE ENERGY PREDICTED BY IDOCK:   -4.87 KCAL/MOL
REMARK 924 INTRA-LIGAND FREE ENERGY PREDICTED BY IDOCK:   -0.49 KCAL/MOL
REMARK 927      BINDING AFFINITY PREDICTED BY RF-SCORE:    0.00 PKD
ROOT
HETATM    1  C   UNL     1      -6.995   8.237  69.680  1.00  0.00    -0.045 C  
HETATM    2  S   UNL     1      -6.758   9.157  71.258  1.00  0.00    -0.037 SA 
HETATM    3  C   UNL     1      -7.662   7.929  72.293  1.00  0.00    -0.104 C  
HETATM    4  CA  UNL     1      -7.582   6.604  71.493  1.00  0.00    -0.089 C  
HETATM    5  C   UNL     1      -9.111   8.431  72.449  1.00  0.00    -0.326 C  
HETATM    6  C   UNL     1      -7.047   7.903  73.696  1.00  0.00    -0.139 C  
HETATM    7  N   UNL     1      -7.634   6.958  70.057  1.00  0.00    -0.097 N  
HETATM    8  C   UNL     1      -6.309   5.767  71.716  1.00  0.00    -0.048 C  
HETATM    9  C   UNL     1      -8.836   7.281  69.483  1.00  0.00    -0.137 C  
HETATM   10  OXT UNL     1      -5.889   5.408  72.805  1.00  0.00    -0.022 OA 
HETATM   11  O   UNL     1      -5.708   5.371  70.563  1.00  0.00    -0.018 OA 
HETATM   12  CA  UNL     1      -8.257   8.559  68.831  1.00  0.00    -0.117 C  
HETATM   13  O   UNL     1      -9.937   6.803  69.636  1.00  0.00    -0.170 OA 
ENDROOT
BRANCH  12  14
HETATM   14  N   UNL     1      -8.949   9.848  69.122  1.00  0.00    -0.157 N  
HETATM   15  C   UNL     1     -10.115  10.147  68.457  1.00  0.00    -0.169 C  
HETATM   16  H   UNL     1      -8.562  10.499  69.806  1.00  0.00     0.000 HD 
HETATM   17  C   UNL     1     -10.694  11.533  68.672  1.00  0.00    -0.242 C  
HETATM   18  O   UNL     1     -10.668   9.319  67.727  1.00  0.00    -0.259 OA 
HETATM   19  C   UNL     1     -11.317  12.124  67.414  1.00  0.00    -0.326 C  
HETATM   20  C   UNL     1     -11.667  11.569  69.842  1.00  0.00    -0.420 A  
HETATM   21  O   UNL     1     -11.776  11.254  66.487  1.00  0.00    -0.323 OA 
HETATM   22  C   UNL     1     -11.857  12.769  70.548  1.00  0.00    -0.142 A  
HETATM   23  O   UNL     1     -11.431  13.336  67.247  1.00  0.00    -0.304 OA 
HETATM   24  C   UNL     1     -12.769  12.834  71.602  1.00  0.00    -0.293 A  
HETATM   25  C   UNL     1     -13.502  11.707  71.966  1.00  0.00    -0.304 A  
HETATM   26  C   UNL     1     -13.328  10.513  71.274  1.00  0.00    -0.290 A  
HETATM   27  C   UNL     1     -12.424  10.445  70.215  1.00  0.00    -0.296 A  
ENDBRANCH  12  14
TORSDOF 1
ENDMDL
MODEL       71
REMARK 921   NORMALIZED FREE ENERGY PREDICTED BY IDOCK:   -4.63 KCAL/MOL
REMARK 922        TOTAL FREE ENERGY PREDICTED BY IDOCK:   -5.34 KCAL/MOL
REMARK 923 INTER-LIGAND FREE ENERGY PREDICTED BY IDOCK:   -4.89 KCAL/MOL
REMARK 924 INTRA-LIGAND FREE ENERGY PREDICTED BY IDOCK:   -0.45 KCAL/MOL
REMARK 927      BINDING AFFINITY PREDICTED BY RF-SCORE:    0.00 PKD
ROOT
HETATM    1  C   UNL     1     -11.104  11.057  66.983  1.00  0.00    -0.244 C  
HETATM    2  S   UNL     1     -10.079  11.588  68.419  1.00  0.00    -0.208 SA 
HETATM    3  C   UNL     1      -9.132  12.858  67.476  1.00  0.00    -0.191 C  
HETATM    4  CA  UNL     1     -10.046  13.222  66.279  1.00  0.00    -0.294 C  
HETATM    5  C   UNL     1      -7.808  12.209  67.025  1.00  0.00    -0.123 C  
HETATM    6  C   UNL     1      -8.765  14.011  68.414  1.00  0.00    -0.179 C  
HETATM    7  N   UNL     1     -10.762  11.988  65.886  1.00  0.00    -0.266 N  
HETATM    8  C   UNL     1     -11.107  14.303  66.555  1.00  0.00    -0.323 C  
HETATM    9  C   UNL     1     -10.110  11.031  65.151  1.00  0.00    -0.289 C  
HETATM   10  OXT UNL     1     -10.874  15.409  67.016  1.00  0.00    -0.315 OA 
HETATM   11  O   UNL     1     -12.358  13.954  66.155  1.00  0.00    -0.452 OA 
HETATM   12  CA  UNL     1     -10.571   9.897  66.097  1.00  0.00     0.020 C  
HETATM   13  O   UNL     1      -9.328  11.139  64.234  1.00  0.00    -0.210 OA 
ENDROOT
BRANCH  12  14
HETATM   14  N   UNL     1      -9.512   9.032  66.692  1.00  0.00    -0.177 N  
HETATM   15  C   UNL     1      -9.857   7.798  67.192  1.00  0.00    -0.206 C  
HETATM   16  H   UNL     1      -8.543   9.351  66.728  1.00  0.00     0.000 HD 
HETATM   17  C   UNL     1      -8.777   7.025  67.925  1.00  0.00    -0.125 C  
HETATM   18  O   UNL     1     -10.993   7.340  67.040  1.00  0.00    -0.358 OA 
HETATM   19  C   UNL     1      -9.305   6.248  69.124  1.00  0.00    -0.131 C  
HETATM   20  C   UNL     1      -7.985   6.125  66.987  1.00  0.00    -0.102 A  
HETATM   21  O   UNL     1     -10.605   5.878  69.094  1.00  0.00    -0.237 OA 
HETATM   22  C   UNL     1      -6.657   5.792  67.304  1.00  0.00    -0.056 A  
HETATM   23  O   UNL     1      -8.586   5.939  70.071  1.00  0.00    -0.126 OA 
HETATM   24  C   UNL     1      -5.922   4.941  66.477  1.00  0.00    -0.023 A  
HETATM   25  C   UNL     1      -6.499   4.412  65.325  1.00  0.00    -0.036 A  
HETATM   26  C   UNL     1      -7.814   4.730  64.999  1.00  0.00    -0.094 A  
HETATM   27  C   UNL     1      -8.555   5.573  65.827  1.00  0.00    -0.145 A  
ENDBRANCH  12  14
TORSDOF 1
ENDMDL
MODEL       72
REMARK 921   NORMALIZED FREE ENERGY PREDICTED BY IDOCK:   -4.62 KCAL/MOL
REMARK 922        TOTAL FREE ENERGY PREDICTED BY IDOCK:   -5.33 KCAL/MOL
REMARK 923 INTER-LIGAND FREE ENERGY PREDICTED BY IDOCK:   -4.88 KCAL/MOL
REMARK 924 INTRA-LIGAND FREE ENERGY PREDICTED BY IDOCK:   -0.45 KCAL/MOL
REMARK 927      BINDING AFFINITY PREDICTED BY RF-SCORE:    0.00 PKD
ROOT
HETATM    1  C   UNL     1      -7.662  16.306  66.631  1.00  0.00    -0.251 C  
HETATM    2  S   UNL     1      -9.374  16.656  66.045  1.00  0.00    -0.174 SA 
HETATM    3  C   UNL     1      -9.953  17.343  67.654  1.00  0.00    -0.300 C  
HETATM    4  CA  UNL     1      -8.662  17.816  68.369  1.00  0.00    -0.292 C  
HETATM    5  C   UNL     1     -10.660  16.204  68.417  1.00  0.00    -0.286 C  
HETATM    6  C   UNL     1     -11.007  18.422  67.390  1.00  0.00    -0.163 C  
HETATM    7  N   UNL     1      -7.586  16.872  67.995  1.00  0.00    -0.174 N  
HETATM    8  C   UNL     1      -8.180  19.232  68.005  1.00  0.00    -0.311 C  
HETATM    9  C   UNL     1      -7.521  15.643  68.601  1.00  0.00    -0.130 C  
HETATM   10  OXT UNL     1      -8.864  20.242  68.067  1.00  0.00    -0.227 OA 
HETATM   11  O   UNL     1      -6.863  19.292  67.677  1.00  0.00    -0.213 OA 
HETATM   12  CA  UNL     1      -7.375  14.909  67.248  1.00  0.00    -0.140 C  
HETATM   13  O   UNL     1      -7.713  15.322  69.752  1.00  0.00    -0.204 OA 
ENDROOT
BRANCH  12  14
HETATM   14  N   UNL     1      -8.357  13.829  66.947  1.00  0.00    -0.418 N  
HETATM   15  C   UNL     1      -7.913  12.532  66.832  1.00  0.00    -0.008 C  
HETATM   16  H   UNL     1      -9.347  14.049  66.828  1.00  0.00     0.000 HD 
HETATM   17  C   UNL     1      -8.923  11.497  66.372  1.00  0.00    -0.200 C  
HETATM   18  O   UNL     1      -6.748  12.227  67.101  1.00  0.00    -0.149 OA 
HETATM   19  C   UNL     1      -8.323  10.442  65.451  1.00  0.00    -0.165 C  
HETATM   20  C   UNL     1      -9.656  10.858  67.543  1.00  0.00    -0.171 A  
HETATM   21  O   UNL     1      -6.999  10.197  65.576  1.00  0.00    -0.117 OA 
HETATM   22  C   UNL     1     -10.951  10.346  67.352  1.00  0.00    -0.335 A  
HETATM   23  O   UNL     1      -9.003   9.812  64.646  1.00  0.00    -0.199 OA 
HETATM   24  C   UNL     1     -11.630   9.725  68.402  1.00  0.00     0.376 A  
HETATM   25  C   UNL     1     -11.029   9.607  69.653  1.00  0.00    -0.253 A  
HETATM   26  C   UNL     1      -9.746  10.105  69.856  1.00  0.00    -0.195 A  
HETATM   27  C   UNL     1      -9.061  10.719  68.808  1.00  0.00    -0.180 A  
ENDBRANCH  12  14
TORSDOF 1
ENDMDL
MODEL       73
REMARK 921   NORMALIZED FREE ENERGY PREDICTED BY IDOCK:   -4.60 KCAL/MOL
REMARK 922        TOTAL FREE ENERGY PREDICTED BY IDOCK:   -5.32 KCAL/MOL
REMARK 923 INTER-LIGAND FREE ENERGY PREDICTED BY IDOCK:   -4.80 KCAL/MOL
REMARK 924 INTRA-LIGAND FREE ENERGY PREDICTED BY IDOCK:   -0.52 KCAL/MOL
REMARK 927      BINDING AFFINITY PREDICTED BY RF-SCORE:    0.00 PKD
ROOT
HETATM    1  C   UNL     1     -10.001  10.050  66.395  1.00  0.00    -0.237 C  
HETATM    2  S   UNL     1      -8.627  11.088  67.049  1.00  0.00    -0.144 SA 
HETATM    3  C   UNL     1      -7.287   9.989  66.420  1.00  0.00    -0.104 C  
HETATM    4  CA  UNL     1      -7.933   9.213  65.245  1.00  0.00    -0.111 C  
HETATM    5  C   UNL     1      -6.869   9.059  67.577  1.00  0.00    -0.077 C  
HETATM    6  C   UNL     1      -6.063  10.839  66.069  1.00  0.00    -0.133 C  
HETATM    7  N   UNL     1      -9.352   8.985  65.601  1.00  0.00    -0.238 N  
HETATM    8  C   UNL     1      -7.908   9.926  63.881  1.00  0.00    -0.148 C  
HETATM    9  C   UNL     1      -9.677   7.993  66.490  1.00  0.00    -0.227 C  
HETATM   10  OXT UNL     1      -6.907  10.372  63.343  1.00  0.00    -0.119 OA 
HETATM   11  O   UNL     1      -9.114   9.950  63.256  1.00  0.00    -0.247 OA 
HETATM   12  CA  UNL     1     -10.578   8.939  67.317  1.00  0.00    -0.234 C  
HETATM   13  O   UNL     1      -9.230   6.877  66.623  1.00  0.00    -0.147 OA 
ENDROOT
BRANCH  12  14
HETATM   14  N   UNL     1     -10.285   9.060  68.774  1.00  0.00    -0.203 N  
HETATM   15  C   UNL     1     -10.748   8.091  69.634  1.00  0.00    -0.207 C  
HETATM   16  H   UNL     1      -9.748   9.852  69.130  1.00  0.00     0.000 HD 
HETATM   17  C   UNL     1     -10.559   8.340  71.118  1.00  0.00    -0.258 C  
HETATM   18  O   UNL     1     -11.283   7.062  69.211  1.00  0.00    -0.170 OA 
HETATM   19  C   UNL     1     -11.730   7.851  71.962  1.00  0.00    -0.311 C  
HETATM   20  C   UNL     1      -9.238   7.780  71.626  1.00  0.00    -0.168 A  
HETATM   21  O   UNL     1     -12.471   6.838  71.457  1.00  0.00    -0.355 OA 
HETATM   22  C   UNL     1      -8.623   8.364  72.747  1.00  0.00    -0.240 A  
HETATM   23  O   UNL     1     -11.985   8.324  73.066  1.00  0.00    -0.265 OA 
HETATM   24  C   UNL     1      -7.430   7.847  73.251  1.00  0.00    -0.157 A  
HETATM   25  C   UNL     1      -6.833   6.742  72.647  1.00  0.00    -0.063 A  
HETATM   26  C   UNL     1      -7.432   6.150  71.540  1.00  0.00    -0.094 A  
HETATM   27  C   UNL     1      -8.629   6.659  71.037  1.00  0.00    -0.137 A  
ENDBRANCH  12  14
TORSDOF 1
ENDMDL
MODEL       74
REMARK 921   NORMALIZED FREE ENERGY PREDICTED BY IDOCK:   -4.60 KCAL/MOL
REMARK 922        TOTAL FREE ENERGY PREDICTED BY IDOCK:   -5.31 KCAL/MOL
REMARK 923 INTER-LIGAND FREE ENERGY PREDICTED BY IDOCK:   -4.78 KCAL/MOL
REMARK 924 INTRA-LIGAND FREE ENERGY PREDICTED BY IDOCK:   -0.53 KCAL/MOL
REMARK 927      BINDING AFFINITY PREDICTED BY RF-SCORE:    0.00 PKD
ROOT
HETATM    1  C   UNL     1      -7.299   7.856  68.194  1.00  0.00    -0.099 C  
HETATM    2  S   UNL     1      -8.955   7.667  68.979  1.00  0.00    -0.136 SA 
HETATM    3  C   UNL     1      -9.798   7.110  67.438  1.00  0.00    -0.155 C  
HETATM    4  CA  UNL     1      -8.664   6.532  66.555  1.00  0.00    -0.134 C  
HETATM    5  C   UNL     1     -10.462   8.348  66.801  1.00  0.00    -0.315 C  
HETATM    6  C   UNL     1     -10.925   6.140  67.803  1.00  0.00    -0.400 C  
HETATM    7  N   UNL     1      -7.452   7.341  66.816  1.00  0.00    -0.090 N  
HETATM    8  C   UNL     1      -8.301   5.059  66.818  1.00  0.00    -0.107 C  
HETATM    9  C   UNL     1      -7.327   8.578  66.240  1.00  0.00    -0.079 C  
HETATM   10  OXT UNL     1      -9.095   4.131  66.815  1.00  0.00    -0.120 OA 
HETATM   11  O   UNL     1      -6.968   4.846  66.976  1.00  0.00    -0.058 OA 
HETATM   12  CA  UNL     1      -6.936   9.238  67.583  1.00  0.00    -0.078 C  
HETATM   13  O   UNL     1      -7.620   8.964  65.131  1.00  0.00    -0.094 OA 
ENDROOT
BRANCH  12  14
HETATM   14  N   UNL     1      -7.750  10.404  68.033  1.00  0.00    -0.092 N  
HETATM   15  C   UNL     1      -7.472  11.651  67.524  1.00  0.00    -0.123 C  
HETATM   16  H   UNL     1      -8.502  10.278  68.711  1.00  0.00     0.000 HD 
HETATM   17  C   UNL     1      -8.222  12.824  68.129  1.00  0.00    -0.167 C  
HETATM   18  O   UNL     1      -6.657  11.804  66.610  1.00  0.00    -0.103 OA 
HETATM   19  C   UNL     1      -7.369  14.080  68.253  1.00  0.00    -0.115 C  
HETATM   20  C   UNL     1      -9.524  13.108  67.393  1.00  0.00    -0.214 A  
HETATM   21  O   UNL     1      -6.338  14.212  67.388  1.00  0.00    -0.324 OA 
HETATM   22  C   UNL     1     -10.589  13.714  68.081  1.00  0.00    -0.255 A  
HETATM   23  O   UNL     1      -7.612  14.957  69.077  1.00  0.00    -0.131 OA 
HETATM   24  C   UNL     1     -11.780  14.016  67.419  1.00  0.00    -0.421 A  
HETATM   25  C   UNL     1     -11.925  13.717  66.066  1.00  0.00    -0.447 A  
HETATM   26  C   UNL     1     -10.878  13.120  65.371  1.00  0.00    -0.299 A  
HETATM   27  C   UNL     1      -9.684  12.824  66.027  1.00  0.00    -0.226 A  
ENDBRANCH  12  14
TORSDOF 1
ENDMDL
MODEL       75
REMARK 921   NORMALIZED FREE ENERGY PREDICTED BY IDOCK:   -4.56 KCAL/MOL
REMARK 922        TOTAL FREE ENERGY PREDICTED BY IDOCK:   -5.27 KCAL/MOL
REMARK 923 INTER-LIGAND FREE ENERGY PREDICTED BY IDOCK:   -4.86 KCAL/MOL
REMARK 924 INTRA-LIGAND FREE ENERGY PREDICTED BY IDOCK:   -0.41 KCAL/MOL
REMARK 927      BINDING AFFINITY PREDICTED BY RF-SCORE:    0.00 PKD
ROOT
HETATM    1  C   UNL     1     -10.310  14.107  66.837  1.00  0.00    -0.269 C  
HETATM    2  S   UNL     1     -11.943  13.445  67.374  1.00  0.00    -0.308 SA 
HETATM    3  C   UNL     1     -11.508  13.388  69.165  1.00  0.00    -0.300 C  
HETATM    4  CA  UNL     1     -10.367  14.424  69.326  1.00  0.00    -0.102 C  
HETATM    5  C   UNL     1     -11.044  11.952  69.484  1.00  0.00    -0.169 C  
HETATM    6  C   UNL     1     -12.768  13.643  69.996  1.00  0.00    -0.044 C  
HETATM    7  N   UNL     1      -9.565  14.386  68.084  1.00  0.00    -0.212 N  
HETATM    8  C   UNL     1     -10.816  15.881  69.542  1.00  0.00    -0.305 C  
HETATM    9  C   UNL     1      -8.668  13.368  67.887  1.00  0.00    -0.187 C  
HETATM   10  OXT UNL     1     -11.593  16.253  70.407  1.00  0.00    -0.322 OA 
HETATM   11  O   UNL     1     -10.196  16.769  68.722  1.00  0.00    -0.261 OA 
HETATM   12  CA  UNL     1      -9.198  13.088  66.461  1.00  0.00    -0.181 C  
HETATM   13  O   UNL     1      -7.913  12.823  68.659  1.00  0.00    -0.114 OA 
ENDROOT
BRANCH  12  14
HETATM   14  N   UNL     1      -9.640  11.697  66.157  1.00  0.00    -0.226 N  
HETATM   15  C   UNL     1      -8.692  10.714  65.988  1.00  0.00    -0.177 C  
HETATM   16  H   UNL     1     -10.633  11.476  66.075  1.00  0.00     0.000 HD 
HETATM   17  C   UNL     1      -9.184   9.355  65.528  1.00  0.00    -0.292 C  
HETATM   18  O   UNL     1      -7.498  10.931  66.212  1.00  0.00    -0.139 OA 
HETATM   19  C   UNL     1      -8.231   8.670  64.557  1.00  0.00    -0.164 C  
HETATM   20  C   UNL     1      -9.528   8.447  66.700  1.00  0.00    -0.267 A  
HETATM   21  O   UNL     1      -6.925   9.010  64.634  1.00  0.00    -0.083 OA 
HETATM   22  C   UNL     1     -10.489   7.435  66.534  1.00  0.00    -0.031 A  
HETATM   23  O   UNL     1      -8.611   7.822  63.754  1.00  0.00     0.158 OA 
HETATM   24  C   UNL     1     -10.797   6.569  67.584  1.00  0.00    -0.419 A  
HETATM   25  C   UNL     1     -10.152   6.700  68.812  1.00  0.00    -0.168 A  
HETATM   26  C   UNL     1      -9.196   7.694  68.991  1.00  0.00    -0.140 A  
HETATM   27  C   UNL     1      -8.880   8.556  67.942  1.00  0.00    -0.137 A  
ENDBRANCH  12  14
TORSDOF 1
ENDMDL
MODEL       76
REMARK 921   NORMALIZED FREE ENERGY PREDICTED BY IDOCK:   -4.56 KCAL/MOL
REMARK 922        TOTAL FREE ENERGY PREDICTED BY IDOCK:   -5.27 KCAL/MOL
REMARK 923 INTER-LIGAND FREE ENERGY PREDICTED BY IDOCK:   -4.76 KCAL/MOL
REMARK 924 INTRA-LIGAND FREE ENERGY PREDICTED BY IDOCK:   -0.51 KCAL/MOL
REMARK 927      BINDING AFFINITY PREDICTED BY RF-SCORE:    0.00 PKD
ROOT
HETATM    1  C   UNL     1      -8.482  11.100  67.205  1.00  0.00    -0.137 C  
HETATM    2  S   UNL     1      -7.462   9.893  66.258  1.00  0.00    -0.106 SA 
HETATM    3  C   UNL     1      -8.895   9.115  65.399  1.00  0.00    -0.196 C  
HETATM    4  CA  UNL     1     -10.005  10.196  65.426  1.00  0.00    -0.307 C  
HETATM    5  C   UNL     1      -9.286   7.855  66.199  1.00  0.00    -0.208 C  
HETATM    6  C   UNL     1      -8.454   8.641  64.012  1.00  0.00    -0.080 C  
HETATM    7  N   UNL     1      -9.862  10.936  66.700  1.00  0.00    -0.192 N  
HETATM    8  C   UNL     1      -9.957  11.228  64.285  1.00  0.00    -0.297 C  
HETATM    9  C   UNL     1     -10.321  10.376  67.864  1.00  0.00    -0.190 C  
HETATM   10  OXT UNL     1      -9.926  10.955  63.095  1.00  0.00    -0.327 OA 
HETATM   11  O   UNL     1     -10.039  12.516  64.710  1.00  0.00    -0.278 OA 
HETATM   12  CA  UNL     1      -8.999  10.675  68.608  1.00  0.00    -0.170 C  
HETATM   13  O   UNL     1     -11.322   9.734  68.088  1.00  0.00    -0.097 OA 
ENDROOT
BRANCH  12  14
HETATM   14  N   UNL     1      -8.305   9.526  69.257  1.00  0.00    -0.121 N  
HETATM   15  C   UNL     1      -8.755   9.074  70.476  1.00  0.00    -0.207 C  
HETATM   16  H   UNL     1      -7.507   9.081  68.803  1.00  0.00     0.000 HD 
HETATM   17  C   UNL     1      -7.922   8.009  71.164  1.00  0.00    -0.095 C  
HETATM   18  O   UNL     1      -9.794   9.511  70.978  1.00  0.00    -0.268 OA 
HETATM   19  C   UNL     1      -7.864   8.179  72.677  1.00  0.00    -0.141 C  
HETATM   20  C   UNL     1      -8.365   6.604  70.782  1.00  0.00    -0.129 A  
HETATM   21  O   UNL     1      -8.898   8.821  73.265  1.00  0.00    -0.280 OA 
HETATM   22  C   UNL     1      -7.437   5.550  70.824  1.00  0.00    -0.088 A  
HETATM   23  O   UNL     1      -6.939   7.733  73.351  1.00  0.00    -0.079 OA 
HETATM   24  C   UNL     1      -7.829   4.247  70.511  1.00  0.00    -0.052 A  
HETATM   25  C   UNL     1      -9.147   3.979  70.151  1.00  0.00    -0.186 A  
HETATM   26  C   UNL     1     -10.078   5.011  70.108  1.00  0.00    -0.338 A  
HETATM   27  C   UNL     1      -9.693   6.313  70.428  1.00  0.00    -0.189 A  
ENDBRANCH  12  14
TORSDOF 1
ENDMDL
MODEL       77
REMARK 921   NORMALIZED FREE ENERGY PREDICTED BY IDOCK:   -4.54 KCAL/MOL
REMARK 922        TOTAL FREE ENERGY PREDICTED BY IDOCK:   -5.25 KCAL/MOL
REMARK 923 INTER-LIGAND FREE ENERGY PREDICTED BY IDOCK:   -4.81 KCAL/MOL
REMARK 924 INTRA-LIGAND FREE ENERGY PREDICTED BY IDOCK:   -0.44 KCAL/MOL
REMARK 927      BINDING AFFINITY PREDICTED BY RF-SCORE:    0.00 PKD
ROOT
HETATM    1  C   UNL     1     -10.216   9.232  71.543  1.00  0.00    -0.268 C  
HETATM    2  S   UNL     1      -9.033   9.486  70.154  1.00  0.00    -0.238 SA 
HETATM    3  C   UNL     1     -10.287   9.225  68.829  1.00  0.00    -0.211 C  
HETATM    4  CA  UNL     1     -11.645   9.545  69.504  1.00  0.00     0.209 C  
HETATM    5  C   UNL     1     -10.189   7.753  68.382  1.00  0.00    -0.230 C  
HETATM    6  C   UNL     1      -9.922  10.084  67.615  1.00  0.00    -0.214 C  
HETATM    7  N   UNL     1     -11.547   9.103  70.912  1.00  0.00    -0.281 N  
HETATM    8  C   UNL     1     -12.050  11.031  69.513  1.00  0.00    -0.329 C  
HETATM    9  C   UNL     1     -11.664   7.771  71.214  1.00  0.00    -0.288 C  
HETATM   10  OXT UNL     1     -12.105  11.747  68.526  1.00  0.00    -0.454 OA 
HETATM   11  O   UNL     1     -12.438  11.482  70.735  1.00  0.00    -0.362 OA 
HETATM   12  CA  UNL     1     -10.394   7.790  72.095  1.00  0.00    -0.224 C  
HETATM   13  O   UNL     1     -12.400   6.922  70.763  1.00  0.00    -0.376 OA 
ENDROOT
BRANCH  12  14
HETATM   14  N   UNL     1      -9.319   6.810  71.767  1.00  0.00    -0.148 N  
HETATM   15  C   UNL     1      -9.491   5.488  72.105  1.00  0.00    -0.149 C  
HETATM   16  H   UNL     1      -8.466   7.117  71.297  1.00  0.00     0.000 HD 
HETATM   17  C   UNL     1      -8.308   4.563  71.891  1.00  0.00    -0.108 C  
HETATM   18  O   UNL     1     -10.565   5.076  72.553  1.00  0.00    -0.207 OA 
HETATM   19  C   UNL     1      -8.169   3.507  72.980  1.00  0.00    -0.078 C  
HETATM   20  C   UNL     1      -8.322   3.932  70.506  1.00  0.00    -0.083 A  
HETATM   21  O   UNL     1      -9.294   3.148  73.637  1.00  0.00    -0.091 OA 
HETATM   22  C   UNL     1      -7.110   3.538  69.912  1.00  0.00    -0.041 A  
HETATM   23  O   UNL     1      -7.093   2.974  73.242  1.00  0.00    -0.038 OA 
HETATM   24  C   UNL     1      -7.101   2.926  68.658  1.00  0.00    -0.048 A  
HETATM   25  C   UNL     1      -8.296   2.700  67.979  1.00  0.00    -0.091 A  
HETATM   26  C   UNL     1      -9.504   3.081  68.555  1.00  0.00    -0.204 A  
HETATM   27  C   UNL     1      -9.519   3.685  69.812  1.00  0.00    -0.254 A  
ENDBRANCH  12  14
TORSDOF 1
ENDMDL
MODEL       78
REMARK 921   NORMALIZED FREE ENERGY PREDICTED BY IDOCK:   -4.47 KCAL/MOL
REMARK 922        TOTAL FREE ENERGY PREDICTED BY IDOCK:   -5.17 KCAL/MOL
REMARK 923 INTER-LIGAND FREE ENERGY PREDICTED BY IDOCK:   -4.63 KCAL/MOL
REMARK 924 INTRA-LIGAND FREE ENERGY PREDICTED BY IDOCK:   -0.54 KCAL/MOL
REMARK 927      BINDING AFFINITY PREDICTED BY RF-SCORE:    0.00 PKD
ROOT
HETATM    1  C   UNL     1      -9.217  10.803  69.154  1.00  0.00    -0.116 C  
HETATM    2  S   UNL     1      -8.597  10.440  67.457  1.00  0.00    -0.124 SA 
HETATM    3  C   UNL     1     -10.236   9.913  66.800  1.00  0.00    -0.236 C  
HETATM    4  CA  UNL     1     -11.271  10.599  67.726  1.00  0.00    -0.313 C  
HETATM    5  C   UNL     1     -10.298   8.374  66.890  1.00  0.00    -0.378 C  
HETATM    6  C   UNL     1     -10.322  10.274  65.314  1.00  0.00    -0.218 C  
HETATM    7  N   UNL     1     -10.685  10.635  69.084  1.00  0.00    -0.212 N  
HETATM    8  C   UNL     1     -11.650  12.042  67.348  1.00  0.00    -0.318 C  
HETATM    9  C   UNL     1     -10.686   9.500  69.853  1.00  0.00    -0.240 C  
HETATM   10  OXT UNL     1     -12.050  12.396  66.249  1.00  0.00    -0.612 OA 
HETATM   11  O   UNL     1     -11.586  12.913  68.389  1.00  0.00    -0.289 OA 
HETATM   12  CA  UNL     1      -9.187   9.655  70.201  1.00  0.00    -0.246 C  
HETATM   13  O   UNL     1     -11.531   8.646  69.997  1.00  0.00    -0.107 OA 
ENDROOT
BRANCH  12  14
HETATM   14  N   UNL     1      -8.294   8.499  69.902  1.00  0.00    -0.120 N  
HETATM   15  C   UNL     1      -8.188   7.478  70.819  1.00  0.00    -0.110 C  
HETATM   16  H   UNL     1      -7.767   8.465  69.028  1.00  0.00     0.000 HD 
HETATM   17  C   UNL     1      -7.152   6.406  70.540  1.00  0.00    -0.065 C  
HETATM   18  O   UNL     1      -8.913   7.436  71.817  1.00  0.00    -0.123 OA 
HETATM   19  C   UNL     1      -6.456   5.903  71.798  1.00  0.00    -0.053 C  
HETATM   20  C   UNL     1      -7.728   5.255  69.727  1.00  0.00    -0.073 A  
HETATM   21  O   UNL     1      -7.138   6.004  72.961  1.00  0.00    -0.082 OA 
HETATM   22  C   UNL     1      -6.879   4.496  68.905  1.00  0.00    -0.050 A  
HETATM   23  O   UNL     1      -5.337   5.398  71.770  1.00  0.00    -0.008 OA 
HETATM   24  C   UNL     1      -7.377   3.414  68.177  1.00  0.00    -0.050 A  
HETATM   25  C   UNL     1      -8.726   3.077  68.258  1.00  0.00    -0.141 A  
HETATM   26  C   UNL     1      -9.579   3.818  69.070  1.00  0.00    -0.190 A  
HETATM   27  C   UNL     1      -9.083   4.894  69.805  1.00  0.00    -0.157 A  
ENDBRANCH  12  14
TORSDOF 1
ENDMDL
MODEL       79
REMARK 921   NORMALIZED FREE ENERGY PREDICTED BY IDOCK:   -4.42 KCAL/MOL
REMARK 922        TOTAL FREE ENERGY PREDICTED BY IDOCK:   -5.12 KCAL/MOL
REMARK 923 INTER-LIGAND FREE ENERGY PREDICTED BY IDOCK:   -4.59 KCAL/MOL
REMARK 924 INTRA-LIGAND FREE ENERGY PREDICTED BY IDOCK:   -0.53 KCAL/MOL
REMARK 927      BINDING AFFINITY PREDICTED BY RF-SCORE:    0.00 PKD
ROOT
HETATM    1  C   UNL     1      -9.793  12.536  68.047  1.00  0.00    -0.214 C  
HETATM    2  S   UNL     1      -8.929  12.651  66.424  1.00  0.00     0.033 SA 
HETATM    3  C   UNL     1     -10.367  12.053  65.437  1.00  0.00    -0.266 C  
HETATM    4  CA  UNL     1     -11.604  12.361  66.318  1.00  0.00    -0.393 C  
HETATM    5  C   UNL     1     -10.173  10.540  65.208  1.00  0.00    -0.352 C  
HETATM    6  C   UNL     1     -10.342  12.719  64.058  1.00  0.00    -0.392 C  
HETATM    7  N   UNL     1     -11.193  12.180  67.727  1.00  0.00    -0.256 N  
HETATM    8  C   UNL     1     -12.179  13.783  66.184  1.00  0.00    -0.459 C  
HETATM    9  C   UNL     1     -11.087  10.915  68.245  1.00  0.00    -0.266 C  
HETATM   10  OXT UNL     1     -12.505  14.310  65.132  1.00  0.00    -0.442 OA 
HETATM   11  O   UNL     1     -12.386  14.402  67.376  1.00  0.00    -0.300 OA 
HETATM   12  CA  UNL     1      -9.687  11.201  68.836  1.00  0.00    -0.150 C  
HETATM   13  O   UNL     1     -11.784   9.938  68.087  1.00  0.00     0.031 OA 
ENDROOT
BRANCH  12  14
HETATM   14  N   UNL     1      -8.580  10.281  68.448  1.00  0.00    -0.121 N  
HETATM   15  C   UNL     1      -8.433   9.089  69.119  1.00  0.00    -0.128 C  
HETATM   16  H   UNL     1      -7.939  10.531  67.694  1.00  0.00     0.000 HD 
HETATM   17  C   UNL     1      -7.203   8.262  68.793  1.00  0.00    -0.079 C  
HETATM   18  O   UNL     1      -9.272   8.708  69.940  1.00  0.00    -0.150 OA 
HETATM   19  C   UNL     1      -6.615   7.559  70.010  1.00  0.00    -0.042 C  
HETATM   20  C   UNL     1      -7.460   7.282  67.657  1.00  0.00    -0.101 A  
HETATM   21  O   UNL     1      -7.459   7.281  71.028  1.00  0.00    -0.074 OA 
HETATM   22  C   UNL     1      -6.390   6.865  66.848  1.00  0.00    -0.045 A  
HETATM   23  O   UNL     1      -5.434   7.226  70.066  1.00  0.00    -0.022 OA 
HETATM   24  C   UNL     1      -6.595   5.941  65.822  1.00  0.00    -0.047 A  
HETATM   25  C   UNL     1      -7.867   5.422  65.589  1.00  0.00    -0.100 A  
HETATM   26  C   UNL     1      -8.935   5.823  66.384  1.00  0.00    -0.139 A  
HETATM   27  C   UNL     1      -8.734   6.740  67.416  1.00  0.00    -0.119 A  
ENDBRANCH  12  14
TORSDOF 1
ENDMDL
MODEL       80
REMARK 921   NORMALIZED FREE ENERGY PREDICTED BY IDOCK:   -4.40 KCAL/MOL
REMARK 922        TOTAL FREE ENERGY PREDICTED BY IDOCK:   -5.10 KCAL/MOL
REMARK 923 INTER-LIGAND FREE ENERGY PREDICTED BY IDOCK:   -4.62 KCAL/MOL
REMARK 924 INTRA-LIGAND FREE ENERGY PREDICTED BY IDOCK:   -0.48 KCAL/MOL
REMARK 927      BINDING AFFINITY PREDICTED BY RF-SCORE:    0.00 PKD
ROOT
HETATM    1  C   UNL     1      -8.217  12.233  67.123  1.00  0.00    -0.179 C  
HETATM    2  S   UNL     1      -8.412  11.199  65.611  1.00  0.00     0.033 SA 
HETATM    3  C   UNL     1     -10.241  11.409  65.512  1.00  0.00    -0.264 C  
HETATM    4  CA  UNL     1     -10.528  12.725  66.278  1.00  0.00    -0.257 C  
HETATM    5  C   UNL     1     -10.885  10.183  66.192  1.00  0.00     0.097 C  
HETATM    6  C   UNL     1     -10.671  11.380  64.043  1.00  0.00    -0.450 C  
HETATM    7  N   UNL     1      -9.555  12.805  67.389  1.00  0.00    -0.194 N  
HETATM    8  C   UNL     1     -10.395  14.018  65.453  1.00  0.00    -0.359 C  
HETATM    9  C   UNL     1      -9.753  12.054  68.519  1.00  0.00    -0.161 C  
HETATM   10  OXT UNL     1     -10.964  14.235  64.395  1.00  0.00    -0.330 OA 
HETATM   11  O   UNL     1      -9.635  14.971  66.053  1.00  0.00    -0.295 OA 
HETATM   12  CA  UNL     1      -8.300  11.526  68.505  1.00  0.00    -0.146 C  
HETATM   13  O   UNL     1     -10.768  11.800  69.128  1.00  0.00    -0.202 OA 
ENDROOT
BRANCH  12  14
HETATM   14  N   UNL     1      -8.110  10.048  68.513  1.00  0.00    -0.101 N  
HETATM   15  C   UNL     1      -7.621   9.441  69.646  1.00  0.00    -0.095 C  
HETATM   16  H   UNL     1      -8.340   9.492  67.688  1.00  0.00     0.000 HD 
HETATM   17  C   UNL     1      -7.300   7.961  69.551  1.00  0.00    -0.087 C  
HETATM   18  O   UNL     1      -7.461  10.073  70.694  1.00  0.00    -0.302 OA 
HETATM   19  C   UNL     1      -6.057   7.565  70.339  1.00  0.00    -0.030 C  
HETATM   20  C   UNL     1      -8.493   7.094  69.927  1.00  0.00    -0.140 A  
HETATM   21  O   UNL     1      -5.727   8.340  71.397  1.00  0.00    -0.033 OA 
HETATM   22  C   UNL     1      -8.609   5.803  69.384  1.00  0.00    -0.111 A  
HETATM   23  O   UNL     1      -5.391   6.573  70.056  1.00  0.00    -0.013 OA 
HETATM   24  C   UNL     1      -9.677   4.977  69.740  1.00  0.00    -0.266 A  
HETATM   25  C   UNL     1     -10.641   5.426  70.639  1.00  0.00    -0.302 A  
HETATM   26  C   UNL     1     -10.538   6.700  71.188  1.00  0.00    -0.263 A  
HETATM   27  C   UNL     1      -9.469   7.526  70.841  1.00  0.00    -0.165 A  
ENDBRANCH  12  14
TORSDOF 1
ENDMDL
MODEL       81
REMARK 921   NORMALIZED FREE ENERGY PREDICTED BY IDOCK:   -4.40 KCAL/MOL
REMARK 922        TOTAL FREE ENERGY PREDICTED BY IDOCK:   -5.09 KCAL/MOL
REMARK 923 INTER-LIGAND FREE ENERGY PREDICTED BY IDOCK:   -4.55 KCAL/MOL
REMARK 924 INTRA-LIGAND FREE ENERGY PREDICTED BY IDOCK:   -0.54 KCAL/MOL
REMARK 927      BINDING AFFINITY PREDICTED BY RF-SCORE:    0.00 PKD
ROOT
HETATM    1  C   UNL     1      -9.495   9.375  70.480  1.00  0.00    -0.269 C  
HETATM    2  S   UNL     1      -8.671   9.578  68.845  1.00  0.00    -0.138 SA 
HETATM    3  C   UNL     1     -10.199   9.278  67.859  1.00  0.00    -0.214 C  
HETATM    4  CA  UNL     1     -11.363   9.626  68.821  1.00  0.00     0.144 C  
HETATM    5  C   UNL     1     -10.202   7.791  67.449  1.00  0.00    -0.320 C  
HETATM    6  C   UNL     1     -10.131  10.095  66.566  1.00  0.00    -0.296 C  
HETATM    7  N   UNL     1     -10.937   9.230  70.182  1.00  0.00    -0.241 N  
HETATM    8  C   UNL     1     -11.760  11.112  68.876  1.00  0.00    -0.337 C  
HETATM    9  C   UNL     1     -10.975   7.908  70.546  1.00  0.00    -0.248 C  
HETATM   10  OXT UNL     1     -12.047  11.796  67.906  1.00  0.00    -0.592 OA 
HETATM   11  O   UNL     1     -11.854  11.605  70.139  1.00  0.00    -0.330 OA 
HETATM   12  CA  UNL     1      -9.533   7.952  71.105  1.00  0.00    -0.158 C  
HETATM   13  O   UNL     1     -11.792   7.048  70.307  1.00  0.00    -0.275 OA 
ENDROOT
BRANCH  12  14
HETATM   14  N   UNL     1      -8.561   6.958  70.567  1.00  0.00    -0.140 N  
HETATM   15  C   UNL     1      -8.520   5.696  71.114  1.00  0.00    -0.127 C  
HETATM   16  H   UNL     1      -7.934   7.210  69.802  1.00  0.00     0.000 HD 
HETATM   17  C   UNL     1      -7.412   4.776  70.639  1.00  0.00    -0.057 C  
HETATM   18  O   UNL     1      -9.355   5.332  71.946  1.00  0.00    -0.140 OA 
HETATM   19  C   UNL     1      -6.849   3.895  71.747  1.00  0.00    -0.026 C  
HETATM   20  C   UNL     1      -7.837   3.948  69.435  1.00  0.00    -0.052 A  
HETATM   21  O   UNL     1      -7.668   3.612  72.785  1.00  0.00    -0.062 OA 
HETATM   22  C   UNL     1      -6.863   3.497  68.526  1.00  0.00    -0.046 A  
HETATM   23  O   UNL     1      -5.713   3.430  71.700  1.00  0.00    -0.008 OA 
HETATM   24  C   UNL     1      -7.225   2.708  67.434  1.00  0.00    -0.053 A  
HETATM   25  C   UNL     1      -8.558   2.358  67.231  1.00  0.00    -0.122 A  
HETATM   26  C   UNL     1      -9.532   2.793  68.123  1.00  0.00    -0.217 A  
HETATM   27  C   UNL     1      -9.175   3.576  69.221  1.00  0.00    -0.230 A  
ENDBRANCH  12  14
TORSDOF 1
ENDMDL
MODEL       82
REMARK 921   NORMALIZED FREE ENERGY PREDICTED BY IDOCK:   -4.38 KCAL/MOL
REMARK 922        TOTAL FREE ENERGY PREDICTED BY IDOCK:   -5.08 KCAL/MOL
REMARK 923 INTER-LIGAND FREE ENERGY PREDICTED BY IDOCK:   -4.64 KCAL/MOL
REMARK 924 INTRA-LIGAND FREE ENERGY PREDICTED BY IDOCK:   -0.44 KCAL/MOL
REMARK 927      BINDING AFFINITY PREDICTED BY RF-SCORE:    0.00 PKD
ROOT
HETATM    1  C   UNL     1      -8.436   8.918  69.030  1.00  0.00    -0.133 C  
HETATM    2  S   UNL     1      -7.691   9.597  70.572  1.00  0.00    -0.051 SA 
HETATM    3  C   UNL     1      -8.732   8.587  71.709  1.00  0.00    -0.201 C  
HETATM    4  CA  UNL     1      -9.169   7.366  70.861  1.00  0.00    -0.154 C  
HETATM    5  C   UNL     1      -9.929   9.459  72.139  1.00  0.00     0.779 C  
HETATM    6  C   UNL     1      -7.933   8.272  72.976  1.00  0.00    -0.199 C  
HETATM    7  N   UNL     1      -9.348   7.841  69.471  1.00  0.00    -0.150 N  
HETATM    8  C   UNL     1      -8.175   6.191  70.823  1.00  0.00    -0.125 C  
HETATM    9  C   UNL     1     -10.482   8.534  69.133  1.00  0.00    -0.205 C  
HETATM   10  OXT UNL     1      -7.708   5.638  71.806  1.00  0.00    -0.097 OA 
HETATM   11  O   UNL     1      -7.909   5.742  69.569  1.00  0.00    -0.090 OA 
HETATM   12  CA  UNL     1      -9.670   9.650  68.433  1.00  0.00    -0.150 C  
HETATM   13  O   UNL     1     -11.634   8.370  69.464  1.00  0.00     0.313 OA 
ENDROOT
BRANCH  12  14
HETATM   14  N   UNL     1      -9.903  11.050  68.888  1.00  0.00    -0.252 N  
HETATM   15  C   UNL     1     -11.059  11.694  68.512  1.00  0.00    -0.235 C  
HETATM   16  H   UNL     1      -9.212  11.526  69.470  1.00  0.00     0.000 HD 
HETATM   17  C   UNL     1     -11.175  13.164  68.868  1.00  0.00    -0.324 C  
HETATM   18  O   UNL     1     -11.962  11.096  67.921  1.00  0.00    -0.624 OA 
HETATM   19  C   UNL     1     -11.873  13.988  67.793  1.00  0.00    -0.384 C  
HETATM   20  C   UNL     1     -11.822  13.371  70.230  1.00  0.00    -0.316 A  
HETATM   21  O   UNL     1     -12.743  13.338  66.988  1.00  0.00    -0.023 OA 
HETATM   22  C   UNL     1     -11.517  14.524  70.973  1.00  0.00    -0.140 A  
HETATM   23  O   UNL     1     -11.686  15.195  67.668  1.00  0.00    -0.329 OA 
HETATM   24  C   UNL     1     -12.124  14.752  72.209  1.00  0.00    -0.355 A  
HETATM   25  C   UNL     1     -13.039  13.835  72.721  1.00  0.00    -0.432 A  
HETATM   26  C   UNL     1     -13.353  12.690  71.996  1.00  0.00    -0.555 A  
HETATM   27  C   UNL     1     -12.756  12.463  70.757  1.00  0.00    -0.208 A  
ENDBRANCH  12  14
TORSDOF 1
ENDMDL
MODEL       83
REMARK 921   NORMALIZED FREE ENERGY PREDICTED BY IDOCK:   -4.36 KCAL/MOL
REMARK 922        TOTAL FREE ENERGY PREDICTED BY IDOCK:   -5.05 KCAL/MOL
REMARK 923 INTER-LIGAND FREE ENERGY PREDICTED BY IDOCK:   -5.51 KCAL/MOL
REMARK 924 INTRA-LIGAND FREE ENERGY PREDICTED BY IDOCK:    0.45 KCAL/MOL
REMARK 927      BINDING AFFINITY PREDICTED BY RF-SCORE:    0.00 PKD
ROOT
HETATM    1  C   UNL     1      -8.576  14.318  67.080  1.00  0.00    -0.216 C  
HETATM    2  S   UNL     1     -10.362  14.525  67.477  1.00  0.00    -0.244 SA 
HETATM    3  C   UNL     1     -10.126  16.059  68.471  1.00  0.00    -0.233 C  
HETATM    4  CA  UNL     1      -8.793  16.659  67.958  1.00  0.00    -0.206 C  
HETATM    5  C   UNL     1     -10.049  15.644  69.954  1.00  0.00    -0.272 C  
HETATM    6  C   UNL     1     -11.363  16.949  68.323  1.00  0.00     0.034 C  
HETATM    7  N   UNL     1      -7.908  15.524  67.614  1.00  0.00    -0.143 N  
HETATM    8  C   UNL     1      -8.902  17.554  66.710  1.00  0.00    -0.256 C  
HETATM    9  C   UNL     1      -7.264  14.840  68.613  1.00  0.00    -0.119 C  
HETATM   10  OXT UNL     1      -9.647  18.515  66.601  1.00  0.00    -0.297 OA 
HETATM   11  O   UNL     1      -8.013  17.236  65.732  1.00  0.00    -0.511 OA 
HETATM   12  CA  UNL     1      -7.707  13.469  68.050  1.00  0.00    -0.143 C  
HETATM   13  O   UNL     1      -6.736  15.238  69.627  1.00  0.00    -0.157 OA 
ENDROOT
BRANCH  12  14
HETATM   14  N   UNL     1      -8.435  12.554  68.975  1.00  0.00    -0.268 N  
HETATM   15  C   UNL     1      -9.327  11.645  68.454  1.00  0.00    -0.191 C  
HETATM   16  H   UNL     1      -8.275  12.602  69.982  1.00  0.00     0.000 HD 
HETATM   17  C   UNL     1     -10.155  10.848  69.445  1.00  0.00    -0.116 C  
HETATM   18  O   UNL     1      -9.438  11.483  67.236  1.00  0.00    -0.167 OA 
HETATM   19  C   UNL     1     -11.582  10.604  68.973  1.00  0.00    -0.261 C  
HETATM   20  C   UNL     1      -9.472   9.546  69.840  1.00  0.00    -0.247 A  
HETATM   21  O   UNL     1     -11.797  10.599  67.638  1.00  0.00    -0.411 OA 
HETATM   22  C   UNL     1      -9.745   8.974  71.094  1.00  0.00    -0.369 A  
HETATM   23  O   UNL     1     -12.504  10.390  69.756  1.00  0.00    -0.163 OA 
HETATM   24  C   UNL     1      -9.157   7.764  71.464  1.00  0.00    -0.158 A  
HETATM   25  C   UNL     1      -8.290   7.109  70.593  1.00  0.00    -0.126 A  
HETATM   26  C   UNL     1      -8.012   7.661  69.346  1.00  0.00    -0.125 A  
HETATM   27  C   UNL     1      -8.604   8.867  68.969  1.00  0.00    -0.138 A  
ENDBRANCH  12  14
TORSDOF 1
ENDMDL
MODEL       84
REMARK 921   NORMALIZED FREE ENERGY PREDICTED BY IDOCK:   -4.35 KCAL/MOL
REMARK 922        TOTAL FREE ENERGY PREDICTED BY IDOCK:   -5.04 KCAL/MOL
REMARK 923 INTER-LIGAND FREE ENERGY PREDICTED BY IDOCK:   -4.58 KCAL/MOL
REMARK 924 INTRA-LIGAND FREE ENERGY PREDICTED BY IDOCK:   -0.46 KCAL/MOL
REMARK 927      BINDING AFFINITY PREDICTED BY RF-SCORE:    0.00 PKD
ROOT
HETATM    1  C   UNL     1     -10.430   8.023  69.358  1.00  0.00    -0.220 C  
HETATM    2  S   UNL     1      -8.598   8.092  69.537  1.00  0.00    -0.136 SA 
HETATM    3  C   UNL     1      -8.597   7.648  71.326  1.00  0.00    -0.120 C  
HETATM    4  CA  UNL     1      -9.934   6.896  71.546  1.00  0.00    -0.177 C  
HETATM    5  C   UNL     1      -8.526   8.962  72.129  1.00  0.00     0.074 C  
HETATM    6  C   UNL     1      -7.324   6.860  71.649  1.00  0.00    -0.084 C  
HETATM    7  N   UNL     1     -10.937   7.519  70.653  1.00  0.00    -0.245 N  
HETATM    8  C   UNL     1      -9.910   5.389  71.233  1.00  0.00    -0.179 C  
HETATM    9  C   UNL     1     -11.504   8.717  71.003  1.00  0.00    -0.285 C  
HETATM   10  OXT UNL     1      -9.114   4.590  71.700  1.00  0.00    -0.125 OA 
HETATM   11  O   UNL     1     -10.931   4.982  70.434  1.00  0.00     0.037 OA 
HETATM   12  CA  UNL     1     -11.236   9.328  69.608  1.00  0.00    -0.041 C  
HETATM   13  O   UNL     1     -11.875   9.129  72.079  1.00  0.00    -0.365 OA 
ENDROOT
BRANCH  12  14
HETATM   14  N   UNL     1     -10.471  10.607  69.557  1.00  0.00    -0.307 N  
HETATM   15  C   UNL     1     -10.472  11.343  68.395  1.00  0.00    -0.200 C  
HETATM   16  H   UNL     1      -9.954  10.933  70.375  1.00  0.00     0.000 HD 
HETATM   17  C   UNL     1      -9.556  12.552  68.345  1.00  0.00    -0.176 C  
HETATM   18  O   UNL     1     -11.194  11.036  67.443  1.00  0.00    -0.301 OA 
HETATM   19  C   UNL     1      -8.914  12.760  66.979  1.00  0.00    -0.221 C  
HETATM   20  C   UNL     1     -10.253  13.815  68.829  1.00  0.00    -0.168 A  
HETATM   21  O   UNL     1      -9.579  12.276  65.906  1.00  0.00    -0.240 OA 
HETATM   22  C   UNL     1      -9.492  14.854  69.391  1.00  0.00    -0.068 A  
HETATM   23  O   UNL     1      -7.855  13.366  66.839  1.00  0.00     0.008 OA 
HETATM   24  C   UNL     1     -10.105  16.036  69.810  1.00  0.00    -0.212 A  
HETATM   25  C   UNL     1     -11.482  16.197  69.676  1.00  0.00    -0.290 A  
HETATM   26  C   UNL     1     -12.249  15.179  69.118  1.00  0.00    -0.185 A  
HETATM   27  C   UNL     1     -11.639  14.000  68.691  1.00  0.00    -0.360 A  
ENDBRANCH  12  14
TORSDOF 1
ENDMDL
MODEL       85
REMARK 921   NORMALIZED FREE ENERGY PREDICTED BY IDOCK:   -4.34 KCAL/MOL
REMARK 922        TOTAL FREE ENERGY PREDICTED BY IDOCK:   -5.03 KCAL/MOL
REMARK 923 INTER-LIGAND FREE ENERGY PREDICTED BY IDOCK:   -4.49 KCAL/MOL
REMARK 924 INTRA-LIGAND FREE ENERGY PREDICTED BY IDOCK:   -0.54 KCAL/MOL
REMARK 927      BINDING AFFINITY PREDICTED BY RF-SCORE:    0.00 PKD
ROOT
HETATM    1  C   UNL     1     -10.493   6.403  69.457  1.00  0.00    -0.230 C  
HETATM    2  S   UNL     1      -8.744   5.849  69.624  1.00  0.00    -0.128 SA 
HETATM    3  C   UNL     1      -8.431   6.781  71.183  1.00  0.00    -0.125 C  
HETATM    4  CA  UNL     1      -9.834   6.984  71.808  1.00  0.00    -0.162 C  
HETATM    5  C   UNL     1      -7.762   8.116  70.798  1.00  0.00    -0.080 C  
HETATM    6  C   UNL     1      -7.421   6.008  72.036  1.00  0.00    -0.095 C  
HETATM    7  N   UNL     1     -10.788   7.163  70.692  1.00  0.00    -0.239 N  
HETATM    8  C   UNL     1     -10.350   5.822  72.676  1.00  0.00    -0.198 C  
HETATM    9  C   UNL     1     -10.855   8.370  70.045  1.00  0.00    -0.225 C  
HETATM   10  OXT UNL     1      -9.746   5.327  73.614  1.00  0.00    -0.139 OA 
HETATM   11  O   UNL     1     -11.613   5.429  72.364  1.00  0.00    -0.213 OA 
HETATM   12  CA  UNL     1     -10.772   7.703  68.652  1.00  0.00    -0.059 C  
HETATM   13  O   UNL     1     -10.800   9.499  70.476  1.00  0.00    -0.244 OA 
ENDROOT
BRANCH  12  14
HETATM   14  N   UNL     1      -9.692   8.168  67.735  1.00  0.00    -0.152 N  
HETATM   15  C   UNL     1      -9.909   9.277  66.952  1.00  0.00    -0.214 C  
HETATM   16  H   UNL     1      -8.802   7.669  67.690  1.00  0.00     0.000 HD 
HETATM   17  C   UNL     1      -8.842   9.616  65.927  1.00  0.00    -0.180 C  
HETATM   18  O   UNL     1     -10.922   9.969  67.087  1.00  0.00    -0.226 OA 
HETATM   19  C   UNL     1      -9.415  10.149  64.620  1.00  0.00    -0.297 C  
HETATM   20  C   UNL     1      -7.786  10.554  66.493  1.00  0.00    -0.131 A  
HETATM   21  O   UNL     1     -10.621  10.759  64.680  1.00  0.00    -0.328 OA 
HETATM   22  C   UNL     1      -6.485  10.533  65.961  1.00  0.00    -0.127 A  
HETATM   23  O   UNL     1      -8.808  10.064  63.556  1.00  0.00    -0.194 OA 
HETATM   24  C   UNL     1      -5.509  11.408  66.441  1.00  0.00    -0.129 A  
HETATM   25  C   UNL     1      -5.815  12.312  67.455  1.00  0.00    -0.143 A  
HETATM   26  C   UNL     1      -7.099  12.348  67.989  1.00  0.00    -0.099 A  
HETATM   27  C   UNL     1      -8.080  11.481  67.507  1.00  0.00    -0.137 A  
ENDBRANCH  12  14
TORSDOF 1
ENDMDL
MODEL       86
REMARK 921   NORMALIZED FREE ENERGY PREDICTED BY IDOCK:   -4.31 KCAL/MOL
REMARK 922        TOTAL FREE ENERGY PREDICTED BY IDOCK:   -5.00 KCAL/MOL
REMARK 923 INTER-LIGAND FREE ENERGY PREDICTED BY IDOCK:   -4.54 KCAL/MOL
REMARK 924 INTRA-LIGAND FREE ENERGY PREDICTED BY IDOCK:   -0.47 KCAL/MOL
REMARK 927      BINDING AFFINITY PREDICTED BY RF-SCORE:    0.00 PKD
ROOT
HETATM    1  C   UNL     1     -10.416   9.238  69.020  1.00  0.00    -0.216 C  
HETATM    2  S   UNL     1      -8.709   9.904  69.216  1.00  0.00    -0.182 SA 
HETATM    3  C   UNL     1      -8.260   9.711  67.439  1.00  0.00    -0.114 C  
HETATM    4  CA  UNL     1      -9.616   9.708  66.688  1.00  0.00    -0.187 C  
HETATM    5  C   UNL     1      -7.507   8.374  67.294  1.00  0.00    -0.093 C  
HETATM    6  C   UNL     1      -7.279  10.819  67.045  1.00  0.00    -0.109 C  
HETATM    7  N   UNL     1     -10.599   9.036  67.567  1.00  0.00    -0.266 N  
HETATM    8  C   UNL     1     -10.184  11.094  66.333  1.00  0.00    -0.233 C  
HETATM    9  C   UNL     1     -10.600   7.668  67.661  1.00  0.00    -0.224 C  
HETATM   10  OXT UNL     1      -9.581  11.961  65.722  1.00  0.00    -0.236 OA 
HETATM   11  O   UNL     1     -11.485  11.256  66.690  1.00  0.00    -0.373 OA 
HETATM   12  CA  UNL     1     -10.627   7.709  69.207  1.00  0.00    -0.201 C  
HETATM   13  O   UNL     1     -10.440   6.820  66.814  1.00  0.00    -0.248 OA 
ENDROOT
BRANCH  12  14
HETATM   14  N   UNL     1      -9.553   6.968  69.929  1.00  0.00    -0.160 N  
HETATM   15  C   UNL     1      -9.656   6.795  71.290  1.00  0.00    -0.169 C  
HETATM   16  H   UNL     1      -8.751   6.594  69.420  1.00  0.00     0.000 HD 
HETATM   17  C   UNL     1      -8.467   6.173  71.997  1.00  0.00    -0.121 C  
HETATM   18  O   UNL     1     -10.677   7.122  71.902  1.00  0.00    -0.214 OA 
HETATM   19  C   UNL     1      -8.207   6.774  73.372  1.00  0.00    -0.113 C  
HETATM   20  C   UNL     1      -8.574   4.656  72.066  1.00  0.00    -0.124 A  
HETATM   21  O   UNL     1      -9.264   7.318  74.016  1.00  0.00    -0.221 OA 
HETATM   22  C   UNL     1      -7.403   3.883  72.138  1.00  0.00    -0.056 A  
HETATM   23  O   UNL     1      -7.098   6.747  73.900  1.00  0.00    -0.082 OA 
HETATM   24  C   UNL     1      -7.477   2.492  72.237  1.00  0.00    -0.044 A  
HETATM   25  C   UNL     1      -8.715   1.856  72.264  1.00  0.00    -0.082 A  
HETATM   26  C   UNL     1      -9.883   2.609  72.197  1.00  0.00    -0.235 A  
HETATM   27  C   UNL     1      -9.814   3.999  72.107  1.00  0.00    -0.235 A  
ENDBRANCH  12  14
TORSDOF 1
ENDMDL
MODEL       87
REMARK 921   NORMALIZED FREE ENERGY PREDICTED BY IDOCK:   -4.29 KCAL/MOL
REMARK 922        TOTAL FREE ENERGY PREDICTED BY IDOCK:   -4.99 KCAL/MOL
REMARK 923 INTER-LIGAND FREE ENERGY PREDICTED BY IDOCK:   -4.92 KCAL/MOL
REMARK 924 INTRA-LIGAND FREE ENERGY PREDICTED BY IDOCK:   -0.06 KCAL/MOL
REMARK 927      BINDING AFFINITY PREDICTED BY RF-SCORE:    0.00 PKD
ROOT
HETATM    1  C   UNL     1      -7.835  11.404  67.129  1.00  0.00    -0.156 C  
HETATM    2  S   UNL     1      -6.671  10.473  68.211  1.00  0.00    -0.060 SA 
HETATM    3  C   UNL     1      -6.793   8.900  67.258  1.00  0.00    -0.077 C  
HETATM    4  CA  UNL     1      -7.243   9.333  65.840  1.00  0.00    -0.091 C  
HETATM    5  C   UNL     1      -7.841   8.013  67.960  1.00  0.00    -0.126 C  
HETATM    6  C   UNL     1      -5.456   8.158  67.340  1.00  0.00    -0.037 C  
HETATM    7  N   UNL     1      -8.145  10.495  66.004  1.00  0.00    -0.144 N  
HETATM    8  C   UNL     1      -6.114   9.757  64.883  1.00  0.00    -0.091 C  
HETATM    9  C   UNL     1      -9.442  10.294  66.401  1.00  0.00    -0.174 C  
HETATM   10  OXT UNL     1      -5.130   9.084  64.620  1.00  0.00    -0.044 OA 
HETATM   11  O   UNL     1      -6.342  10.945  64.263  1.00  0.00     0.188 OA 
HETATM   12  CA  UNL     1      -9.346  11.383  67.495  1.00  0.00    -0.164 C  
HETATM   13  O   UNL     1     -10.236   9.435  66.093  1.00  0.00    -0.279 OA 
ENDROOT
BRANCH  12  14
HETATM   14  N   UNL     1      -9.691  10.982  68.889  1.00  0.00    -0.276 N  
HETATM   15  C   UNL     1     -10.967  10.549  69.166  1.00  0.00    -0.240 C  
HETATM   16  H   UNL     1      -8.989  11.029  69.629  1.00  0.00     0.000 HD 
HETATM   17  C   UNL     1     -11.310  10.303  70.623  1.00  0.00    -0.431 C  
HETATM   18  O   UNL     1     -11.789  10.360  68.265  1.00  0.00    -0.324 OA 
HETATM   19  C   UNL     1     -12.734  10.708  70.980  1.00  0.00    -0.415 C  
HETATM   20  C   UNL     1     -11.020   8.868  71.042  1.00  0.00    -0.341 A  
HETATM   21  O   UNL     1     -13.646  10.698  69.981  1.00  0.00     0.294 OA 
HETATM   22  C   UNL     1     -10.721   8.587  72.386  1.00  0.00    -0.376 A  
HETATM   23  O   UNL     1     -13.064  11.005  72.125  1.00  0.00    -0.460 OA 
HETATM   24  C   UNL     1     -10.486   7.275  72.800  1.00  0.00    -0.302 A  
HETATM   25  C   UNL     1     -10.545   6.229  71.883  1.00  0.00    -0.258 A  
HETATM   26  C   UNL     1     -10.844   6.491  70.550  1.00  0.00    -0.323 A  
HETATM   27  C   UNL     1     -11.087   7.799  70.133  1.00  0.00    -0.216 A  
ENDBRANCH  12  14
TORSDOF 1
ENDMDL
MODEL       88
REMARK 921   NORMALIZED FREE ENERGY PREDICTED BY IDOCK:   -4.24 KCAL/MOL
REMARK 922        TOTAL FREE ENERGY PREDICTED BY IDOCK:   -4.93 KCAL/MOL
REMARK 923 INTER-LIGAND FREE ENERGY PREDICTED BY IDOCK:   -4.47 KCAL/MOL
REMARK 924 INTRA-LIGAND FREE ENERGY PREDICTED BY IDOCK:   -0.46 KCAL/MOL
REMARK 927      BINDING AFFINITY PREDICTED BY RF-SCORE:    0.00 PKD
ROOT
HETATM    1  C   UNL     1     -10.192  10.178  67.575  1.00  0.00    -0.211 C  
HETATM    2  S   UNL     1      -8.480  10.188  68.254  1.00  0.00    -0.118 SA 
HETATM    3  C   UNL     1      -7.812  11.340  66.980  1.00  0.00    -0.150 C  
HETATM    4  CA  UNL     1      -9.049  12.116  66.463  1.00  0.00    -0.199 C  
HETATM    5  C   UNL     1      -7.156  10.483  65.878  1.00  0.00    -0.134 C  
HETATM    6  C   UNL     1      -6.700  12.189  67.603  1.00  0.00    -0.118 C  
HETATM    7  N   UNL     1     -10.193  11.178  66.485  1.00  0.00    -0.223 N  
HETATM    8  C   UNL     1      -9.451  13.354  67.286  1.00  0.00    -0.234 C  
HETATM    9  C   UNL     1     -10.317  10.237  65.495  1.00  0.00    -0.169 C  
HETATM   10  OXT UNL     1      -8.703  14.274  67.576  1.00  0.00    -0.177 OA 
HETATM   11  O   UNL     1     -10.771  13.390  67.607  1.00  0.00    -0.243 OA 
HETATM   12  CA  UNL     1     -10.549   9.098  66.515  1.00  0.00    -0.026 C  
HETATM   13  O   UNL     1     -10.113  10.314  64.305  1.00  0.00    -0.310 OA 
ENDROOT
BRANCH  12  14
HETATM   14  N   UNL     1      -9.646   7.915  66.435  1.00  0.00    -0.335 N  
HETATM   15  C   UNL     1     -10.008   6.750  67.072  1.00  0.00    -0.177 C  
HETATM   16  H   UNL     1      -8.770   7.967  65.913  1.00  0.00     0.000 HD 
HETATM   17  C   UNL     1      -8.986   5.629  67.091  1.00  0.00    -0.112 C  
HETATM   18  O   UNL     1     -11.119   6.625  67.595  1.00  0.00    -0.305 OA 
HETATM   19  C   UNL     1      -8.978   4.848  68.398  1.00  0.00    -0.109 C  
HETATM   20  C   UNL     1      -9.135   4.703  65.892  1.00  0.00    -0.135 A  
HETATM   21  O   UNL     1     -10.126   4.830  69.112  1.00  0.00    -0.192 OA 
HETATM   22  C   UNL     1      -8.014   4.000  65.418  1.00  0.00    -0.093 A  
HETATM   23  O   UNL     1      -7.989   4.231  68.787  1.00  0.00    -0.072 OA 
HETATM   24  C   UNL     1      -8.134   3.119  64.342  1.00  0.00    -0.082 A  
HETATM   25  C   UNL     1      -9.368   2.928  63.725  1.00  0.00    -0.106 A  
HETATM   26  C   UNL     1     -10.487   3.614  64.186  1.00  0.00    -0.253 A  
HETATM   27  C   UNL     1     -10.374   4.489  65.266  1.00  0.00    -0.187 A  
ENDBRANCH  12  14
TORSDOF 1
ENDMDL
MODEL       89
REMARK 921   NORMALIZED FREE ENERGY PREDICTED BY IDOCK:   -4.21 KCAL/MOL
REMARK 922        TOTAL FREE ENERGY PREDICTED BY IDOCK:   -4.90 KCAL/MOL
REMARK 923 INTER-LIGAND FREE ENERGY PREDICTED BY IDOCK:   -4.40 KCAL/MOL
REMARK 924 INTRA-LIGAND FREE ENERGY PREDICTED BY IDOCK:   -0.50 KCAL/MOL
REMARK 927      BINDING AFFINITY PREDICTED BY RF-SCORE:    0.00 PKD
ROOT
HETATM    1  C   UNL     1     -10.579   5.384  67.671  1.00  0.00    -0.113 C  
HETATM    2  S   UNL     1     -10.727   4.877  65.906  1.00  0.00    -0.015 SA 
HETATM    3  C   UNL     1      -8.939   4.472  65.708  1.00  0.00    -0.131 C  
HETATM    4  CA  UNL     1      -8.440   4.179  67.146  1.00  0.00    -0.100 C  
HETATM    5  C   UNL     1      -8.251   5.705  65.089  1.00  0.00    -0.136 C  
HETATM    6  C   UNL     1      -8.791   3.328  64.701  1.00  0.00    -0.113 C  
HETATM    7  N   UNL     1      -9.184   5.076  68.057  1.00  0.00    -0.115 N  
HETATM    8  C   UNL     1      -8.651   2.738  67.643  1.00  0.00    -0.100 C  
HETATM    9  C   UNL     1      -8.822   6.395  68.154  1.00  0.00    -0.114 C  
HETATM   10  OXT UNL     1      -8.277   1.734  67.058  1.00  0.00    -0.070 OA 
HETATM   11  O   UNL     1      -9.231   2.664  68.870  1.00  0.00    -0.134 OA 
HETATM   12  CA  UNL     1     -10.281   6.878  67.977  1.00  0.00    -0.176 C  
HETATM   13  O   UNL     1      -7.728   6.913  68.174  1.00  0.00    -0.108 OA 
ENDROOT
BRANCH  12  14
HETATM   14  N   UNL     1     -10.549   7.853  66.881  1.00  0.00    -0.384 N  
HETATM   15  C   UNL     1     -10.238   9.179  67.072  1.00  0.00    -0.263 C  
HETATM   16  H   UNL     1     -10.959   7.540  66.000  1.00  0.00     0.000 HD 
HETATM   17  C   UNL     1     -10.673  10.151  65.991  1.00  0.00     0.033 C  
HETATM   18  O   UNL     1      -9.624   9.555  68.074  1.00  0.00    -0.136 OA 
HETATM   19  C   UNL     1     -11.137  11.492  66.544  1.00  0.00    -0.282 C  
HETATM   20  C   UNL     1      -9.603  10.331  64.924  1.00  0.00    -0.365 A  
HETATM   21  O   UNL     1     -10.633  11.874  67.739  1.00  0.00    -0.195 OA 
HETATM   22  C   UNL     1      -9.981  10.692  63.619  1.00  0.00    -0.364 A  
HETATM   23  O   UNL     1     -11.911  12.221  65.929  1.00  0.00    -0.555 OA 
HETATM   24  C   UNL     1      -9.015  10.896  62.632  1.00  0.00    -0.348 A  
HETATM   25  C   UNL     1      -7.663  10.743  62.931  1.00  0.00     0.022 A  
HETATM   26  C   UNL     1      -7.274  10.391  64.219  1.00  0.00     0.013 A  
HETATM   27  C   UNL     1      -8.234  10.193  65.210  1.00  0.00    -0.157 A  
ENDBRANCH  12  14
TORSDOF 1
ENDMDL
MODEL       90
REMARK 921   NORMALIZED FREE ENERGY PREDICTED BY IDOCK:   -4.15 KCAL/MOL
REMARK 922        TOTAL FREE ENERGY PREDICTED BY IDOCK:   -4.83 KCAL/MOL
REMARK 923 INTER-LIGAND FREE ENERGY PREDICTED BY IDOCK:   -4.39 KCAL/MOL
REMARK 924 INTRA-LIGAND FREE ENERGY PREDICTED BY IDOCK:   -0.44 KCAL/MOL
REMARK 927      BINDING AFFINITY PREDICTED BY RF-SCORE:    0.00 PKD
ROOT
HETATM    1  C   UNL     1     -10.666   8.170  69.697  1.00  0.00    -0.195 C  
HETATM    2  S   UNL     1     -12.123   7.355  70.475  1.00  0.00     0.029 SA 
HETATM    3  C   UNL     1     -12.044   8.344  72.029  1.00  0.00    -0.356 C  
HETATM    4  CA  UNL     1     -11.289   9.638  71.635  1.00  0.00    -0.265 C  
HETATM    5  C   UNL     1     -11.272   7.509  73.071  1.00  0.00    -0.373 C  
HETATM    6  C   UNL     1     -13.462   8.535  72.576  1.00  0.00    -0.261 C  
HETATM    7  N   UNL     1     -10.283   9.263  70.617  1.00  0.00    -0.250 N  
HETATM    8  C   UNL     1     -12.157  10.759  71.035  1.00  0.00    -0.346 C  
HETATM    9  C   UNL     1      -9.119   8.652  71.007  1.00  0.00    -0.199 C  
HETATM   10  OXT UNL     1     -13.158  11.223  71.557  1.00  0.00    -0.417 OA 
HETATM   11  O   UNL     1     -11.661  11.273  69.879  1.00  0.00    -0.289 OA 
HETATM   12  CA  UNL     1      -9.264   7.543  69.939  1.00  0.00    -0.147 C  
HETATM   13  O   UNL     1      -8.406   8.854  71.964  1.00  0.00    -0.367 OA 
ENDROOT
BRANCH  12  14
HETATM   14  N   UNL     1      -9.236   6.130  70.414  1.00  0.00    -0.153 N  
HETATM   15  C   UNL     1      -8.673   5.164  69.611  1.00  0.00    -0.092 C  
HETATM   16  H   UNL     1      -9.629   5.882  71.322  1.00  0.00     0.000 HD 
HETATM   17  C   UNL     1      -8.809   3.724  70.069  1.00  0.00    -0.146 C  
HETATM   18  O   UNL     1      -8.077   5.462  68.573  1.00  0.00    -0.094 OA 
HETATM   19  C   UNL     1      -9.028   2.749  68.919  1.00  0.00    -0.124 C  
HETATM   20  C   UNL     1      -7.643   3.293  70.947  1.00  0.00    -0.040 A  
HETATM   21  O   UNL     1      -8.554   3.111  67.706  1.00  0.00    -0.088 OA 
HETATM   22  C   UNL     1      -7.831   2.277  71.899  1.00  0.00    -0.045 A  
HETATM   23  O   UNL     1      -9.583   1.664  69.077  1.00  0.00    -0.129 OA 
HETATM   24  C   UNL     1      -6.768   1.841  72.691  1.00  0.00    -0.018 A  
HETATM   25  C   UNL     1      -5.506   2.412  72.547  1.00  0.00     0.000 A  
HETATM   26  C   UNL     1      -5.302   3.416  71.606  1.00  0.00    -0.004 A  
HETATM   27  C   UNL     1      -6.360   3.849  70.806  1.00  0.00    -0.022 A  
ENDBRANCH  12  14
TORSDOF 1
ENDMDL
MODEL       91
REMARK 921   NORMALIZED FREE ENERGY PREDICTED BY IDOCK:   -4.14 KCAL/MOL
REMARK 922        TOTAL FREE ENERGY PREDICTED BY IDOCK:   -4.82 KCAL/MOL
REMARK 923 INTER-LIGAND FREE ENERGY PREDICTED BY IDOCK:   -4.62 KCAL/MOL
REMARK 924 INTRA-LIGAND FREE ENERGY PREDICTED BY IDOCK:   -0.21 KCAL/MOL
REMARK 927      BINDING AFFINITY PREDICTED BY RF-SCORE:    0.00 PKD
ROOT
HETATM    1  C   UNL     1      -9.747   9.525  67.333  1.00  0.00    -0.157 C  
HETATM    2  S   UNL     1      -8.398   9.173  68.537  1.00  0.00    -0.124 SA 
HETATM    3  C   UNL     1      -9.527   8.598  69.875  1.00  0.00    -0.167 C  
HETATM    4  CA  UNL     1     -10.813   8.146  69.138  1.00  0.00    -0.016 C  
HETATM    5  C   UNL     1      -9.781   9.796  70.813  1.00  0.00    -0.054 C  
HETATM    6  C   UNL     1      -8.817   7.525  70.706  1.00  0.00    -0.148 C  
HETATM    7  N   UNL     1     -10.989   9.044  67.976  1.00  0.00    -0.028 N  
HETATM    8  C   UNL     1     -10.803   6.700  68.608  1.00  0.00    -0.262 C  
HETATM    9  C   UNL     1     -11.491  10.306  68.165  1.00  0.00    -0.041 C  
HETATM   10  OXT UNL     1     -10.557   5.710  69.278  1.00  0.00    -0.267 OA 
HETATM   11  O   UNL     1     -11.183   6.595  67.308  1.00  0.00    -0.366 OA 
HETATM   12  CA  UNL     1     -10.364  10.952  67.326  1.00  0.00    -0.216 C  
HETATM   13  O   UNL     1     -12.375  10.702  68.891  1.00  0.00    -0.358 OA 
ENDROOT
BRANCH  12  14
HETATM   14  N   UNL     1      -9.563  12.030  67.974  1.00  0.00    -0.193 N  
HETATM   15  C   UNL     1      -8.394  12.446  67.380  1.00  0.00    -0.180 C  
HETATM   16  H   UNL     1      -9.878  12.455  68.847  1.00  0.00     0.000 HD 
HETATM   17  C   UNL     1      -7.540  13.431  68.155  1.00  0.00    -0.138 C  
HETATM   18  O   UNL     1      -8.064  12.040  66.262  1.00  0.00     0.061 OA 
HETATM   19  C   UNL     1      -6.045  13.185  67.995  1.00  0.00    -0.118 C  
HETATM   20  C   UNL     1      -7.901  14.875  67.834  1.00  0.00    -0.145 A  
HETATM   21  O   UNL     1      -5.641  12.570  66.860  1.00  0.00    -0.334 OA 
HETATM   22  C   UNL     1      -7.674  15.875  68.794  1.00  0.00    -0.181 A  
HETATM   23  O   UNL     1      -5.227  13.548  68.836  1.00  0.00    -0.069 OA 
HETATM   24  C   UNL     1      -7.965  17.210  68.509  1.00  0.00    -0.259 A  
HETATM   25  C   UNL     1      -8.487  17.565  67.267  1.00  0.00    -0.224 A  
HETATM   26  C   UNL     1      -8.714  16.586  66.305  1.00  0.00    -0.369 A  
HETATM   27  C   UNL     1      -8.416  15.252  66.583  1.00  0.00    -0.264 A  
ENDBRANCH  12  14
TORSDOF 1
ENDMDL
MODEL       92
REMARK 921   NORMALIZED FREE ENERGY PREDICTED BY IDOCK:   -4.10 KCAL/MOL
REMARK 922        TOTAL FREE ENERGY PREDICTED BY IDOCK:   -4.78 KCAL/MOL
REMARK 923 INTER-LIGAND FREE ENERGY PREDICTED BY IDOCK:   -4.42 KCAL/MOL
REMARK 924 INTRA-LIGAND FREE ENERGY PREDICTED BY IDOCK:   -0.36 KCAL/MOL
REMARK 927      BINDING AFFINITY PREDICTED BY RF-SCORE:    0.00 PKD
ROOT
HETATM    1  C   UNL     1     -10.656   7.564  69.455  1.00  0.00    -0.223 C  
HETATM    2  S   UNL     1      -9.105   6.817  70.112  1.00  0.00    -0.155 SA 
HETATM    3  C   UNL     1      -8.901   8.048  71.469  1.00  0.00    -0.143 C  
HETATM    4  CA  UNL     1     -10.326   8.602  71.716  1.00  0.00    -0.316 C  
HETATM    5  C   UNL     1      -7.929   9.134  70.967  1.00  0.00    -0.166 C  
HETATM    6  C   UNL     1      -8.228   7.369  72.666  1.00  0.00    -0.128 C  
HETATM    7  N   UNL     1     -11.013   8.639  70.406  1.00  0.00    -0.235 N  
HETATM    8  C   UNL     1     -11.205   7.778  72.675  1.00  0.00    -0.381 C  
HETATM    9  C   UNL     1     -10.729   9.646  69.520  1.00  0.00    -0.232 C  
HETATM   10  OXT UNL     1     -10.885   7.446  73.805  1.00  0.00    -0.321 OA 
HETATM   11  O   UNL     1     -12.443   7.510  72.185  1.00  0.00    -0.274 OA 
HETATM   12  CA  UNL     1     -10.530   8.652  68.352  1.00  0.00    -0.176 C  
HETATM   13  O   UNL     1     -10.535  10.826  69.704  1.00  0.00    -0.219 OA 
ENDROOT
BRANCH  12  14
HETATM   14  N   UNL     1      -9.234   8.714  67.616  1.00  0.00    -0.134 N  
HETATM   15  C   UNL     1      -8.980   7.791  66.628  1.00  0.00    -0.149 C  
HETATM   16  H   UNL     1      -8.545   9.431  67.843  1.00  0.00     0.000 HD 
HETATM   17  C   UNL     1      -7.590   7.799  66.020  1.00  0.00    -0.087 C  
HETATM   18  O   UNL     1      -9.849   7.001  66.250  1.00  0.00    -0.084 OA 
HETATM   19  C   UNL     1      -7.071   6.404  65.695  1.00  0.00    -0.065 C  
HETATM   20  C   UNL     1      -7.503   8.719  64.811  1.00  0.00    -0.100 A  
HETATM   21  O   UNL     1      -7.992   5.445  65.451  1.00  0.00    -0.098 OA 
HETATM   22  C   UNL     1      -6.269   9.301  64.472  1.00  0.00    -0.076 A  
HETATM   23  O   UNL     1      -5.870   6.152  65.624  1.00  0.00    -0.023 OA 
HETATM   24  C   UNL     1      -6.157  10.121  63.348  1.00  0.00    -0.143 A  
HETATM   25  C   UNL     1      -7.271  10.371  62.549  1.00  0.00    -0.152 A  
HETATM   26  C   UNL     1      -8.497   9.799  62.869  1.00  0.00    -0.177 A  
HETATM   27  C   UNL     1      -8.612   8.973  63.987  1.00  0.00    -0.161 A  
ENDBRANCH  12  14
TORSDOF 1
ENDMDL
MODEL       93
REMARK 921   NORMALIZED FREE ENERGY PREDICTED BY IDOCK:   -4.07 KCAL/MOL
REMARK 922        TOTAL FREE ENERGY PREDICTED BY IDOCK:   -4.75 KCAL/MOL
REMARK 923 INTER-LIGAND FREE ENERGY PREDICTED BY IDOCK:   -4.52 KCAL/MOL
REMARK 924 INTRA-LIGAND FREE ENERGY PREDICTED BY IDOCK:   -0.23 KCAL/MOL
REMARK 927      BINDING AFFINITY PREDICTED BY RF-SCORE:    0.00 PKD
ROOT
HETATM    1  C   UNL     1      -7.208   8.148  68.019  1.00  0.00    -0.094 C  
HETATM    2  S   UNL     1      -8.715   7.413  68.782  1.00  0.00    -0.127 SA 
HETATM    3  C   UNL     1      -8.721   5.916  67.707  1.00  0.00    -0.104 C  
HETATM    4  CA  UNL     1      -7.254   5.765  67.233  1.00  0.00    -0.076 C  
HETATM    5  C   UNL     1      -9.689   6.189  66.538  1.00  0.00    -0.184 C  
HETATM    6  C   UNL     1      -9.296   4.734  68.493  1.00  0.00    -0.181 C  
HETATM    7  N   UNL     1      -6.705   7.130  67.072  1.00  0.00    -0.061 N  
HETATM    8  C   UNL     1      -6.319   5.002  68.189  1.00  0.00    -0.036 C  
HETATM    9  C   UNL     1      -7.033   7.865  65.962  1.00  0.00    -0.061 C  
HETATM   10  OXT UNL     1      -6.536   3.887  68.636  1.00  0.00    -0.035 OA 
HETATM   11  O   UNL     1      -5.152   5.649  68.443  1.00  0.00    -0.003 OA 
HETATM   12  CA  UNL     1      -7.398   9.106  66.810  1.00  0.00    -0.086 C  
HETATM   13  O   UNL     1      -7.153   7.534  64.804  1.00  0.00    -0.059 OA 
ENDROOT
BRANCH  12  14
HETATM   14  N   UNL     1      -8.758   9.686  66.621  1.00  0.00    -0.133 N  
HETATM   15  C   UNL     1      -9.216  10.627  67.515  1.00  0.00    -0.143 C  
HETATM   16  H   UNL     1      -9.343   9.389  65.839  1.00  0.00     0.000 HD 
HETATM   17  C   UNL     1     -10.660  11.068  67.371  1.00  0.00    -0.276 C  
HETATM   18  O   UNL     1      -8.478  11.094  68.387  1.00  0.00    -0.137 OA 
HETATM   19  C   UNL     1     -11.348  11.314  68.708  1.00  0.00    -0.270 C  
HETATM   20  C   UNL     1     -10.798  12.271  66.448  1.00  0.00    -0.299 A  
HETATM   21  O   UNL     1     -10.559  11.651  69.753  1.00  0.00     0.118 OA 
HETATM   22  C   UNL     1     -11.999  12.471  65.747  1.00  0.00    -0.482 A  
HETATM   23  O   UNL     1     -12.567  11.241  68.840  1.00  0.00    -0.327 OA 
HETATM   24  C   UNL     1     -12.162  13.584  64.921  1.00  0.00    -0.447 A  
HETATM   25  C   UNL     1     -11.131  14.510  64.782  1.00  0.00    -0.400 A  
HETATM   26  C   UNL     1      -9.937  14.328  65.472  1.00  0.00    -0.341 A  
HETATM   27  C   UNL     1      -9.773  13.221  66.305  1.00  0.00    -0.274 A  
ENDBRANCH  12  14
TORSDOF 1
ENDMDL
MODEL       94
REMARK 921   NORMALIZED FREE ENERGY PREDICTED BY IDOCK:   -4.03 KCAL/MOL
REMARK 922        TOTAL FREE ENERGY PREDICTED BY IDOCK:   -4.70 KCAL/MOL
REMARK 923 INTER-LIGAND FREE ENERGY PREDICTED BY IDOCK:   -4.19 KCAL/MOL
REMARK 924 INTRA-LIGAND FREE ENERGY PREDICTED BY IDOCK:   -0.51 KCAL/MOL
REMARK 927      BINDING AFFINITY PREDICTED BY RF-SCORE:    0.00 PKD
ROOT
HETATM    1  C   UNL     1      -9.646   6.234  71.110  1.00  0.00    -0.175 C  
HETATM    2  S   UNL     1     -10.335   5.147  69.792  1.00  0.00    -0.197 SA 
HETATM    3  C   UNL     1      -8.699   4.485  69.261  1.00  0.00    -0.087 C  
HETATM    4  CA  UNL     1      -7.780   4.672  70.494  1.00  0.00    -0.054 C  
HETATM    5  C   UNL     1      -8.232   5.320  68.051  1.00  0.00    -0.098 C  
HETATM    6  C   UNL     1      -8.874   3.047  68.767  1.00  0.00    -0.168 C  
HETATM    7  N   UNL     1      -8.202   5.920  71.168  1.00  0.00    -0.121 N  
HETATM    8  C   UNL     1      -7.831   3.543  71.540  1.00  0.00    -0.057 C  
HETATM    9  C   UNL     1      -7.822   7.131  70.649  1.00  0.00    -0.096 C  
HETATM   10  OXT UNL     1      -7.661   2.358  71.299  1.00  0.00    -0.039 OA 
HETATM   11  O   UNL     1      -8.002   3.987  72.813  1.00  0.00    -0.081 OA 
HETATM   12  CA  UNL     1      -9.262   7.691  70.726  1.00  0.00    -0.157 C  
HETATM   13  O   UNL     1      -6.774   7.484  70.158  1.00  0.00    -0.048 OA 
ENDROOT
BRANCH  12  14
HETATM   14  N   UNL     1      -9.853   8.230  69.468  1.00  0.00    -0.178 N  
HETATM   15  C   UNL     1      -9.824   9.587  69.241  1.00  0.00    -0.181 C  
HETATM   16  H   UNL     1     -10.275   7.601  68.784  1.00  0.00     0.000 HD 
HETATM   17  C   UNL     1     -10.574  10.098  68.026  1.00  0.00    -0.273 C  
HETATM   18  O   UNL     1      -9.205  10.348  69.990  1.00  0.00     0.002 OA 
HETATM   19  C   UNL     1     -11.262  11.436  68.266  1.00  0.00    -0.263 C  
HETATM   20  C   UNL     1      -9.690  10.143  66.788  1.00  0.00    -0.235 A  
HETATM   21  O   UNL     1     -10.731  12.239  69.214  1.00  0.00    -0.112 OA 
HETATM   22  C   UNL     1     -10.274  10.025  65.515  1.00  0.00    -0.248 A  
HETATM   23  O   UNL     1     -12.239  11.796  67.614  1.00  0.00    -0.534 OA 
HETATM   24  C   UNL     1      -9.488  10.098  64.365  1.00  0.00    -0.368 A  
HETATM   25  C   UNL     1      -8.112  10.288  64.467  1.00  0.00    -0.150 A  
HETATM   26  C   UNL     1      -7.519  10.410  65.719  1.00  0.00    -0.147 A  
HETATM   27  C   UNL     1      -8.302  10.346  66.872  1.00  0.00    -0.124 A  
ENDBRANCH  12  14
TORSDOF 1
ENDMDL
MODEL       95
REMARK 921   NORMALIZED FREE ENERGY PREDICTED BY IDOCK:   -4.02 KCAL/MOL
REMARK 922        TOTAL FREE ENERGY PREDICTED BY IDOCK:   -4.70 KCAL/MOL
REMARK 923 INTER-LIGAND FREE ENERGY PREDICTED BY IDOCK:   -4.26 KCAL/MOL
REMARK 924 INTRA-LIGAND FREE ENERGY PREDICTED BY IDOCK:   -0.44 KCAL/MOL
REMARK 927      BINDING AFFINITY PREDICTED BY RF-SCORE:    0.00 PKD
ROOT
HETATM    1  C   UNL     1     -11.077   5.979  69.231  1.00  0.00    -0.354 C  
HETATM    2  S   UNL     1      -9.805   5.171  70.290  1.00  0.00    -0.245 SA 
HETATM    3  C   UNL     1      -9.201   6.743  71.038  1.00  0.00    -0.156 C  
HETATM    4  CA  UNL     1     -10.386   7.731  70.890  1.00  0.00    -0.200 C  
HETATM    5  C   UNL     1      -7.962   7.192  70.238  1.00  0.00    -0.116 C  
HETATM    6  C   UNL     1      -8.731   6.471  72.470  1.00  0.00    -0.125 C  
HETATM    7  N   UNL     1     -11.067   7.407  69.617  1.00  0.00    -0.168 N  
HETATM    8  C   UNL     1     -11.444   7.674  72.007  1.00  0.00    -0.283 C  
HETATM    9  C   UNL     1     -10.519   7.821  68.430  1.00  0.00    -0.166 C  
HETATM   10  OXT UNL     1     -11.207   7.772  73.201  1.00  0.00    -0.402 OA 
HETATM   11  O   UNL     1     -12.719   7.589  71.546  1.00  0.00    -0.335 OA 
HETATM   12  CA  UNL     1     -10.661   6.416  67.798  1.00  0.00    -0.303 C  
HETATM   13  O   UNL     1      -9.973   8.859  68.135  1.00  0.00    -0.163 OA 
ENDROOT
BRANCH  12  14
HETATM   14  N   UNL     1      -9.428   5.791  67.239  1.00  0.00    -0.112 N  
HETATM   15  C   UNL     1      -9.539   4.926  66.175  1.00  0.00    -0.175 C  
HETATM   16  H   UNL     1      -8.514   6.003  67.640  1.00  0.00     0.000 HD 
HETATM   17  C   UNL     1      -8.279   4.199  65.745  1.00  0.00    -0.109 C  
HETATM   18  O   UNL     1     -10.615   4.759  65.594  1.00  0.00    -0.256 OA 
HETATM   19  C   UNL     1      -8.537   2.764  65.303  1.00  0.00    -0.107 C  
HETATM   20  C   UNL     1      -7.507   4.974  64.687  1.00  0.00    -0.075 A  
HETATM   21  O   UNL     1      -9.769   2.479  64.825  1.00  0.00    -0.100 OA 
HETATM   22  C   UNL     1      -6.116   4.801  64.579  1.00  0.00    -0.022 A  
HETATM   23  O   UNL     1      -7.665   1.900  65.344  1.00  0.00    -0.069 OA 
HETATM   24  C   UNL     1      -5.392   5.475  63.595  1.00  0.00    -0.013 A  
HETATM   25  C   UNL     1      -6.042   6.330  62.708  1.00  0.00    -0.026 A  
HETATM   26  C   UNL     1      -7.419   6.510  62.800  1.00  0.00    -0.073 A  
HETATM   27  C   UNL     1      -8.147   5.832  63.777  1.00  0.00    -0.108 A  
ENDBRANCH  12  14
TORSDOF 1
ENDMDL
MODEL       96
REMARK 921   NORMALIZED FREE ENERGY PREDICTED BY IDOCK:   -4.01 KCAL/MOL
REMARK 922        TOTAL FREE ENERGY PREDICTED BY IDOCK:   -4.68 KCAL/MOL
REMARK 923 INTER-LIGAND FREE ENERGY PREDICTED BY IDOCK:   -4.21 KCAL/MOL
REMARK 924 INTRA-LIGAND FREE ENERGY PREDICTED BY IDOCK:   -0.47 KCAL/MOL
REMARK 927      BINDING AFFINITY PREDICTED BY RF-SCORE:    0.00 PKD
ROOT
HETATM    1  C   UNL     1     -10.304   8.331  69.819  1.00  0.00    -0.216 C  
HETATM    2  S   UNL     1     -11.901   7.413  69.845  1.00  0.00     0.390 SA 
HETATM    3  C   UNL     1     -12.393   7.998  71.522  1.00  0.00    -0.308 C  
HETATM    4  CA  UNL     1     -11.606   9.318  71.724  1.00  0.00    -0.388 C  
HETATM    5  C   UNL     1     -11.979   6.910  72.533  1.00  0.00    -0.087 C  
HETATM    6  C   UNL     1     -13.919   8.110  71.589  1.00  0.00    -0.463 C  
HETATM    7  N   UNL     1     -10.301   9.157  71.046  1.00  0.00    -0.267 N  
HETATM    8  C   UNL     1     -12.271  10.584  71.152  1.00  0.00    -0.391 C  
HETATM    9  C   UNL     1      -9.310   8.425  71.648  1.00  0.00    -0.214 C  
HETATM   10  OXT UNL     1     -13.409  10.950  71.401  1.00  0.00    -0.295 OA 
HETATM   11  O   UNL     1     -11.438  11.338  70.388  1.00  0.00    -0.271 OA 
HETATM   12  CA  UNL     1      -9.040   7.609  70.363  1.00  0.00    -0.152 C  
HETATM   13  O   UNL     1      -8.970   8.365  72.808  1.00  0.00    -0.238 OA 
ENDROOT
BRANCH  12  14
HETATM   14  N   UNL     1      -9.111   6.124  70.469  1.00  0.00    -0.152 N  
HETATM   15  C   UNL     1      -8.063   5.442  71.044  1.00  0.00    -0.113 C  
HETATM   16  H   UNL     1      -9.926   5.619  70.120  1.00  0.00     0.000 HD 
HETATM   17  C   UNL     1      -8.113   3.927  70.987  1.00  0.00    -0.067 C  
HETATM   18  O   UNL     1      -7.131   6.040  71.588  1.00  0.00    -0.074 OA 
HETATM   19  C   UNL     1      -6.747   3.290  70.768  1.00  0.00    -0.032 C  
HETATM   20  C   UNL     1      -8.813   3.334  72.201  1.00  0.00    -0.123 A  
HETATM   21  O   UNL     1      -5.668   3.991  71.182  1.00  0.00    -0.011 OA 
HETATM   22  C   UNL     1      -9.456   2.090  72.091  1.00  0.00    -0.167 A  
HETATM   23  O   UNL     1      -6.616   2.176  70.267  1.00  0.00    -0.028 OA 
HETATM   24  C   UNL     1     -10.075   1.511  73.200  1.00  0.00    -0.158 A  
HETATM   25  C   UNL     1     -10.063   2.163  74.430  1.00  0.00    -0.158 A  
HETATM   26  C   UNL     1      -9.427   3.394  74.556  1.00  0.00    -0.127 A  
HETATM   27  C   UNL     1      -8.800   3.973  73.453  1.00  0.00    -0.097 A  
ENDBRANCH  12  14
TORSDOF 1
ENDMDL
MODEL       97
REMARK 921   NORMALIZED FREE ENERGY PREDICTED BY IDOCK:   -3.96 KCAL/MOL
REMARK 922        TOTAL FREE ENERGY PREDICTED BY IDOCK:   -4.63 KCAL/MOL
REMARK 923 INTER-LIGAND FREE ENERGY PREDICTED BY IDOCK:   -4.27 KCAL/MOL
REMARK 924 INTRA-LIGAND FREE ENERGY PREDICTED BY IDOCK:   -0.36 KCAL/MOL
REMARK 927      BINDING AFFINITY PREDICTED BY RF-SCORE:    0.00 PKD
ROOT
HETATM    1  C   UNL     1      -7.562  10.274  69.919  1.00  0.00    -0.143 C  
HETATM    2  S   UNL     1      -6.128   9.196  69.501  1.00  0.00    -0.036 SA 
HETATM    3  C   UNL     1      -6.527   9.093  67.704  1.00  0.00    -0.063 C  
HETATM    4  CA  UNL     1      -7.378  10.355  67.417  1.00  0.00    -0.093 C  
HETATM    5  C   UNL     1      -7.318   7.789  67.479  1.00  0.00    -0.092 C  
HETATM    6  C   UNL     1      -5.225   8.967  66.907  1.00  0.00    -0.039 C  
HETATM    7  N   UNL     1      -8.191  10.617  68.626  1.00  0.00    -0.127 N  
HETATM    8  C   UNL     1      -6.585  11.638  67.108  1.00  0.00    -0.134 C  
HETATM    9  C   UNL     1      -9.312   9.864  68.865  1.00  0.00    -0.170 C  
HETATM   10  OXT UNL     1      -5.724  11.738  66.248  1.00  0.00    -0.233 OA 
HETATM   11  O   UNL     1      -6.988  12.716  67.831  1.00  0.00    -0.085 OA 
HETATM   12  CA  UNL     1      -8.895   9.587  70.328  1.00  0.00    -0.243 C  
HETATM   13  O   UNL     1     -10.161   9.453  68.108  1.00  0.00    -0.181 OA 
ENDROOT
BRANCH  12  14
HETATM   14  N   UNL     1      -8.810   8.162  70.757  1.00  0.00    -0.137 N  
HETATM   15  C   UNL     1      -9.970   7.441  70.922  1.00  0.00    -0.184 C  
HETATM   16  H   UNL     1      -7.902   7.726  70.925  1.00  0.00     0.000 HD 
HETATM   17  C   UNL     1      -9.837   6.048  71.507  1.00  0.00    -0.197 C  
HETATM   18  O   UNL     1     -11.066   7.908  70.599  1.00  0.00    -0.254 OA 
HETATM   19  C   UNL     1     -10.976   5.683  72.451  1.00  0.00    -0.259 C  
HETATM   20  C   UNL     1      -9.653   4.991  70.427  1.00  0.00    -0.260 A  
HETATM   21  O   UNL     1     -12.160   6.307  72.257  1.00  0.00    -0.304 OA 
HETATM   22  C   UNL     1      -8.967   3.803  70.731  1.00  0.00    -0.157 A  
HETATM   23  O   UNL     1     -10.850   4.840  73.335  1.00  0.00    -0.233 OA 
HETATM   24  C   UNL     1      -8.816   2.806  69.766  1.00  0.00    -0.146 A  
HETATM   25  C   UNL     1      -9.343   2.979  68.489  1.00  0.00    -0.243 A  
HETATM   26  C   UNL     1     -10.028   4.149  68.174  1.00  0.00     0.002 A  
HETATM   27  C   UNL     1     -10.189   5.144  69.137  1.00  0.00    -0.259 A  
ENDBRANCH  12  14
TORSDOF 1
ENDMDL
MODEL       98
REMARK 921   NORMALIZED FREE ENERGY PREDICTED BY IDOCK:   -3.96 KCAL/MOL
REMARK 922        TOTAL FREE ENERGY PREDICTED BY IDOCK:   -4.63 KCAL/MOL
REMARK 923 INTER-LIGAND FREE ENERGY PREDICTED BY IDOCK:   -4.23 KCAL/MOL
REMARK 924 INTRA-LIGAND FREE ENERGY PREDICTED BY IDOCK:   -0.40 KCAL/MOL
REMARK 927      BINDING AFFINITY PREDICTED BY RF-SCORE:    0.00 PKD
ROOT
HETATM    1  C   UNL     1     -10.333   7.252  70.210  1.00  0.00    -0.210 C  
HETATM    2  S   UNL     1      -9.574   5.600  70.509  1.00  0.00    -0.181 SA 
HETATM    3  C   UNL     1      -8.518   6.163  71.910  1.00  0.00    -0.129 C  
HETATM    4  CA  UNL     1      -9.230   7.426  72.458  1.00  0.00    -0.142 C  
HETATM    5  C   UNL     1      -7.121   6.480  71.339  1.00  0.00    -0.077 C  
HETATM    6  C   UNL     1      -8.341   5.010  72.902  1.00  0.00    -0.108 C  
HETATM    7  N   UNL     1      -9.838   8.120  71.301  1.00  0.00    -0.159 N  
HETATM    8  C   UNL     1     -10.349   7.168  73.483  1.00  0.00    -0.369 C  
HETATM    9  C   UNL     1      -9.049   8.873  70.471  1.00  0.00    -0.200 C  
HETATM   10  OXT UNL     1     -10.225   6.509  74.503  1.00  0.00    -0.358 OA 
HETATM   11  O   UNL     1     -11.507   7.821  73.201  1.00  0.00    -0.330 OA 
HETATM   12  CA  UNL     1      -9.630   8.206  69.203  1.00  0.00    -0.157 C  
HETATM   13  O   UNL     1      -8.129   9.618  70.721  1.00  0.00    -0.279 OA 
ENDROOT
BRANCH  12  14
HETATM   14  N   UNL     1      -8.662   7.582  68.255  1.00  0.00    -0.124 N  
HETATM   15  C   UNL     1      -9.139   6.946  67.132  1.00  0.00    -0.131 C  
HETATM   16  H   UNL     1      -7.659   7.627  68.436  1.00  0.00     0.000 HD 
HETATM   17  C   UNL     1      -8.129   6.196  66.285  1.00  0.00    -0.113 C  
HETATM   18  O   UNL     1     -10.334   6.994  66.827  1.00  0.00    -0.245 OA 
HETATM   19  C   UNL     1      -8.679   4.900  65.703  1.00  0.00    -0.135 C  
HETATM   20  C   UNL     1      -7.528   7.079  65.200  1.00  0.00    -0.094 A  
HETATM   21  O   UNL     1     -10.016   4.828  65.518  1.00  0.00    -0.176 OA 
HETATM   22  C   UNL     1      -6.240   6.798  64.714  1.00  0.00    -0.036 A  
HETATM   23  O   UNL     1      -7.950   3.965  65.382  1.00  0.00    -0.092 OA 
HETATM   24  C   UNL     1      -5.681   7.573  63.696  1.00  0.00    -0.045 A  
HETATM   25  C   UNL     1      -6.397   8.637  63.152  1.00  0.00    -0.090 A  
HETATM   26  C   UNL     1      -7.675   8.925  63.620  1.00  0.00    -0.129 A  
HETATM   27  C   UNL     1      -8.240   8.149  64.632  1.00  0.00    -0.128 A  
ENDBRANCH  12  14
TORSDOF 1
ENDMDL
MODEL       99
REMARK 921   NORMALIZED FREE ENERGY PREDICTED BY IDOCK:   -3.94 KCAL/MOL
REMARK 922        TOTAL FREE ENERGY PREDICTED BY IDOCK:   -4.61 KCAL/MOL
REMARK 923 INTER-LIGAND FREE ENERGY PREDICTED BY IDOCK:   -4.16 KCAL/MOL
REMARK 924 INTRA-LIGAND FREE ENERGY PREDICTED BY IDOCK:   -0.45 KCAL/MOL
REMARK 927      BINDING AFFINITY PREDICTED BY RF-SCORE:    0.00 PKD
ROOT
HETATM    1  C   UNL     1     -10.649   8.547  70.442  1.00  0.00    -0.223 C  
HETATM    2  S   UNL     1     -11.840   7.187  70.088  1.00  0.00     0.017 SA 
HETATM    3  C   UNL     1     -12.447   7.053  71.824  1.00  0.00    -0.356 C  
HETATM    4  CA  UNL     1     -12.146   8.436  72.454  1.00  0.00    -0.378 C  
HETATM    5  C   UNL     1     -11.657   5.916  72.504  1.00  0.00    -0.327 C  
HETATM    6  C   UNL     1     -13.918   6.627  71.811  1.00  0.00    -0.075 C  
HETATM    7  N   UNL     1     -10.885   8.925  71.852  1.00  0.00    -0.356 N  
HETATM    8  C   UNL     1     -13.217   9.519  72.226  1.00  0.00    -0.421 C  
HETATM    9  C   UNL     1      -9.687   8.420  72.287  1.00  0.00    -0.316 C  
HETATM   10  OXT UNL     1     -14.403   9.396  72.488  1.00  0.00    -0.389 OA 
HETATM   11  O   UNL     1     -12.713  10.697  71.773  1.00  0.00    -0.420 OA 
HETATM   12  CA  UNL     1      -9.198   8.159  70.843  1.00  0.00    -0.151 C  
HETATM   13  O   UNL     1      -9.309   8.135  73.400  1.00  0.00    -0.262 OA 
ENDROOT
BRANCH  12  14
HETATM   14  N   UNL     1      -8.760   6.773  70.510  1.00  0.00    -0.146 N  
HETATM   15  C   UNL     1      -7.479   6.567  70.050  1.00  0.00    -0.094 C  
HETATM   16  H   UNL     1      -9.401   5.987  70.622  1.00  0.00     0.000 HD 
HETATM   17  C   UNL     1      -7.134   5.167  69.580  1.00  0.00    -0.056 C  
HETATM   18  O   UNL     1      -6.650   7.481  70.033  1.00  0.00    -0.040 OA 
HETATM   19  C   UNL     1      -6.212   5.153  68.367  1.00  0.00    -0.031 C  
HETATM   20  C   UNL     1      -6.580   4.307  70.707  1.00  0.00    -0.034 A  
HETATM   21  O   UNL     1      -5.406   6.224  68.195  1.00  0.00    -0.007 OA 
HETATM   22  C   UNL     1      -6.737   2.912  70.655  1.00  0.00    -0.032 A  
HETATM   23  O   UNL     1      -6.170   4.205  67.587  1.00  0.00    -0.034 OA 
HETATM   24  C   UNL     1      -6.207   2.100  71.659  1.00  0.00    -0.014 A  
HETATM   25  C   UNL     1      -5.517   2.668  72.728  1.00  0.00     0.000 A  
HETATM   26  C   UNL     1      -5.351   4.048  72.792  1.00  0.00     0.000 A  
HETATM   27  C   UNL     1      -5.871   4.861  71.786  1.00  0.00    -0.016 A  
ENDBRANCH  12  14
TORSDOF 1
ENDMDL
MODEL      100
REMARK 921   NORMALIZED FREE ENERGY PREDICTED BY IDOCK:   -3.85 KCAL/MOL
REMARK 922        TOTAL FREE ENERGY PREDICTED BY IDOCK:   -4.52 KCAL/MOL
REMARK 923 INTER-LIGAND FREE ENERGY PREDICTED BY IDOCK:   -4.22 KCAL/MOL
REMARK 924 INTRA-LIGAND FREE ENERGY PREDICTED BY IDOCK:   -0.29 KCAL/MOL
REMARK 927      BINDING AFFINITY PREDICTED BY RF-SCORE:    0.00 PKD
ROOT
HETATM    1  C   UNL     1      -9.430  12.356  67.200  1.00  0.00    -0.198 C  
HETATM    2  S   UNL     1      -8.391  11.695  65.830  1.00  0.00     0.414 SA 
HETATM    3  C   UNL     1      -9.774  10.805  64.999  1.00  0.00    -0.269 C  
HETATM    4  CA  UNL     1     -11.055  11.539  65.471  1.00  0.00    -0.191 C  
HETATM    5  C   UNL     1      -9.732   9.338  65.472  1.00  0.00    -0.247 C  
HETATM    6  C   UNL     1      -9.528  10.792  63.487  1.00  0.00    -0.331 C  
HETATM    7  N   UNL     1     -10.819  11.974  66.865  1.00  0.00    -0.247 N  
HETATM    8  C   UNL     1     -11.447  12.786  64.657  1.00  0.00    -0.324 C  
HETATM    9  C   UNL     1     -10.914  11.063  67.885  1.00  0.00    -0.264 C  
HETATM   10  OXT UNL     1     -11.596  12.812  63.446  1.00  0.00    -0.499 OA 
HETATM   11  O   UNL     1     -11.706  13.877  65.424  1.00  0.00    -0.321 OA 
HETATM   12  CA  UNL     1      -9.561  11.502  68.492  1.00  0.00    -0.178 C  
HETATM   13  O   UNL     1     -11.697  10.158  68.063  1.00  0.00    -0.194 OA 
ENDROOT
BRANCH  12  14
HETATM   14  N   UNL     1      -8.531  10.444  68.703  1.00  0.00    -0.121 N  
HETATM   15  C   UNL     1      -8.738   9.490  69.673  1.00  0.00    -0.182 C  
HETATM   16  H   UNL     1      -7.684  10.427  68.134  1.00  0.00     0.000 HD 
HETATM   17  C   UNL     1      -7.595   8.533  69.952  1.00  0.00    -0.071 C  
HETATM   18  O   UNL     1      -9.811   9.415  70.278  1.00  0.00    -0.209 OA 
HETATM   19  C   UNL     1      -7.458   8.179  71.427  1.00  0.00    -0.078 C  
HETATM   20  C   UNL     1      -7.674   7.284  69.087  1.00  0.00    -0.108 A  
HETATM   21  O   UNL     1      -8.575   8.258  72.186  1.00  0.00    -0.154 OA 
HETATM   22  C   UNL     1      -6.496   6.587  68.768  1.00  0.00    -0.043 A  
HETATM   23  O   UNL     1      -6.394   7.806  71.915  1.00  0.00    -0.039 OA 
HETATM   24  C   UNL     1      -6.547   5.420  68.005  1.00  0.00    -0.049 A  
HETATM   25  C   UNL     1      -7.770   4.933  67.549  1.00  0.00    -0.091 A  
HETATM   26  C   UNL     1      -8.945   5.609  67.859  1.00  0.00    -0.108 A  
HETATM   27  C   UNL     1      -8.899   6.772  68.628  1.00  0.00    -0.123 A  
ENDBRANCH  12  14
TORSDOF 1
ENDMDL
MODEL      101
REMARK 921   NORMALIZED FREE ENERGY PREDICTED BY IDOCK:   -3.85 KCAL/MOL
REMARK 922        TOTAL FREE ENERGY PREDICTED BY IDOCK:   -4.51 KCAL/MOL
REMARK 923 INTER-LIGAND FREE ENERGY PREDICTED BY IDOCK:   -5.02 KCAL/MOL
REMARK 924 INTRA-LIGAND FREE ENERGY PREDICTED BY IDOCK:    0.50 KCAL/MOL
REMARK 927      BINDING AFFINITY PREDICTED BY RF-SCORE:    0.00 PKD
ROOT
HETATM    1  C   UNL     1      -8.867  13.063  68.909  1.00  0.00     0.325 C  
HETATM    2  S   UNL     1     -10.567  13.657  68.519  1.00  0.00    -0.250 SA 
HETATM    3  C   UNL     1     -10.351  13.566  66.691  1.00  0.00    -0.271 C  
HETATM    4  CA  UNL     1      -9.215  12.534  66.480  1.00  0.00    -0.210 C  
HETATM    5  C   UNL     1      -9.961  14.974  66.200  1.00  0.00    -0.313 C  
HETATM    6  C   UNL     1     -11.696  13.225  66.042  1.00  0.00    -0.408 C  
HETATM    7  N   UNL     1      -8.270  12.688  67.609  1.00  0.00    -0.161 N  
HETATM    8  C   UNL     1      -9.653  11.058  66.443  1.00  0.00    -0.198 C  
HETATM    9  C   UNL     1      -7.380  13.730  67.610  1.00  0.00    -0.172 C  
HETATM   10  OXT UNL     1     -10.519  10.604  65.712  1.00  0.00    -0.232 OA 
HETATM   11  O   UNL     1      -8.920  10.251  67.254  1.00  0.00    -0.132 OA 
HETATM   12  CA  UNL     1      -7.742  14.125  69.061  1.00  0.00    -0.035 C  
HETATM   13  O   UNL     1      -6.734  14.216  66.709  1.00  0.00     0.449 OA 
ENDROOT
BRANCH  12  14
HETATM   14  N   UNL     1      -8.176  15.531  69.299  1.00  0.00    -0.242 N  
HETATM   15  C   UNL     1      -7.397  16.562  68.825  1.00  0.00    -0.208 C  
HETATM   16  H   UNL     1      -9.039  15.727  69.807  1.00  0.00     0.000 HD 
HETATM   17  C   UNL     1      -7.799  17.969  69.227  1.00  0.00     0.146 C  
HETATM   18  O   UNL     1      -6.424  16.348  68.098  1.00  0.00    -0.121 OA 
HETATM   19  C   UNL     1      -6.607  18.879  69.492  1.00  0.00    -0.226 C  
HETATM   20  C   UNL     1      -8.762  18.593  68.227  1.00  0.00    -0.349 A  
HETATM   21  O   UNL     1      -5.451  18.580  68.859  1.00  0.00    -0.192 OA 
HETATM   22  C   UNL     1      -9.664  19.581  68.659  1.00  0.00    -0.514 A  
HETATM   23  O   UNL     1      -6.684  19.864  70.222  1.00  0.00    -0.276 OA 
HETATM   24  C   UNL     1     -10.533  20.192  67.754  1.00  0.00    -0.397 A  
HETATM   25  C   UNL     1     -10.516  19.828  66.410  1.00  0.00    -0.618 A  
HETATM   26  C   UNL     1      -9.626  18.855  65.966  1.00  0.00    -0.140 A  
HETATM   27  C   UNL     1      -8.750  18.247  66.866  1.00  0.00    -0.273 A  
ENDBRANCH  12  14
TORSDOF 1
ENDMDL
MODEL      102
REMARK 921   NORMALIZED FREE ENERGY PREDICTED BY IDOCK:   -3.82 KCAL/MOL
REMARK 922        TOTAL FREE ENERGY PREDICTED BY IDOCK:   -4.48 KCAL/MOL
REMARK 923 INTER-LIGAND FREE ENERGY PREDICTED BY IDOCK:   -4.51 KCAL/MOL
REMARK 924 INTRA-LIGAND FREE ENERGY PREDICTED BY IDOCK:    0.03 KCAL/MOL
REMARK 927      BINDING AFFINITY PREDICTED BY RF-SCORE:    0.00 PKD
ROOT
HETATM    1  C   UNL     1     -11.467  11.570  67.106  1.00  0.00    -0.237 C  
HETATM    2  S   UNL     1     -11.553  13.351  67.570  1.00  0.00    -0.365 SA 
HETATM    3  C   UNL     1     -10.795  13.959  66.004  1.00  0.00    -0.290 C  
HETATM    4  CA  UNL     1     -11.060  12.832  64.974  1.00  0.00    -0.285 C  
HETATM    5  C   UNL     1      -9.291  14.169  66.269  1.00  0.00    -0.215 C  
HETATM    6  C   UNL     1     -11.382  15.332  65.662  1.00  0.00    -0.197 C  
HETATM    7  N   UNL     1     -10.990  11.548  65.706  1.00  0.00    -0.277 N  
HETATM    8  C   UNL     1     -12.426  12.885  64.265  1.00  0.00    -0.349 C  
HETATM    9  C   UNL     1      -9.768  11.020  66.032  1.00  0.00    -0.224 C  
HETATM   10  OXT UNL     1     -12.867  13.855  63.668  1.00  0.00    -0.565 OA 
HETATM   11  O   UNL     1     -13.094  11.703  64.280  1.00  0.00    -0.258 OA 
HETATM   12  CA  UNL     1     -10.190  10.776  67.500  1.00  0.00    -0.196 C  
HETATM   13  O   UNL     1      -8.735  10.977  65.403  1.00  0.00    -0.184 OA 
ENDROOT
BRANCH  12  14
HETATM   14  N   UNL     1      -9.334  11.370  68.565  1.00  0.00    -0.188 N  
HETATM   15  C   UNL     1      -8.011  10.999  68.647  1.00  0.00    -0.143 C  
HETATM   16  H   UNL     1      -9.723  12.044  69.225  1.00  0.00     0.000 HD 
HETATM   17  C   UNL     1      -7.225  11.512  69.839  1.00  0.00     0.440 C  
HETATM   18  O   UNL     1      -7.490  10.290  67.782  1.00  0.00    -0.088 OA 
HETATM   19  C   UNL     1      -6.228  10.496  70.380  1.00  0.00    -0.128 C  
HETATM   20  C   UNL     1      -6.554  12.846  69.548  1.00  0.00    -0.029 A  
HETATM   21  O   UNL     1      -5.759   9.570  69.513  1.00  0.00    -0.034 OA 
HETATM   22  C   UNL     1      -6.287  13.732  70.606  1.00  0.00     0.066 A  
HETATM   23  O   UNL     1      -5.833  10.520  71.543  1.00  0.00    -0.318 OA 
HETATM   24  C   UNL     1      -5.642  14.947  70.368  1.00  0.00    -0.139 A  
HETATM   25  C   UNL     1      -5.256  15.294  69.076  1.00  0.00    -0.098 A  
HETATM   26  C   UNL     1      -5.510  14.426  68.019  1.00  0.00    -0.121 A  
HETATM   27  C   UNL     1      -6.147  13.208  68.253  1.00  0.00    -0.089 A  
ENDBRANCH  12  14
TORSDOF 1
ENDMDL
MODEL      103
REMARK 921   NORMALIZED FREE ENERGY PREDICTED BY IDOCK:   -3.80 KCAL/MOL
REMARK 922        TOTAL FREE ENERGY PREDICTED BY IDOCK:   -4.46 KCAL/MOL
REMARK 923 INTER-LIGAND FREE ENERGY PREDICTED BY IDOCK:   -4.55 KCAL/MOL
REMARK 924 INTRA-LIGAND FREE ENERGY PREDICTED BY IDOCK:    0.09 KCAL/MOL
REMARK 927      BINDING AFFINITY PREDICTED BY RF-SCORE:    0.00 PKD
ROOT
HETATM    1  C   UNL     1     -10.883   8.631  69.138  1.00  0.00    -0.039 C  
HETATM    2  S   UNL     1     -11.407   6.938  69.642  1.00  0.00    -0.157 SA 
HETATM    3  C   UNL     1     -10.915   7.139  71.406  1.00  0.00    -0.234 C  
HETATM    4  CA  UNL     1     -10.929   8.670  71.647  1.00  0.00    -0.308 C  
HETATM    5  C   UNL     1      -9.505   6.535  71.565  1.00  0.00    -0.162 C  
HETATM    6  C   UNL     1     -11.855   6.313  72.288  1.00  0.00    -0.326 C  
HETATM    7  N   UNL     1     -10.489   9.314  70.389  1.00  0.00    -0.226 N  
HETATM    8  C   UNL     1     -12.295   9.273  72.021  1.00  0.00    -0.363 C  
HETATM    9  C   UNL     1      -9.156   9.334  70.068  1.00  0.00    -0.210 C  
HETATM   10  OXT UNL     1     -13.003   8.886  72.938  1.00  0.00    -0.330 OA 
HETATM   11  O   UNL     1     -12.630  10.363  71.283  1.00  0.00    -0.346 OA 
HETATM   12  CA  UNL     1      -9.426   8.823  68.634  1.00  0.00    -0.141 C  
HETATM   13  O   UNL     1      -8.181   9.510  70.763  1.00  0.00    -0.251 OA 
ENDROOT
BRANCH  12  14
HETATM   14  N   UNL     1      -8.701   7.595  68.199  1.00  0.00    -0.123 N  
HETATM   15  C   UNL     1      -9.205   6.853  67.156  1.00  0.00    -0.139 C  
HETATM   16  H   UNL     1      -7.841   7.308  68.669  1.00  0.00     0.000 HD 
HETATM   17  C   UNL     1      -8.519   5.533  66.855  1.00  0.00    -0.110 C  
HETATM   18  O   UNL     1     -10.166   7.251  66.492  1.00  0.00    -0.183 OA 
HETATM   19  C   UNL     1      -9.489   4.436  66.436  1.00  0.00    -0.176 C  
HETATM   20  C   UNL     1      -7.393   5.694  65.843  1.00  0.00    -0.073 A  
HETATM   21  O   UNL     1     -10.651   4.826  65.866  1.00  0.00    -0.303 OA 
HETATM   22  C   UNL     1      -6.316   4.792  65.857  1.00  0.00    -0.039 A  
HETATM   23  O   UNL     1      -9.229   3.244  66.576  1.00  0.00    -0.155 OA 
HETATM   24  C   UNL     1      -5.289   4.899  64.918  1.00  0.00    -0.013 A  
HETATM   25  C   UNL     1      -5.322   5.905  63.954  1.00  0.00    -0.017 A  
HETATM   26  C   UNL     1      -6.384   6.803  63.925  1.00  0.00    -0.035 A  
HETATM   27  C   UNL     1      -7.416   6.695  64.857  1.00  0.00    -0.093 A  
ENDBRANCH  12  14
TORSDOF 1
ENDMDL
MODEL      104
REMARK 921   NORMALIZED FREE ENERGY PREDICTED BY IDOCK:   -3.79 KCAL/MOL
REMARK 922        TOTAL FREE ENERGY PREDICTED BY IDOCK:   -4.46 KCAL/MOL
REMARK 923 INTER-LIGAND FREE ENERGY PREDICTED BY IDOCK:   -4.31 KCAL/MOL
REMARK 924 INTRA-LIGAND FREE ENERGY PREDICTED BY IDOCK:   -0.14 KCAL/MOL
REMARK 927      BINDING AFFINITY PREDICTED BY RF-SCORE:    0.00 PKD
ROOT
HETATM    1  C   UNL     1      -7.731  11.773  69.132  1.00  0.00     0.118 C  
HETATM    2  S   UNL     1      -8.860  10.830  68.022  1.00  0.00    -0.136 SA 
HETATM    3  C   UNL     1      -7.509  10.126  66.985  1.00  0.00    -0.092 C  
HETATM    4  CA  UNL     1      -6.253  10.167  67.893  1.00  0.00    -0.057 C  
HETATM    5  C   UNL     1      -7.362  11.026  65.742  1.00  0.00     0.084 C  
HETATM    6  C   UNL     1      -7.929   8.741  66.484  1.00  0.00    -0.103 C  
HETATM    7  N   UNL     1      -6.362  11.379  68.734  1.00  0.00    -0.050 N  
HETATM    8  C   UNL     1      -6.075   8.964  68.837  1.00  0.00    -0.044 C  
HETATM    9  C   UNL     1      -6.066  12.606  68.196  1.00  0.00    -0.080 C  
HETATM   10  OXT UNL     1      -6.072   7.794  68.488  1.00  0.00    -0.034 OA 
HETATM   11  O   UNL     1      -5.827   9.316  70.126  1.00  0.00    -0.030 OA 
HETATM   12  CA  UNL     1      -7.372  13.233  68.736  1.00  0.00    -0.070 C  
HETATM   13  O   UNL     1      -5.188  12.940  67.433  1.00  0.00    -0.273 OA 
ENDROOT
BRANCH  12  14
HETATM   14  N   UNL     1      -8.269  13.899  67.749  1.00  0.00    -0.158 N  
HETATM   15  C   UNL     1      -9.566  14.186  68.109  1.00  0.00    -0.218 C  
HETATM   16  H   UNL     1      -7.926  14.139  66.818  1.00  0.00     0.000 HD 
HETATM   17  C   UNL     1     -10.479  14.719  67.021  1.00  0.00    -0.270 C  
HETATM   18  O   UNL     1      -9.960  14.024  69.267  1.00  0.00    -0.004 OA 
HETATM   19  C   UNL     1     -11.907  14.199  67.130  1.00  0.00    -0.423 C  
HETATM   20  C   UNL     1     -10.448  16.239  66.946  1.00  0.00    -0.302 A  
HETATM   21  O   UNL     1     -12.336  13.829  68.358  1.00  0.00    -0.254 OA 
HETATM   22  C   UNL     1     -10.730  16.877  65.726  1.00  0.00    -0.165 A  
HETATM   23  O   UNL     1     -12.658  14.139  66.160  1.00  0.00    -0.465 OA 
HETATM   24  C   UNL     1     -10.741  18.270  65.641  1.00  0.00    -0.053 A  
HETATM   25  C   UNL     1     -10.470  19.044  66.767  1.00  0.00    -0.510 A  
HETATM   26  C   UNL     1     -10.192  18.427  67.982  1.00  0.00    -0.406 A  
HETATM   27  C   UNL     1     -10.188  17.035  68.074  1.00  0.00    -0.319 A  
ENDBRANCH  12  14
TORSDOF 1
ENDMDL
MODEL      105
REMARK 921   NORMALIZED FREE ENERGY PREDICTED BY IDOCK:   -3.78 KCAL/MOL
REMARK 922        TOTAL FREE ENERGY PREDICTED BY IDOCK:   -4.44 KCAL/MOL
REMARK 923 INTER-LIGAND FREE ENERGY PREDICTED BY IDOCK:   -3.91 KCAL/MOL
REMARK 924 INTRA-LIGAND FREE ENERGY PREDICTED BY IDOCK:   -0.53 KCAL/MOL
REMARK 927      BINDING AFFINITY PREDICTED BY RF-SCORE:    0.00 PKD
ROOT
HETATM    1  C   UNL     1      -9.872   9.338  68.793  1.00  0.00    -0.165 C  
HETATM    2  S   UNL     1      -8.082   9.316  68.357  1.00  0.00    -0.107 SA 
HETATM    3  C   UNL     1      -8.351   8.768  66.617  1.00  0.00    -0.108 C  
HETATM    4  CA  UNL     1      -9.801   9.201  66.287  1.00  0.00    -0.289 C  
HETATM    5  C   UNL     1      -8.174   7.236  66.581  1.00  0.00    -0.118 C  
HETATM    6  C   UNL     1      -7.255   9.363  65.728  1.00  0.00    -0.095 C  
HETATM    7  N   UNL     1     -10.592   9.061  67.531  1.00  0.00    -0.266 N  
HETATM    8  C   UNL     1      -9.969  10.650  65.795  1.00  0.00    -0.257 C  
HETATM    9  C   UNL     1     -11.009   7.818  67.932  1.00  0.00     0.110 C  
HETATM   10  OXT UNL     1      -9.359  11.146  64.860  1.00  0.00    -0.216 OA 
HETATM   11  O   UNL     1     -10.942  11.338  66.446  1.00  0.00    -0.279 OA 
HETATM   12  CA  UNL     1     -10.496   8.038  69.374  1.00  0.00    -0.220 C  
HETATM   13  O   UNL     1     -11.433   6.884  67.290  1.00  0.00    -0.147 OA 
ENDROOT
BRANCH  12  14
HETATM   14  N   UNL     1      -9.548   7.028  69.924  1.00  0.00    -0.160 N  
HETATM   15  C   UNL     1     -10.048   5.910  70.551  1.00  0.00    -0.197 C  
HETATM   16  H   UNL     1      -8.540   7.163  69.836  1.00  0.00     0.000 HD 
HETATM   17  C   UNL     1      -9.046   4.994  71.227  1.00  0.00    -0.176 C  
HETATM   18  O   UNL     1     -11.257   5.663  70.551  1.00  0.00    -0.216 OA 
HETATM   19  C   UNL     1      -9.564   4.399  72.531  1.00  0.00    -0.144 C  
HETATM   20  C   UNL     1      -8.540   3.910  70.287  1.00  0.00    -0.108 A  
HETATM   21  O   UNL     1     -10.904   4.275  72.662  1.00  0.00    -0.148 OA 
HETATM   22  C   UNL     1      -7.265   3.355  70.492  1.00  0.00    -0.037 A  
HETATM   23  O   UNL     1      -8.809   4.017  73.422  1.00  0.00    -0.097 OA 
HETATM   24  C   UNL     1      -6.793   2.336  69.664  1.00  0.00    -0.033 A  
HETATM   25  C   UNL     1      -7.582   1.858  68.620  1.00  0.00    -0.046 A  
HETATM   26  C   UNL     1      -8.848   2.395  68.406  1.00  0.00    -0.154 A  
HETATM   27  C   UNL     1      -9.327   3.407  69.237  1.00  0.00    -0.240 A  
ENDBRANCH  12  14
TORSDOF 1
ENDMDL
MODEL      106
REMARK 921   NORMALIZED FREE ENERGY PREDICTED BY IDOCK:   -3.76 KCAL/MOL
REMARK 922        TOTAL FREE ENERGY PREDICTED BY IDOCK:   -4.43 KCAL/MOL
REMARK 923 INTER-LIGAND FREE ENERGY PREDICTED BY IDOCK:   -4.00 KCAL/MOL
REMARK 924 INTRA-LIGAND FREE ENERGY PREDICTED BY IDOCK:   -0.43 KCAL/MOL
REMARK 927      BINDING AFFINITY PREDICTED BY RF-SCORE:    0.00 PKD
ROOT
HETATM    1  C   UNL     1     -10.463   7.018  69.937  1.00  0.00    -0.217 C  
HETATM    2  S   UNL     1     -10.269   5.245  70.397  1.00  0.00    -0.267 SA 
HETATM    3  C   UNL     1      -9.095   5.568  71.780  1.00  0.00    -0.139 C  
HETATM    4  CA  UNL     1      -9.372   7.034  72.197  1.00  0.00    -0.134 C  
HETATM    5  C   UNL     1      -7.667   5.376  71.230  1.00  0.00    -0.103 C  
HETATM    6  C   UNL     1      -9.297   4.511  72.869  1.00  0.00    -0.145 C  
HETATM    7  N   UNL     1      -9.724   7.779  70.968  1.00  0.00    -0.163 N  
HETATM    8  C   UNL     1     -10.520   7.235  73.204  1.00  0.00    -0.339 C  
HETATM    9  C   UNL     1      -8.733   8.168  70.104  1.00  0.00    -0.130 C  
HETATM   10  OXT UNL     1     -10.615   6.664  74.279  1.00  0.00    -0.271 OA 
HETATM   11  O   UNL     1     -11.409   8.192  72.832  1.00  0.00    -0.387 OA 
HETATM   12  CA  UNL     1      -9.490   7.608  68.878  1.00  0.00    -0.149 C  
HETATM   13  O   UNL     1      -7.625   8.604  70.321  1.00  0.00    -0.066 OA 
ENDROOT
BRANCH  12  14
HETATM   14  N   UNL     1      -8.766   6.629  68.017  1.00  0.00    -0.118 N  
HETATM   15  C   UNL     1      -9.391   6.131  66.897  1.00  0.00    -0.134 C  
HETATM   16  H   UNL     1      -7.819   6.333  68.255  1.00  0.00     0.000 HD 
HETATM   17  C   UNL     1      -8.676   5.026  66.143  1.00  0.00    -0.120 C  
HETATM   18  O   UNL     1     -10.480   6.574  66.520  1.00  0.00    -0.164 OA 
HETATM   19  C   UNL     1      -9.623   3.970  65.587  1.00  0.00    -0.190 C  
HETATM   20  C   UNL     1      -7.760   5.576  65.059  1.00  0.00    -0.093 A  
HETATM   21  O   UNL     1     -10.892   4.357  65.327  1.00  0.00    -0.260 OA 
HETATM   22  C   UNL     1      -6.635   4.834  64.661  1.00  0.00    -0.043 A  
HETATM   23  O   UNL     1      -9.257   2.821  65.351  1.00  0.00    -0.151 OA 
HETATM   24  C   UNL     1      -5.800   5.302  63.645  1.00  0.00    -0.017 A  
HETATM   25  C   UNL     1      -6.074   6.513  63.014  1.00  0.00    -0.034 A  
HETATM   26  C   UNL     1      -7.187   7.257  63.394  1.00  0.00    -0.072 A  
HETATM   27  C   UNL     1      -8.028   6.789  64.403  1.00  0.00    -0.096 A  
ENDBRANCH  12  14
TORSDOF 1
ENDMDL
MODEL      107
REMARK 921   NORMALIZED FREE ENERGY PREDICTED BY IDOCK:   -3.73 KCAL/MOL
REMARK 922        TOTAL FREE ENERGY PREDICTED BY IDOCK:   -4.39 KCAL/MOL
REMARK 923 INTER-LIGAND FREE ENERGY PREDICTED BY IDOCK:   -3.94 KCAL/MOL
REMARK 924 INTRA-LIGAND FREE ENERGY PREDICTED BY IDOCK:   -0.45 KCAL/MOL
REMARK 927      BINDING AFFINITY PREDICTED BY RF-SCORE:    0.00 PKD
ROOT
HETATM    1  C   UNL     1      -9.032  12.994  67.585  1.00  0.00    -0.192 C  
HETATM    2  S   UNL     1      -9.472  13.432  69.320  1.00  0.00     0.919 SA 
HETATM    3  C   UNL     1     -11.277  13.595  68.988  1.00  0.00    -0.273 C  
HETATM    4  CA  UNL     1     -11.524  12.735  67.723  1.00  0.00    -0.326 C  
HETATM    5  C   UNL     1     -11.571  15.089  68.747  1.00  0.00    -0.357 C  
HETATM    6  C   UNL     1     -12.058  13.185  70.240  1.00  0.00    -0.399 C  
HETATM    7  N   UNL     1     -10.320  12.855  66.872  1.00  0.00    -0.242 N  
HETATM    8  C   UNL     1     -11.766  11.235  67.973  1.00  0.00    -0.233 C  
HETATM    9  C   UNL     1     -10.132  13.985  66.118  1.00  0.00    -0.309 C  
HETATM   10  OXT UNL     1     -12.606  10.779  68.733  1.00  0.00    -0.257 OA 
HETATM   11  O   UNL     1     -11.004  10.423  67.194  1.00  0.00    -0.267 OA 
HETATM   12  CA  UNL     1      -8.675  14.151  66.610  1.00  0.00    -0.044 C  
HETATM   13  O   UNL     1     -10.920  14.650  65.486  1.00  0.00    -0.311 OA 
ENDROOT
BRANCH  12  14
HETATM   14  N   UNL     1      -8.306  15.457  67.227  1.00  0.00    -0.182 N  
HETATM   15  C   UNL     1      -8.110  16.550  66.415  1.00  0.00    -0.327 C  
HETATM   16  H   UNL     1      -8.201  15.540  68.239  1.00  0.00     0.000 HD 
HETATM   17  C   UNL     1      -7.586  17.812  67.074  1.00  0.00    -0.228 C  
HETATM   18  O   UNL     1      -8.359  16.504  65.207  1.00  0.00     0.662 OA 
HETATM   19  C   UNL     1      -6.601  18.579  66.201  1.00  0.00    -0.232 C  
HETATM   20  C   UNL     1      -8.714  18.712  67.558  1.00  0.00    -0.284 A  
HETATM   21  O   UNL     1      -6.710  18.420  64.863  1.00  0.00    -0.402 OA 
HETATM   22  C   UNL     1      -8.492  19.579  68.642  1.00  0.00    -0.364 A  
HETATM   23  O   UNL     1      -5.757  19.336  66.675  1.00  0.00    -0.162 OA 
HETATM   24  C   UNL     1      -9.500  20.437  69.082  1.00  0.00     0.480 A  
HETATM   25  C   UNL     1     -10.741  20.443  68.450  1.00  0.00     0.163 A  
HETATM   26  C   UNL     1     -10.976  19.594  67.373  1.00  0.00    -0.386 A  
HETATM   27  C   UNL     1      -9.968  18.740  66.925  1.00  0.00    -0.382 A  
ENDBRANCH  12  14
TORSDOF 1
ENDMDL
MODEL      108
REMARK 921   NORMALIZED FREE ENERGY PREDICTED BY IDOCK:   -3.69 KCAL/MOL
REMARK 922        TOTAL FREE ENERGY PREDICTED BY IDOCK:   -4.35 KCAL/MOL
REMARK 923 INTER-LIGAND FREE ENERGY PREDICTED BY IDOCK:   -4.00 KCAL/MOL
REMARK 924 INTRA-LIGAND FREE ENERGY PREDICTED BY IDOCK:   -0.34 KCAL/MOL
REMARK 927      BINDING AFFINITY PREDICTED BY RF-SCORE:    0.00 PKD
ROOT
HETATM    1  C   UNL     1      -9.507   7.461  71.442  1.00  0.00    -0.152 C  
HETATM    2  S   UNL     1      -8.676   8.880  70.611  1.00  0.00    -0.216 SA 
HETATM    3  C   UNL     1     -10.107   9.286  69.524  1.00  0.00    -0.198 C  
HETATM    4  CA  UNL     1     -11.340   8.705  70.261  1.00  0.00    -0.136 C  
HETATM    5  C   UNL     1      -9.864   8.604  68.162  1.00  0.00    -0.192 C  
HETATM    6  C   UNL     1     -10.130  10.796  69.266  1.00  0.00    -0.200 C  
HETATM    7  N   UNL     1     -10.898   7.466  70.939  1.00  0.00    -0.236 N  
HETATM    8  C   UNL     1     -11.968   9.618  71.330  1.00  0.00    -0.399 C  
HETATM    9  C   UNL     1     -10.738   6.315  70.211  1.00  0.00    -0.280 C  
HETATM   10  OXT UNL     1     -12.330  10.768  71.142  1.00  0.00    -0.356 OA 
HETATM   11  O   UNL     1     -12.176   8.998  72.521  1.00  0.00    -0.304 OA 
HETATM   12  CA  UNL     1      -9.339   6.049  70.815  1.00  0.00    -0.154 C  
HETATM   13  O   UNL     1     -11.402   5.854  69.311  1.00  0.00    -0.325 OA 
ENDROOT
BRANCH  12  14
HETATM   14  N   UNL     1      -8.207   5.870  69.861  1.00  0.00    -0.115 N  
HETATM   15  C   UNL     1      -8.143   4.723  69.104  1.00  0.00    -0.074 C  
HETATM   16  H   UNL     1      -7.488   6.589  69.771  1.00  0.00     0.000 HD 
HETATM   17  C   UNL     1      -6.894   4.520  68.267  1.00  0.00    -0.051 C  
HETATM   18  O   UNL     1      -9.067   3.905  69.100  1.00  0.00    -0.110 OA 
HETATM   19  C   UNL     1      -6.443   3.066  68.208  1.00  0.00    -0.036 C  
HETATM   20  C   UNL     1      -7.040   5.112  66.872  1.00  0.00    -0.073 A  
HETATM   21  O   UNL     1      -7.392   2.119  68.385  1.00  0.00    -0.046 OA 
HETATM   22  C   UNL     1      -5.894   5.537  66.178  1.00  0.00    -0.018 A  
HETATM   23  O   UNL     1      -5.278   2.750  67.982  1.00  0.00    -0.011 OA 
HETATM   24  C   UNL     1      -6.000   6.052  64.885  1.00  0.00    -0.025 A  
HETATM   25  C   UNL     1      -7.245   6.149  64.268  1.00  0.00    -0.061 A  
HETATM   26  C   UNL     1      -8.387   5.729  64.941  1.00  0.00    -0.127 A  
HETATM   27  C   UNL     1      -8.286   5.207  66.231  1.00  0.00    -0.109 A  
ENDBRANCH  12  14
TORSDOF 1
ENDMDL
MODEL      109
REMARK 921   NORMALIZED FREE ENERGY PREDICTED BY IDOCK:   -3.67 KCAL/MOL
REMARK 922        TOTAL FREE ENERGY PREDICTED BY IDOCK:   -4.33 KCAL/MOL
REMARK 923 INTER-LIGAND FREE ENERGY PREDICTED BY IDOCK:   -3.79 KCAL/MOL
REMARK 924 INTRA-LIGAND FREE ENERGY PREDICTED BY IDOCK:   -0.54 KCAL/MOL
REMARK 927      BINDING AFFINITY PREDICTED BY RF-SCORE:    0.00 PKD
ROOT
HETATM    1  C   UNL     1      -7.543   9.125  67.708  1.00  0.00    -0.085 C  
HETATM    2  S   UNL     1      -9.317   8.751  67.379  1.00  0.00    -0.140 SA 
HETATM    3  C   UNL     1      -9.965  10.091  68.467  1.00  0.00    -0.162 C  
HETATM    4  CA  UNL     1      -8.810  11.120  68.554  1.00  0.00    -0.161 C  
HETATM    5  C   UNL     1     -10.292   9.459  69.835  1.00  0.00    -0.252 C  
HETATM    6  C   UNL     1     -11.285  10.611  67.891  1.00  0.00    -0.376 C  
HETATM    7  N   UNL     1      -7.543  10.357  68.527  1.00  0.00    -0.091 N  
HETATM    8  C   UNL     1      -8.751  12.154  67.415  1.00  0.00    -0.177 C  
HETATM    9  C   UNL     1      -7.113   9.715  69.660  1.00  0.00    -0.075 C  
HETATM   10  OXT UNL     1      -9.678  12.872  67.073  1.00  0.00    -0.219 OA 
HETATM   11  O   UNL     1      -7.521  12.274  66.851  1.00  0.00    -0.100 OA 
HETATM   12  CA  UNL     1      -6.853   8.397  68.895  1.00  0.00    -0.061 C  
HETATM   13  O   UNL     1      -7.142  10.060  70.819  1.00  0.00    -0.324 OA 
ENDROOT
BRANCH  12  14
HETATM   14  N   UNL     1      -7.523   7.167  69.406  1.00  0.00    -0.094 N  
HETATM   15  C   UNL     1      -6.931   6.455  70.424  1.00  0.00    -0.063 C  
HETATM   16  H   UNL     1      -8.409   6.857  69.007  1.00  0.00     0.000 HD 
HETATM   17  C   UNL     1      -7.570   5.131  70.801  1.00  0.00    -0.079 C  
HETATM   18  O   UNL     1      -5.931   6.882  71.008  1.00  0.00    -0.034 OA 
HETATM   19  C   UNL     1      -6.553   4.059  71.169  1.00  0.00    -0.027 C  
HETATM   20  C   UNL     1      -8.621   5.296  71.889  1.00  0.00    -0.130 A  
HETATM   21  O   UNL     1      -5.359   4.480  71.645  1.00  0.00    -0.003 OA 
HETATM   22  C   UNL     1      -9.681   4.377  71.972  1.00  0.00    -0.227 A  
HETATM   23  O   UNL     1      -6.802   2.860  71.072  1.00  0.00    -0.031 OA 
HETATM   24  C   UNL     1     -10.638   4.487  72.982  1.00  0.00    -0.272 A  
HETATM   25  C   UNL     1     -10.552   5.513  73.920  1.00  0.00    -0.304 A  
HETATM   26  C   UNL     1      -9.506   6.428  73.854  1.00  0.00    -0.178 A  
HETATM   27  C   UNL     1      -8.543   6.317  72.851  1.00  0.00    -0.122 A  
ENDBRANCH  12  14
TORSDOF 1
ENDMDL
MODEL      110
REMARK 921   NORMALIZED FREE ENERGY PREDICTED BY IDOCK:   -3.63 KCAL/MOL
REMARK 922        TOTAL FREE ENERGY PREDICTED BY IDOCK:   -4.28 KCAL/MOL
REMARK 923 INTER-LIGAND FREE ENERGY PREDICTED BY IDOCK:   -3.82 KCAL/MOL
REMARK 924 INTRA-LIGAND FREE ENERGY PREDICTED BY IDOCK:   -0.46 KCAL/MOL
REMARK 927      BINDING AFFINITY PREDICTED BY RF-SCORE:    0.00 PKD
ROOT
HETATM    1  C   UNL     1     -10.647   5.430  69.623  1.00  0.00    -0.258 C  
HETATM    2  S   UNL     1      -9.194   5.415  70.756  1.00  0.00    -0.153 SA 
HETATM    3  C   UNL     1      -9.216   7.232  71.065  1.00  0.00    -0.154 C  
HETATM    4  CA  UNL     1     -10.674   7.664  70.766  1.00  0.00    -0.226 C  
HETATM    5  C   UNL     1      -8.203   7.878  70.098  1.00  0.00    -0.125 C  
HETATM    6  C   UNL     1      -8.713   7.507  72.485  1.00  0.00    -0.163 C  
HETATM    7  N   UNL     1     -11.162   6.816  69.656  1.00  0.00    -0.300 N  
HETATM    8  C   UNL     1     -11.666   7.514  71.933  1.00  0.00    -0.284 C  
HETATM    9  C   UNL     1     -10.772   7.091  68.371  1.00  0.00    -0.179 C  
HETATM   10  OXT UNL     1     -11.508   7.981  73.050  1.00  0.00    -0.370 OA 
HETATM   11  O   UNL     1     -12.813   6.870  71.594  1.00  0.00    -0.373 OA 
HETATM   12  CA  UNL     1     -10.383   5.618  68.103  1.00  0.00    -0.197 C  
HETATM   13  O   UNL     1     -10.630   8.148  67.800  1.00  0.00    -0.222 OA 
ENDROOT
BRANCH  12  14
HETATM   14  N   UNL     1      -8.995   5.354  67.627  1.00  0.00    -0.109 N  
HETATM   15  C   UNL     1      -8.651   4.080  67.238  1.00  0.00    -0.101 C  
HETATM   16  H   UNL     1      -8.309   6.109  67.589  1.00  0.00     0.000 HD 
HETATM   17  C   UNL     1      -7.190   3.831  66.911  1.00  0.00    -0.064 C  
HETATM   18  O   UNL     1      -9.497   3.186  67.151  1.00  0.00    -0.189 OA 
HETATM   19  C   UNL     1      -6.701   2.460  67.360  1.00  0.00    -0.040 C  
HETATM   20  C   UNL     1      -6.886   4.073  65.439  1.00  0.00    -0.057 A  
HETATM   21  O   UNL     1      -7.627   1.479  67.462  1.00  0.00    -0.056 OA 
HETATM   22  C   UNL     1      -5.590   4.454  65.054  1.00  0.00    -0.014 A  
HETATM   23  O   UNL     1      -5.517   2.231  67.595  1.00  0.00    -0.016 OA 
HETATM   24  C   UNL     1      -5.279   4.648  63.707  1.00  0.00    -0.009 A  
HETATM   25  C   UNL     1      -6.254   4.467  62.729  1.00  0.00    -0.018 A  
HETATM   26  C   UNL     1      -7.541   4.086  63.095  1.00  0.00    -0.058 A  
HETATM   27  C   UNL     1      -7.854   3.883  64.439  1.00  0.00    -0.085 A  
ENDBRANCH  12  14
TORSDOF 1
ENDMDL
MODEL      111
REMARK 921   NORMALIZED FREE ENERGY PREDICTED BY IDOCK:   -3.62 KCAL/MOL
REMARK 922        TOTAL FREE ENERGY PREDICTED BY IDOCK:   -4.28 KCAL/MOL
REMARK 923 INTER-LIGAND FREE ENERGY PREDICTED BY IDOCK:   -3.74 KCAL/MOL
REMARK 924 INTRA-LIGAND FREE ENERGY PREDICTED BY IDOCK:   -0.54 KCAL/MOL
REMARK 927      BINDING AFFINITY PREDICTED BY RF-SCORE:    0.00 PKD
ROOT
HETATM    1  C   UNL     1     -10.495   8.250  67.192  1.00  0.00    -0.316 C  
HETATM    2  S   UNL     1     -10.750   9.682  68.322  1.00  0.00    -0.186 SA 
HETATM    3  C   UNL     1      -9.095  10.428  68.007  1.00  0.00    -0.136 C  
HETATM    4  CA  UNL     1      -8.672   9.877  66.622  1.00  0.00    -0.128 C  
HETATM    5  C   UNL     1      -8.153   9.960  69.135  1.00  0.00    -0.118 C  
HETATM    6  C   UNL     1      -9.200  11.951  68.120  1.00  0.00    -0.187 C  
HETATM    7  N   UNL     1      -9.202   8.500  66.520  1.00  0.00    -0.176 N  
HETATM    8  C   UNL     1      -9.192  10.664  65.405  1.00  0.00    -0.193 C  
HETATM    9  C   UNL     1      -8.560   7.477  67.169  1.00  0.00    -0.121 C  
HETATM   10  OXT UNL     1      -9.047  11.864  65.234  1.00  0.00     0.002 OA 
HETATM   11  O   UNL     1      -9.775   9.882  64.459  1.00  0.00    -0.291 OA 
HETATM   12  CA  UNL     1      -9.878   6.953  67.786  1.00  0.00    -0.136 C  
HETATM   13  O   UNL     1      -7.380   7.253  67.313  1.00  0.00    -0.092 OA 
ENDROOT
BRANCH  12  14
HETATM   14  N   UNL     1      -9.927   6.807  69.269  1.00  0.00    -0.158 N  
HETATM   15  C   UNL     1      -9.439   5.657  69.846  1.00  0.00    -0.156 C  
HETATM   16  H   UNL     1     -10.317   7.551  69.849  1.00  0.00     0.000 HD 
HETATM   17  C   UNL     1      -9.654   5.491  71.339  1.00  0.00    -0.195 C  
HETATM   18  O   UNL     1      -8.846   4.806  69.177  1.00  0.00    -0.089 OA 
HETATM   19  C   UNL     1      -9.954   4.054  71.744  1.00  0.00    -0.170 C  
HETATM   20  C   UNL     1      -8.499   6.066  72.147  1.00  0.00    -0.124 A  
HETATM   21  O   UNL     1      -9.482   3.075  70.940  1.00  0.00    -0.140 OA 
HETATM   22  C   UNL     1      -8.731   6.526  73.454  1.00  0.00    -0.132 A  
HETATM   23  O   UNL     1     -10.571   3.778  72.770  1.00  0.00    -0.169 OA 
HETATM   24  C   UNL     1      -7.682   7.026  74.227  1.00  0.00    -0.127 A  
HETATM   25  C   UNL     1      -6.390   7.073  73.708  1.00  0.00    -0.066 A  
HETATM   26  C   UNL     1      -6.144   6.618  72.417  1.00  0.00    -0.042 A  
HETATM   27  C   UNL     1      -7.188   6.111  71.644  1.00  0.00    -0.087 A  
ENDBRANCH  12  14
TORSDOF 1
ENDMDL
MODEL      112
REMARK 921   NORMALIZED FREE ENERGY PREDICTED BY IDOCK:   -3.54 KCAL/MOL
REMARK 922        TOTAL FREE ENERGY PREDICTED BY IDOCK:   -4.19 KCAL/MOL
REMARK 923 INTER-LIGAND FREE ENERGY PREDICTED BY IDOCK:   -3.87 KCAL/MOL
REMARK 924 INTRA-LIGAND FREE ENERGY PREDICTED BY IDOCK:   -0.31 KCAL/MOL
REMARK 927      BINDING AFFINITY PREDICTED BY RF-SCORE:    0.00 PKD
ROOT
HETATM    1  C   UNL     1      -8.502   8.384  70.970  1.00  0.00    -0.143 C  
HETATM    2  S   UNL     1      -8.021   6.624  70.720  1.00  0.00    -0.112 SA 
HETATM    3  C   UNL     1      -6.313   6.831  71.382  1.00  0.00    -0.042 C  
HETATM    4  CA  UNL     1      -6.395   8.077  72.300  1.00  0.00    -0.056 C  
HETATM    5  C   UNL     1      -5.373   7.051  70.179  1.00  0.00    -0.023 C  
HETATM    6  C   UNL     1      -5.874   5.529  72.057  1.00  0.00    -0.025 C  
HETATM    7  N   UNL     1      -7.367   9.008  71.685  1.00  0.00    -0.015 N  
HETATM    8  C   UNL     1      -6.859   7.812  73.744  1.00  0.00    -0.093 C  
HETATM    9  C   UNL     1      -6.988   9.772  70.611  1.00  0.00    -0.094 C  
HETATM   10  OXT UNL     1      -6.357   6.997  74.501  1.00  0.00    -0.082 OA 
HETATM   11  O   UNL     1      -7.852   8.641  74.158  1.00  0.00    -0.398 OA 
HETATM   12  CA  UNL     1      -8.249   9.381  69.804  1.00  0.00    -0.143 C  
HETATM   13  O   UNL     1      -5.950  10.348  70.382  1.00  0.00    -0.079 OA 
ENDROOT
BRANCH  12  14
HETATM   14  N   UNL     1      -8.037   8.790  68.452  1.00  0.00    -0.116 N  
HETATM   15  C   UNL     1      -9.115   8.276  67.769  1.00  0.00    -0.132 C  
HETATM   16  H   UNL     1      -7.105   8.767  68.038  1.00  0.00     0.000 HD 
HETATM   17  C   UNL     1      -8.824   7.548  66.470  1.00  0.00    -0.167 C  
HETATM   18  O   UNL     1     -10.266   8.412  68.193  1.00  0.00    -0.194 OA 
HETATM   19  C   UNL     1      -9.720   6.336  66.248  1.00  0.00    -0.041 C  
HETATM   20  C   UNL     1      -8.855   8.486  65.272  1.00  0.00    -0.144 A  
HETATM   21  O   UNL     1     -10.933   6.350  66.847  1.00  0.00    -0.370 OA 
HETATM   22  C   UNL     1      -8.090   8.180  64.133  1.00  0.00    -0.128 A  
HETATM   23  O   UNL     1      -9.384   5.394  65.536  1.00  0.00    -0.136 OA 
HETATM   24  C   UNL     1      -8.129   9.008  63.010  1.00  0.00    -0.167 A  
HETATM   25  C   UNL     1      -8.927  10.149  63.007  1.00  0.00    -0.259 A  
HETATM   26  C   UNL     1      -9.692  10.464  64.125  1.00  0.00    -0.387 A  
HETATM   27  C   UNL     1      -9.663   9.636  65.247  1.00  0.00    -0.330 A  
ENDBRANCH  12  14
TORSDOF 1
ENDMDL
MODEL      113
REMARK 921   NORMALIZED FREE ENERGY PREDICTED BY IDOCK:   -3.52 KCAL/MOL
REMARK 922        TOTAL FREE ENERGY PREDICTED BY IDOCK:   -4.17 KCAL/MOL
REMARK 923 INTER-LIGAND FREE ENERGY PREDICTED BY IDOCK:   -3.71 KCAL/MOL
REMARK 924 INTRA-LIGAND FREE ENERGY PREDICTED BY IDOCK:   -0.46 KCAL/MOL
REMARK 927      BINDING AFFINITY PREDICTED BY RF-SCORE:    0.00 PKD
ROOT
HETATM    1  C   UNL     1      -8.006   8.081  67.023  1.00  0.00    -0.108 C  
HETATM    2  S   UNL     1      -7.394   8.055  68.760  1.00  0.00    -0.087 SA 
HETATM    3  C   UNL     1      -8.745   6.970  69.387  1.00  0.00    -0.133 C  
HETATM    4  CA  UNL     1      -9.249   6.207  68.136  1.00  0.00    -0.117 C  
HETATM    5  C   UNL     1      -9.831   7.883  69.992  1.00  0.00    -0.181 C  
HETATM    6  C   UNL     1      -8.206   6.103  70.528  1.00  0.00    -0.114 C  
HETATM    7  N   UNL     1      -9.140   7.132  66.987  1.00  0.00    -0.130 N  
HETATM    8  C   UNL     1      -8.470   4.929  67.776  1.00  0.00    -0.104 C  
HETATM    9  C   UNL     1     -10.079   8.116  66.817  1.00  0.00    -0.295 C  
HETATM   10  OXT UNL     1      -8.252   4.003  68.541  1.00  0.00    -0.075 OA 
HETATM   11  O   UNL     1      -8.100   4.866  66.470  1.00  0.00    -0.106 OA 
HETATM   12  CA  UNL     1      -8.999   9.205  66.616  1.00  0.00    -0.137 C  
HETATM   13  O   UNL     1     -11.279   8.096  66.975  1.00  0.00     0.234 OA 
ENDROOT
BRANCH  12  14
HETATM   14  N   UNL     1      -9.060  10.399  67.507  1.00  0.00    -0.135 N  
HETATM   15  C   UNL     1      -8.285  11.497  67.210  1.00  0.00    -0.155 C  
HETATM   16  H   UNL     1      -9.668  10.403  68.326  1.00  0.00     0.000 HD 
HETATM   17  C   UNL     1      -8.264  12.621  68.229  1.00  0.00    -0.164 C  
HETATM   18  O   UNL     1      -7.645  11.563  66.158  1.00  0.00     0.015 OA 
HETATM   19  C   UNL     1      -6.897  13.279  68.368  1.00  0.00    -0.098 C  
HETATM   20  C   UNL     1      -9.351  13.652  67.962  1.00  0.00    -0.208 A  
HETATM   21  O   UNL     1      -6.075  13.220  67.296  1.00  0.00    -0.328 OA 
HETATM   22  C   UNL     1      -9.868  14.406  69.029  1.00  0.00    -0.106 A  
HETATM   23  O   UNL     1      -6.554  13.867  69.390  1.00  0.00    -0.114 OA 
HETATM   24  C   UNL     1     -10.840  15.381  68.803  1.00  0.00    -0.252 A  
HETATM   25  C   UNL     1     -11.311  15.616  67.513  1.00  0.00    -0.198 A  
HETATM   26  C   UNL     1     -10.807  14.880  66.446  1.00  0.00    -0.325 A  
HETATM   27  C   UNL     1      -9.829  13.911  66.666  1.00  0.00    -0.288 A  
ENDBRANCH  12  14
TORSDOF 1
ENDMDL
MODEL      114
REMARK 921   NORMALIZED FREE ENERGY PREDICTED BY IDOCK:   -3.50 KCAL/MOL
REMARK 922        TOTAL FREE ENERGY PREDICTED BY IDOCK:   -4.15 KCAL/MOL
REMARK 923 INTER-LIGAND FREE ENERGY PREDICTED BY IDOCK:   -3.64 KCAL/MOL
REMARK 924 INTRA-LIGAND FREE ENERGY PREDICTED BY IDOCK:   -0.51 KCAL/MOL
REMARK 927      BINDING AFFINITY PREDICTED BY RF-SCORE:    0.00 PKD
ROOT
HETATM    1  C   UNL     1      -6.469   9.218  71.003  1.00  0.00    -0.086 C  
HETATM    2  S   UNL     1      -5.436   8.710  69.565  1.00  0.00    -0.030 SA 
HETATM    3  C   UNL     1      -6.237   9.870  68.378  1.00  0.00    -0.050 C  
HETATM    4  CA  UNL     1      -6.834  10.991  69.265  1.00  0.00    -0.110 C  
HETATM    5  C   UNL     1      -7.324   9.081  67.621  1.00  0.00    -0.084 C  
HETATM    6  C   UNL     1      -5.205  10.316  67.337  1.00  0.00    -0.040 C  
HETATM    7  N   UNL     1      -7.280  10.359  70.526  1.00  0.00     0.121 N  
HETATM    8  C   UNL     1      -5.868  12.132  69.637  1.00  0.00    -0.107 C  
HETATM    9  C   UNL     1      -8.456   9.655  70.552  1.00  0.00    -0.080 C  
HETATM   10  OXT UNL     1      -5.219  12.788  68.837  1.00  0.00    -0.066 OA 
HETATM   11  O   UNL     1      -5.854  12.423  70.964  1.00  0.00    -0.344 OA 
HETATM   12  CA  UNL     1      -7.795   8.447  71.256  1.00  0.00    -0.111 C  
HETATM   13  O   UNL     1      -9.522   9.881  70.025  1.00  0.00    -0.231 OA 
ENDROOT
BRANCH  12  14
HETATM   14  N   UNL     1      -7.931   7.115  70.600  1.00  0.00    -0.099 N  
HETATM   15  C   UNL     1      -9.104   6.411  70.747  1.00  0.00    -0.151 C  
HETATM   16  H   UNL     1      -7.163   6.730  70.048  1.00  0.00     0.000 HD 
HETATM   17  C   UNL     1      -9.134   5.000  70.193  1.00  0.00    -0.163 C  
HETATM   18  O   UNL     1     -10.087   6.914  71.297  1.00  0.00    -0.191 OA 
HETATM   19  C   UNL     1      -9.928   4.032  71.061  1.00  0.00    -0.106 C  
HETATM   20  C   UNL     1      -9.609   4.965  68.747  1.00  0.00    -0.219 A  
HETATM   21  O   UNL     1     -10.906   4.558  71.832  1.00  0.00     0.015 OA 
HETATM   22  C   UNL     1      -9.185   3.924  67.903  1.00  0.00    -0.209 A  
HETATM   23  O   UNL     1      -9.722   2.821  71.049  1.00  0.00    -0.155 OA 
HETATM   24  C   UNL     1      -9.635   3.853  66.584  1.00  0.00    -0.215 A  
HETATM   25  C   UNL     1     -10.510   4.817  66.088  1.00  0.00    -0.332 A  
HETATM   26  C   UNL     1     -10.941   5.851  66.912  1.00  0.00    -0.304 A  
HETATM   27  C   UNL     1     -10.501   5.922  68.234  1.00  0.00    -0.293 A  
ENDBRANCH  12  14
TORSDOF 1
ENDMDL
MODEL      115
REMARK 921   NORMALIZED FREE ENERGY PREDICTED BY IDOCK:   -3.46 KCAL/MOL
REMARK 922        TOTAL FREE ENERGY PREDICTED BY IDOCK:   -4.11 KCAL/MOL
REMARK 923 INTER-LIGAND FREE ENERGY PREDICTED BY IDOCK:   -4.58 KCAL/MOL
REMARK 924 INTRA-LIGAND FREE ENERGY PREDICTED BY IDOCK:    0.47 KCAL/MOL
REMARK 927      BINDING AFFINITY PREDICTED BY RF-SCORE:    0.00 PKD
ROOT
HETATM    1  C   UNL     1      -8.727   8.974  69.401  1.00  0.00    -0.142 C  
HETATM    2  S   UNL     1      -8.542  10.727  68.867  1.00  0.00    -0.130 SA 
HETATM    3  C   UNL     1     -10.299  10.919  68.344  1.00  0.00    -0.178 C  
HETATM    4  CA  UNL     1     -11.069   9.840  69.148  1.00  0.00    -0.123 C  
HETATM    5  C   UNL     1     -10.360  10.671  66.823  1.00  0.00    -0.299 C  
HETATM    6  C   UNL     1     -10.737  12.368  68.576  1.00  0.00    -0.262 C  
HETATM    7  N   UNL     1     -10.170   8.673  69.282  1.00  0.00    -0.207 N  
HETATM    8  C   UNL     1     -11.507  10.252  70.565  1.00  0.00    -0.343 C  
HETATM    9  C   UNL     1     -10.002   7.821  68.221  1.00  0.00    -0.178 C  
HETATM   10  OXT UNL     1     -12.156  11.251  70.834  1.00  0.00    -0.348 OA 
HETATM   11  O   UNL     1     -11.180   9.344  71.522  1.00  0.00    -0.355 OA 
HETATM   12  CA  UNL     1      -8.461   7.860  68.349  1.00  0.00    -0.128 C  
HETATM   13  O   UNL     1     -10.799   7.399  67.415  1.00  0.00    -0.274 OA 
ENDROOT
BRANCH  12  14
HETATM   14  N   UNL     1      -7.684   8.253  67.139  1.00  0.00    -0.096 N  
HETATM   15  C   UNL     1      -7.927   7.609  65.948  1.00  0.00    -0.116 C  
HETATM   16  H   UNL     1      -6.981   8.991  67.194  1.00  0.00     0.000 HD 
HETATM   17  C   UNL     1      -7.005   7.936  64.788  1.00  0.00    -0.062 C  
HETATM   18  O   UNL     1      -8.859   6.810  65.831  1.00  0.00    -0.156 OA 
HETATM   19  C   UNL     1      -6.688   6.728  63.916  1.00  0.00    -0.048 C  
HETATM   20  C   UNL     1      -7.527   9.099  63.956  1.00  0.00    -0.110 A  
HETATM   21  O   UNL     1      -7.599   5.729  63.894  1.00  0.00    -0.070 OA 
HETATM   22  C   UNL     1      -6.620   9.903  63.244  1.00  0.00    -0.125 A  
HETATM   23  O   UNL     1      -5.669   6.663  63.233  1.00  0.00    -0.032 OA 
HETATM   24  C   UNL     1      -7.078  10.953  62.447  1.00  0.00    -0.048 A  
HETATM   25  C   UNL     1      -8.442  11.217  62.351  1.00  0.00    -0.201 A  
HETATM   26  C   UNL     1      -9.353  10.429  63.048  1.00  0.00    -0.344 A  
HETATM   27  C   UNL     1      -8.900   9.373  63.838  1.00  0.00    -0.205 A  
ENDBRANCH  12  14
TORSDOF 1
ENDMDL
MODEL      116
REMARK 921   NORMALIZED FREE ENERGY PREDICTED BY IDOCK:   -3.26 KCAL/MOL
REMARK 922        TOTAL FREE ENERGY PREDICTED BY IDOCK:   -3.90 KCAL/MOL
REMARK 923 INTER-LIGAND FREE ENERGY PREDICTED BY IDOCK:   -3.71 KCAL/MOL
REMARK 924 INTRA-LIGAND FREE ENERGY PREDICTED BY IDOCK:   -0.19 KCAL/MOL
REMARK 927      BINDING AFFINITY PREDICTED BY RF-SCORE:    0.00 PKD
ROOT
HETATM    1  C   UNL     1      -8.599   9.655  67.808  1.00  0.00    -0.125 C  
HETATM    2  S   UNL     1      -7.186   9.518  68.982  1.00  0.00    -0.073 SA 
HETATM    3  C   UNL     1      -6.703   7.821  68.450  1.00  0.00    -0.062 C  
HETATM    4  CA  UNL     1      -7.264   7.685  67.011  1.00  0.00    -0.089 C  
HETATM    5  C   UNL     1      -7.356   6.824  69.429  1.00  0.00    -0.092 C  
HETATM    6  C   UNL     1      -5.187   7.660  68.596  1.00  0.00    -0.026 C  
HETATM    7  N   UNL     1      -8.534   8.442  66.965  1.00  0.00    -0.120 N  
HETATM    8  C   UNL     1      -6.361   8.230  65.890  1.00  0.00    -0.052 C  
HETATM    9  C   UNL     1      -9.670   7.893  67.505  1.00  0.00    -0.159 C  
HETATM   10  OXT UNL     1      -5.194   7.916  65.716  1.00  0.00    -0.028 OA 
HETATM   11  O   UNL     1      -7.005   9.055  65.024  1.00  0.00    -0.078 OA 
HETATM   12  CA  UNL     1      -9.998   9.183  68.293  1.00  0.00    -0.175 C  
HETATM   13  O   UNL     1     -10.084   6.757  67.480  1.00  0.00    -0.146 OA 
ENDROOT
BRANCH  12  14
HETATM   14  N   UNL     1     -10.188   9.054  69.766  1.00  0.00    -0.198 N  
HETATM   15  C   UNL     1     -11.257   8.332  70.243  1.00  0.00    -0.176 C  
HETATM   16  H   UNL     1      -9.533   9.496  70.412  1.00  0.00     0.000 HD 
HETATM   17  C   UNL     1     -11.494   8.361  71.742  1.00  0.00    -0.365 C  
HETATM   18  O   UNL     1     -11.983   7.683  69.484  1.00  0.00     0.619 OA 
HETATM   19  C   UNL     1     -12.970   8.384  72.115  1.00  0.00    -0.337 C  
HETATM   20  C   UNL     1     -10.759   7.236  72.456  1.00  0.00    -0.301 A  
HETATM   21  O   UNL     1     -13.838   7.848  71.227  1.00  0.00    -0.281 OA 
HETATM   22  C   UNL     1     -10.376   7.402  73.798  1.00  0.00    -0.299 A  
HETATM   23  O   UNL     1     -13.369   8.839  73.184  1.00  0.00    -0.214 OA 
HETATM   24  C   UNL     1      -9.732   6.371  74.484  1.00  0.00    -0.329 A  
HETATM   25  C   UNL     1      -9.461   5.164  73.844  1.00  0.00    -0.133 A  
HETATM   26  C   UNL     1      -9.837   4.984  72.517  1.00  0.00    -0.200 A  
HETATM   27  C   UNL     1     -10.488   6.008  71.830  1.00  0.00    -0.268 A  
ENDBRANCH  12  14
TORSDOF 1
ENDMDL
MODEL      117
REMARK 921   NORMALIZED FREE ENERGY PREDICTED BY IDOCK:   -3.21 KCAL/MOL
REMARK 922        TOTAL FREE ENERGY PREDICTED BY IDOCK:   -3.84 KCAL/MOL
REMARK 923 INTER-LIGAND FREE ENERGY PREDICTED BY IDOCK:   -3.78 KCAL/MOL
REMARK 924 INTRA-LIGAND FREE ENERGY PREDICTED BY IDOCK:   -0.06 KCAL/MOL
REMARK 927      BINDING AFFINITY PREDICTED BY RF-SCORE:    0.00 PKD
ROOT
HETATM    1  C   UNL     1      -9.609   6.953  70.454  1.00  0.00    -0.169 C  
HETATM    2  S   UNL     1      -9.215   8.753  70.440  1.00  0.00    -0.195 SA 
HETATM    3  C   UNL     1     -10.822   9.260  69.694  1.00  0.00    -0.212 C  
HETATM    4  CA  UNL     1     -11.799   8.109  70.042  1.00  0.00     0.432 C  
HETATM    5  C   UNL     1     -10.603   9.403  68.175  1.00  0.00    -0.261 C  
HETATM    6  C   UNL     1     -11.205  10.646  70.221  1.00  0.00    -0.365 C  
HETATM    7  N   UNL     1     -11.018   6.852  70.017  1.00  0.00    -0.264 N  
HETATM    8  C   UNL     1     -12.476   8.204  71.422  1.00  0.00    -0.292 C  
HETATM    9  C   UNL     1     -10.701   6.276  68.814  1.00  0.00    -0.297 C  
HETATM   10  OXT UNL     1     -13.100   9.170  71.830  1.00  0.00    -0.342 OA 
HETATM   11  O   UNL     1     -12.397   7.058  72.148  1.00  0.00    -0.275 OA 
HETATM   12  CA  UNL     1      -9.215   6.111  69.209  1.00  0.00    -0.132 C  
HETATM   13  O   UNL     1     -11.353   6.156  67.801  1.00  0.00    -0.201 OA 
ENDROOT
BRANCH  12  14
HETATM   14  N   UNL     1      -8.195   6.703  68.296  1.00  0.00    -0.114 N  
HETATM   15  C   UNL     1      -8.101   6.237  67.004  1.00  0.00    -0.109 C  
HETATM   16  H   UNL     1      -7.575   7.444  68.624  1.00  0.00     0.000 HD 
HETATM   17  C   UNL     1      -6.950   6.760  66.166  1.00  0.00    -0.061 C  
HETATM   18  O   UNL     1      -8.925   5.439  66.550  1.00  0.00    -0.116 OA 
HETATM   19  C   UNL     1      -6.355   5.706  65.242  1.00  0.00    -0.038 C  
HETATM   20  C   UNL     1      -7.329   8.019  65.400  1.00  0.00    -0.069 A  
HETATM   21  O   UNL     1      -7.168   4.696  64.856  1.00  0.00    -0.061 OA 
HETATM   22  C   UNL     1      -6.331   8.945  65.053  1.00  0.00    -0.065 A  
HETATM   23  O   UNL     1      -5.199   5.772  64.831  1.00  0.00    -0.009 OA 
HETATM   24  C   UNL     1      -6.649  10.090  64.321  1.00  0.00    -0.130 A  
HETATM   25  C   UNL     1      -7.964  10.327  63.926  1.00  0.00    -0.126 A  
HETATM   26  C   UNL     1      -8.962   9.418  64.259  1.00  0.00    -0.204 A  
HETATM   27  C   UNL     1      -8.648   8.269  64.984  1.00  0.00    -0.102 A  
ENDBRANCH  12  14
TORSDOF 1
ENDMDL
MODEL      118
REMARK 921   NORMALIZED FREE ENERGY PREDICTED BY IDOCK:   -3.19 KCAL/MOL
REMARK 922        TOTAL FREE ENERGY PREDICTED BY IDOCK:   -3.82 KCAL/MOL
REMARK 923 INTER-LIGAND FREE ENERGY PREDICTED BY IDOCK:   -3.38 KCAL/MOL
REMARK 924 INTRA-LIGAND FREE ENERGY PREDICTED BY IDOCK:   -0.44 KCAL/MOL
REMARK 927      BINDING AFFINITY PREDICTED BY RF-SCORE:    0.00 PKD
ROOT
HETATM    1  C   UNL     1      -8.412   8.187  66.086  1.00  0.00    -0.136 C  
HETATM    2  S   UNL     1     -10.105   8.899  66.235  1.00  0.00    -0.099 SA 
HETATM    3  C   UNL     1      -9.559  10.647  66.034  1.00  0.00    -0.198 C  
HETATM    4  CA  UNL     1      -8.210  10.554  65.276  1.00  0.00    -0.146 C  
HETATM    5  C   UNL     1      -9.397  11.248  67.445  1.00  0.00    -0.168 C  
HETATM    6  C   UNL     1     -10.665  11.443  65.336  1.00  0.00    -0.313 C  
HETATM    7  N   UNL     1      -7.532   9.324  65.744  1.00  0.00    -0.096 N  
HETATM    8  C   UNL     1      -8.311  10.470  63.742  1.00  0.00    -0.101 C  
HETATM    9  C   UNL     1      -6.897   9.321  66.959  1.00  0.00    -0.080 C  
HETATM   10  OXT UNL     1      -8.920  11.260  63.038  1.00  0.00    -0.237 OA 
HETATM   11  O   UNL     1      -7.576   9.464  63.202  1.00  0.00    -0.105 OA 
HETATM   12  CA  UNL     1      -7.582   8.002  67.387  1.00  0.00    -0.097 C  
HETATM   13  O   UNL     1      -6.223  10.168  67.499  1.00  0.00    -0.057 OA 
ENDROOT
BRANCH  12  14
HETATM   14  N   UNL     1      -8.340   8.011  68.672  1.00  0.00    -0.126 N  
HETATM   15  C   UNL     1      -8.306   6.896  69.478  1.00  0.00    -0.133 C  
HETATM   16  H   UNL     1      -8.877   8.833  68.949  1.00  0.00     0.000 HD 
HETATM   17  C   UNL     1      -9.215   6.897  70.692  1.00  0.00    -0.158 C  
HETATM   18  O   UNL     1      -7.561   5.945  69.225  1.00  0.00    -0.085 OA 
HETATM   19  C   UNL     1      -9.821   5.531  70.988  1.00  0.00    -0.182 C  
HETATM   20  C   UNL     1      -8.525   7.476  71.920  1.00  0.00    -0.120 A  
HETATM   21  O   UNL     1      -9.131   4.448  70.567  1.00  0.00    -0.099 OA 
HETATM   22  C   UNL     1      -9.296   8.081  72.927  1.00  0.00    -0.338 A  
HETATM   23  O   UNL     1     -10.873   5.402  71.608  1.00  0.00    -0.229 OA 
HETATM   24  C   UNL     1      -8.689   8.587  74.077  1.00  0.00     0.246 A  
HETATM   25  C   UNL     1      -7.308   8.499  74.238  1.00  0.00    -0.179 A  
HETATM   26  C   UNL     1      -6.532   7.899  73.252  1.00  0.00    -0.079 A  
HETATM   27  C   UNL     1      -7.135   7.384  72.105  1.00  0.00    -0.067 A  
ENDBRANCH  12  14
TORSDOF 1
ENDMDL
MODEL      119
REMARK 921   NORMALIZED FREE ENERGY PREDICTED BY IDOCK:   -3.11 KCAL/MOL
REMARK 922        TOTAL FREE ENERGY PREDICTED BY IDOCK:   -3.73 KCAL/MOL
REMARK 923 INTER-LIGAND FREE ENERGY PREDICTED BY IDOCK:   -3.53 KCAL/MOL
REMARK 924 INTRA-LIGAND FREE ENERGY PREDICTED BY IDOCK:   -0.21 KCAL/MOL
REMARK 927      BINDING AFFINITY PREDICTED BY RF-SCORE:    0.00 PKD
ROOT
HETATM    1  C   UNL     1      -7.079  15.447  67.547  1.00  0.00    -0.192 C  
HETATM    2  S   UNL     1      -8.681  15.277  66.653  1.00  0.00    -0.272 SA 
HETATM    3  C   UNL     1      -9.725  15.595  68.138  1.00  0.00    -0.204 C  
HETATM    4  CA  UNL     1      -8.809  16.394  69.100  1.00  0.00    -0.186 C  
HETATM    5  C   UNL     1     -10.132  14.226  68.720  1.00  0.00    -0.217 C  
HETATM    6  C   UNL     1     -11.016  16.296  67.705  1.00  0.00    -0.281 C  
HETATM    7  N   UNL     1      -7.432  15.884  68.915  1.00  0.00    -0.164 N  
HETATM    8  C   UNL     1      -8.771  17.916  68.873  1.00  0.00    -0.114 C  
HETATM    9  C   UNL     1      -7.068  14.694  69.490  1.00  0.00    -0.152 C  
HETATM   10  OXT UNL     1      -9.753  18.641  68.829  1.00  0.00    -0.360 OA 
HETATM   11  O   UNL     1      -7.514  18.427  68.806  1.00  0.00    -0.286 OA 
HETATM   12  CA  UNL     1      -6.453  14.169  68.171  1.00  0.00    -0.126 C  
HETATM   13  O   UNL     1      -7.336  14.227  70.573  1.00  0.00     0.503 OA 
ENDROOT
BRANCH  12  14
HETATM   14  N   UNL     1      -6.952  12.860  67.658  1.00  0.00    -0.138 N  
HETATM   15  C   UNL     1      -6.696  11.716  68.379  1.00  0.00    -0.064 C  
HETATM   16  H   UNL     1      -7.477  12.814  66.784  1.00  0.00     0.000 HD 
HETATM   17  C   UNL     1      -7.087  10.398  67.738  1.00  0.00    -0.084 C  
HETATM   18  O   UNL     1      -6.180  11.767  69.499  1.00  0.00    -0.091 OA 
HETATM   19  C   UNL     1      -6.096   9.277  68.022  1.00  0.00    -0.049 C  
HETATM   20  C   UNL     1      -8.507   9.987  68.102  1.00  0.00    -0.114 A  
HETATM   21  O   UNL     1      -5.363   9.375  69.154  1.00  0.00    -0.036 OA 
HETATM   22  C   UNL     1      -9.239   9.172  67.222  1.00  0.00    -0.157 A  
HETATM   23  O   UNL     1      -5.976   8.305  67.280  1.00  0.00    -0.048 OA 
HETATM   24  C   UNL     1     -10.530   8.755  67.550  1.00  0.00    -0.340 A  
HETATM   25  C   UNL     1     -11.108   9.144  68.756  1.00  0.00     0.100 A  
HETATM   26  C   UNL     1     -10.394   9.948  69.639  1.00  0.00    -0.265 A  
HETATM   27  C   UNL     1      -9.101  10.361  69.319  1.00  0.00    -0.188 A  
ENDBRANCH  12  14
TORSDOF 1
ENDMDL
MODEL      120
REMARK 921   NORMALIZED FREE ENERGY PREDICTED BY IDOCK:   -3.04 KCAL/MOL
REMARK 922        TOTAL FREE ENERGY PREDICTED BY IDOCK:   -3.67 KCAL/MOL
REMARK 923 INTER-LIGAND FREE ENERGY PREDICTED BY IDOCK:   -3.13 KCAL/MOL
REMARK 924 INTRA-LIGAND FREE ENERGY PREDICTED BY IDOCK:   -0.54 KCAL/MOL
REMARK 927      BINDING AFFINITY PREDICTED BY RF-SCORE:    0.00 PKD
ROOT
HETATM    1  C   UNL     1      -8.914   8.778  70.712  1.00  0.00    -0.192 C  
HETATM    2  S   UNL     1     -10.230   7.490  70.668  1.00  0.00    -0.203 SA 
HETATM    3  C   UNL     1      -9.197   6.183  71.456  1.00  0.00    -0.146 C  
HETATM    4  CA  UNL     1      -8.113   6.960  72.245  1.00  0.00    -0.093 C  
HETATM    5  C   UNL     1      -8.596   5.323  70.326  1.00  0.00    -0.126 C  
HETATM    6  C   UNL     1     -10.098   5.262  72.284  1.00  0.00    -0.237 C  
HETATM    7  N   UNL     1      -7.793   8.175  71.465  1.00  0.00    -0.098 N  
HETATM    8  C   UNL     1      -8.516   7.413  73.661  1.00  0.00    -0.161 C  
HETATM    9  C   UNL     1      -6.982   8.079  70.363  1.00  0.00    -0.041 C  
HETATM   10  OXT UNL     1      -8.957   6.679  74.531  1.00  0.00    -0.164 OA 
HETATM   11  O   UNL     1      -8.255   8.723  73.908  1.00  0.00    -0.346 OA 
HETATM   12  CA  UNL     1      -7.963   8.891  69.487  1.00  0.00    -0.092 C  
HETATM   13  O   UNL     1      -5.984   7.421  70.175  1.00  0.00    -0.024 OA 
ENDROOT
BRANCH  12  14
HETATM   14  N   UNL     1      -8.429   8.261  68.218  1.00  0.00    -0.135 N  
HETATM   15  C   UNL     1      -7.647   8.367  67.091  1.00  0.00    -0.093 C  
HETATM   16  H   UNL     1      -9.316   7.758  68.186  1.00  0.00     0.000 HD 
HETATM   17  C   UNL     1      -8.235   7.846  65.794  1.00  0.00    -0.130 C  
HETATM   18  O   UNL     1      -6.514   8.855  67.140  1.00  0.00    -0.059 OA 
HETATM   19  C   UNL     1      -7.867   8.696  64.585  1.00  0.00    -0.129 C  
HETATM   20  C   UNL     1      -7.898   6.379  65.563  1.00  0.00    -0.103 A  
HETATM   21  O   UNL     1      -6.718   9.405  64.658  1.00  0.00    -0.083 OA 
HETATM   22  C   UNL     1      -8.761   5.583  64.791  1.00  0.00    -0.040 A  
HETATM   23  O   UNL     1      -8.557   8.724  63.569  1.00  0.00    -0.155 OA 
HETATM   24  C   UNL     1      -8.455   4.245  64.538  1.00  0.00    -0.111 A  
HETATM   25  C   UNL     1      -7.288   3.684  65.051  1.00  0.00    -0.072 A  
HETATM   26  C   UNL     1      -6.422   4.460  65.814  1.00  0.00    -0.037 A  
HETATM   27  C   UNL     1      -6.719   5.800  66.063  1.00  0.00    -0.056 A  
ENDBRANCH  12  14
TORSDOF 1
ENDMDL
MODEL      121
REMARK 921   NORMALIZED FREE ENERGY PREDICTED BY IDOCK:   -2.92 KCAL/MOL
REMARK 922        TOTAL FREE ENERGY PREDICTED BY IDOCK:   -3.54 KCAL/MOL
REMARK 923 INTER-LIGAND FREE ENERGY PREDICTED BY IDOCK:   -3.95 KCAL/MOL
REMARK 924 INTRA-LIGAND FREE ENERGY PREDICTED BY IDOCK:    0.41 KCAL/MOL
REMARK 927      BINDING AFFINITY PREDICTED BY RF-SCORE:    0.00 PKD
ROOT
HETATM    1  C   UNL     1      -8.801   5.427  70.897  1.00  0.00    -0.138 C  
HETATM    2  S   UNL     1      -8.435   6.539  72.320  1.00  0.00    -0.111 SA 
HETATM    3  C   UNL     1     -10.185   6.654  72.885  1.00  0.00    -0.195 C  
HETATM    4  CA  UNL     1     -10.865   5.379  72.326  1.00  0.00    -0.227 C  
HETATM    5  C   UNL     1     -10.781   7.945  72.287  1.00  0.00    -0.344 C  
HETATM    6  C   UNL     1     -10.213   6.816  74.408  1.00  0.00    -0.220 C  
HETATM    7  N   UNL     1     -10.236   5.087  71.019  1.00  0.00    -0.223 N  
HETATM    8  C   UNL     1     -10.729   4.116  73.196  1.00  0.00    -0.194 C  
HETATM    9  C   UNL     1     -10.598   5.815  69.915  1.00  0.00    -0.318 C  
HETATM   10  OXT UNL     1     -11.033   4.043  74.376  1.00  0.00    -0.151 OA 
HETATM   11  O   UNL     1     -10.310   3.022  72.507  1.00  0.00    -0.158 OA 
HETATM   12  CA  UNL     1      -9.125   6.082  69.525  1.00  0.00    -0.137 C  
HETATM   13  O   UNL     1     -11.682   6.217  69.557  1.00  0.00    -0.360 OA 
ENDROOT
BRANCH  12  14
HETATM   14  N   UNL     1      -8.713   7.504  69.349  1.00  0.00    -0.136 N  
HETATM   15  C   UNL     1      -7.400   7.854  69.566  1.00  0.00    -0.087 C  
HETATM   16  H   UNL     1      -9.396   8.210  69.070  1.00  0.00     0.000 HD 
HETATM   17  C   UNL     1      -7.066   9.333  69.526  1.00  0.00    -0.060 C  
HETATM   18  O   UNL     1      -6.536   6.998  69.775  1.00  0.00    -0.041 OA 
HETATM   19  C   UNL     1      -6.019   9.739  70.555  1.00  0.00    -0.072 C  
HETATM   20  C   UNL     1      -6.676   9.791  68.128  1.00  0.00    -0.061 A  
HETATM   21  O   UNL     1      -5.153   8.783  70.962  1.00  0.00    -0.027 OA 
HETATM   22  C   UNL     1      -6.885  11.129  67.754  1.00  0.00    -0.073 A  
HETATM   23  O   UNL     1      -5.932  10.886  70.984  1.00  0.00    -0.342 OA 
HETATM   24  C   UNL     1      -6.504  11.580  66.489  1.00  0.00    -0.037 A  
HETATM   25  C   UNL     1      -5.911  10.705  65.582  1.00  0.00    -0.133 A  
HETATM   26  C   UNL     1      -5.693   9.378  65.939  1.00  0.00    -0.049 A  
HETATM   27  C   UNL     1      -6.066   8.925  67.204  1.00  0.00    -0.058 A  
ENDBRANCH  12  14
TORSDOF 1
ENDMDL
MODEL      122
REMARK 921   NORMALIZED FREE ENERGY PREDICTED BY IDOCK:   -2.91 KCAL/MOL
REMARK 922        TOTAL FREE ENERGY PREDICTED BY IDOCK:   -3.52 KCAL/MOL
REMARK 923 INTER-LIGAND FREE ENERGY PREDICTED BY IDOCK:   -3.07 KCAL/MOL
REMARK 924 INTRA-LIGAND FREE ENERGY PREDICTED BY IDOCK:   -0.45 KCAL/MOL
REMARK 927      BINDING AFFINITY PREDICTED BY RF-SCORE:    0.00 PKD
ROOT
HETATM    1  C   UNL     1     -11.104  12.765  66.755  1.00  0.00    -0.277 C  
HETATM    2  S   UNL     1     -10.132  13.491  68.141  1.00  0.00    -0.254 SA 
HETATM    3  C   UNL     1      -9.036  14.498  67.054  1.00  0.00    -0.240 C  
HETATM    4  CA  UNL     1      -9.844  14.687  65.746  1.00  0.00    -0.328 C  
HETATM    5  C   UNL     1      -7.740  13.694  66.830  1.00  0.00     0.351 C  
HETATM    6  C   UNL     1      -8.641  15.782  67.790  1.00  0.00    -0.164 C  
HETATM    7  N   UNL     1     -10.626  13.449  65.534  1.00  0.00    -0.283 N  
HETATM    8  C   UNL     1     -10.835  15.866  65.739  1.00  0.00    -0.254 C  
HETATM    9  C   UNL     1     -10.005  12.332  65.038  1.00  0.00    -0.205 C  
HETATM   10  OXT UNL     1     -10.548  17.023  66.005  1.00  0.00    -0.299 OA 
HETATM   11  O   UNL     1     -12.082  15.528  65.318  1.00  0.00     0.203 OA 
HETATM   12  CA  UNL     1     -10.607  11.428  66.139  1.00  0.00    -0.265 C  
HETATM   13  O   UNL     1      -9.162  12.216  64.178  1.00  0.00     0.243 OA 
ENDROOT
BRANCH  12  14
HETATM   14  N   UNL     1      -9.656  10.625  66.959  1.00  0.00    -0.167 N  
HETATM   15  C   UNL     1      -9.794   9.257  66.999  1.00  0.00    -0.198 C  
HETATM   16  H   UNL     1      -8.911  11.085  67.485  1.00  0.00     0.000 HD 
HETATM   17  C   UNL     1      -8.902   8.503  67.968  1.00  0.00    -0.142 C  
HETATM   18  O   UNL     1     -10.601   8.673  66.271  1.00  0.00     0.013 OA 
HETATM   19  C   UNL     1      -9.600   7.320  68.628  1.00  0.00    -0.141 C  
HETATM   20  C   UNL     1      -7.589   8.082  67.324  1.00  0.00    -0.097 A  
HETATM   21  O   UNL     1     -10.623   6.753  67.950  1.00  0.00    -0.196 OA 
HETATM   22  C   UNL     1      -6.448   7.910  68.127  1.00  0.00    -0.055 A  
HETATM   23  O   UNL     1      -9.242   6.872  69.714  1.00  0.00    -0.147 OA 
HETATM   24  C   UNL     1      -5.242   7.491  67.564  1.00  0.00    -0.026 A  
HETATM   25  C   UNL     1      -5.155   7.241  66.197  1.00  0.00    -0.024 A  
HETATM   26  C   UNL     1      -6.276   7.404  65.390  1.00  0.00    -0.038 A  
HETATM   27  C   UNL     1      -7.486   7.814  65.949  1.00  0.00    -0.081 A  
ENDBRANCH  12  14
TORSDOF 1
ENDMDL
MODEL      123
REMARK 921   NORMALIZED FREE ENERGY PREDICTED BY IDOCK:   -2.85 KCAL/MOL
REMARK 922        TOTAL FREE ENERGY PREDICTED BY IDOCK:   -3.46 KCAL/MOL
REMARK 923 INTER-LIGAND FREE ENERGY PREDICTED BY IDOCK:   -2.96 KCAL/MOL
REMARK 924 INTRA-LIGAND FREE ENERGY PREDICTED BY IDOCK:   -0.50 KCAL/MOL
REMARK 927      BINDING AFFINITY PREDICTED BY RF-SCORE:    0.00 PKD
ROOT
HETATM    1  C   UNL     1      -8.915  13.558  65.352  1.00  0.00     1.280 C  
HETATM    2  S   UNL     1      -8.473  12.519  66.807  1.00  0.00     0.001 SA 
HETATM    3  C   UNL     1      -9.984  11.468  66.716  1.00  0.00    -0.208 C  
HETATM    4  CA  UNL     1     -10.449  11.574  65.241  1.00  0.00    -0.283 C  
HETATM    5  C   UNL     1     -11.017  12.054  67.699  1.00  0.00    -0.287 C  
HETATM    6  C   UNL     1      -9.648  10.059  67.213  1.00  0.00    -0.188 C  
HETATM    7  N   UNL     1     -10.136  12.946  64.783  1.00  0.00    -0.259 N  
HETATM    8  C   UNL     1      -9.780  10.595  64.259  1.00  0.00    -0.314 C  
HETATM    9  C   UNL     1     -10.945  13.987  65.158  1.00  0.00    -0.353 C  
HETATM   10  OXT UNL     1      -9.734   9.383  64.402  1.00  0.00     0.121 OA 
HETATM   11  O   UNL     1      -9.301  11.192  63.137  1.00  0.00    -0.280 OA 
HETATM   12  CA  UNL     1      -9.742  14.850  65.603  1.00  0.00    -0.291 C  
HETATM   13  O   UNL     1     -12.150  14.053  65.256  1.00  0.00    -0.369 OA 
ENDROOT
BRANCH  12  14
HETATM   14  N   UNL     1      -9.756  15.375  66.998  1.00  0.00    -0.221 N  
HETATM   15  C   UNL     1     -10.526  16.477  67.292  1.00  0.00    -0.304 C  
HETATM   16  H   UNL     1      -9.203  14.922  67.727  1.00  0.00     0.000 HD 
HETATM   17  C   UNL     1     -10.385  17.063  68.685  1.00  0.00    -0.351 C  
HETATM   18  O   UNL     1     -11.301  16.957  66.461  1.00  0.00     0.409 OA 
HETATM   19  C   UNL     1     -10.460  18.584  68.704  1.00  0.00    -0.090 C  
HETATM   20  C   UNL     1     -11.373  16.447  69.665  1.00  0.00    -0.188 A  
HETATM   21  O   UNL     1     -11.148  19.180  67.704  1.00  0.00    -0.362 OA 
HETATM   22  C   UNL     1     -11.056  16.404  71.033  1.00  0.00    -0.003 A  
HETATM   23  O   UNL     1      -9.950  19.254  69.599  1.00  0.00    -0.139 OA 
HETATM   24  C   UNL     1     -11.960  15.875  71.954  1.00  0.00    -0.588 A  
HETATM   25  C   UNL     1     -13.190  15.381  71.526  1.00  0.00    -0.572 A  
HETATM   26  C   UNL     1     -13.520  15.419  70.175  1.00  0.00     0.407 A  
HETATM   27  C   UNL     1     -12.623  15.955  69.251  1.00  0.00     0.469 A  
ENDBRANCH  12  14
TORSDOF 1
ENDMDL
MODEL      124
REMARK 921   NORMALIZED FREE ENERGY PREDICTED BY IDOCK:   -2.85 KCAL/MOL
REMARK 922        TOTAL FREE ENERGY PREDICTED BY IDOCK:   -3.46 KCAL/MOL
REMARK 923 INTER-LIGAND FREE ENERGY PREDICTED BY IDOCK:   -3.27 KCAL/MOL
REMARK 924 INTRA-LIGAND FREE ENERGY PREDICTED BY IDOCK:   -0.19 KCAL/MOL
REMARK 927      BINDING AFFINITY PREDICTED BY RF-SCORE:    0.00 PKD
ROOT
HETATM    1  C   UNL     1      -9.255   8.635  65.967  1.00  0.00    -0.216 C  
HETATM    2  S   UNL     1     -10.721   8.818  67.068  1.00  0.00     0.022 SA 
HETATM    3  C   UNL     1     -10.489  10.625  67.341  1.00  0.00    -0.235 C  
HETATM    4  CA  UNL     1      -9.668  11.106  66.118  1.00  0.00    -0.218 C  
HETATM    5  C   UNL     1      -9.721  10.799  68.667  1.00  0.00    -0.187 C  
HETATM    6  C   UNL     1     -11.858  11.285  67.531  1.00  0.00    -0.030 C  
HETATM    7  N   UNL     1      -8.748  10.007  65.752  1.00  0.00    -0.140 N  
HETATM    8  C   UNL     1     -10.487  11.461  64.864  1.00  0.00    -0.305 C  
HETATM    9  C   UNL     1      -7.609   9.802  66.488  1.00  0.00    -0.098 C  
HETATM   10  OXT UNL     1     -11.424  12.243  64.838  1.00  0.00    -0.316 OA 
HETATM   11  O   UNL     1     -10.020  10.882  63.727  1.00  0.00    -0.293 OA 
HETATM   12  CA  UNL     1      -7.890   8.288  66.624  1.00  0.00    -0.094 C  
HETATM   13  O   UNL     1      -6.833  10.593  66.975  1.00  0.00    -0.082 OA 
ENDROOT
BRANCH  12  14
HETATM   14  N   UNL     1      -7.934   7.722  68.002  1.00  0.00    -0.120 N  
HETATM   15  C   UNL     1      -8.453   6.461  68.193  1.00  0.00    -0.115 C  
HETATM   16  H   UNL     1      -7.585   8.262  68.795  1.00  0.00     0.000 HD 
HETATM   17  C   UNL     1      -8.619   5.996  69.627  1.00  0.00    -0.126 C  
HETATM   18  O   UNL     1      -8.758   5.743  67.238  1.00  0.00    -0.110 OA 
HETATM   19  C   UNL     1      -9.877   5.165  69.845  1.00  0.00    -0.219 C  
HETATM   20  C   UNL     1      -7.381   5.272  70.138  1.00  0.00    -0.067 A  
HETATM   21  O   UNL     1     -10.366   4.497  68.776  1.00  0.00     0.032 OA 
HETATM   22  C   UNL     1      -7.096   5.275  71.514  1.00  0.00    -0.067 A  
HETATM   23  O   UNL     1     -10.418   5.071  70.944  1.00  0.00    -0.216 OA 
HETATM   24  C   UNL     1      -5.986   4.589  72.010  1.00  0.00    -0.016 A  
HETATM   25  C   UNL     1      -5.147   3.894  71.143  1.00  0.00     0.000 A  
HETATM   26  C   UNL     1      -5.418   3.878  69.778  1.00  0.00    -0.016 A  
HETATM   27  C   UNL     1      -6.531   4.555  69.280  1.00  0.00    -0.036 A  
ENDBRANCH  12  14
TORSDOF 1
ENDMDL
MODEL      125
REMARK 921   NORMALIZED FREE ENERGY PREDICTED BY IDOCK:   -2.83 KCAL/MOL
REMARK 922        TOTAL FREE ENERGY PREDICTED BY IDOCK:   -3.44 KCAL/MOL
REMARK 923 INTER-LIGAND FREE ENERGY PREDICTED BY IDOCK:   -2.98 KCAL/MOL
REMARK 924 INTRA-LIGAND FREE ENERGY PREDICTED BY IDOCK:   -0.45 KCAL/MOL
REMARK 927      BINDING AFFINITY PREDICTED BY RF-SCORE:    0.00 PKD
ROOT
HETATM    1  C   UNL     1      -6.662   8.686  71.227  1.00  0.00    -0.072 C  
HETATM    2  S   UNL     1      -5.999   7.902  69.697  1.00  0.00    -0.026 SA 
HETATM    3  C   UNL     1      -7.184   8.742  68.563  1.00  0.00    -0.074 C  
HETATM    4  CA  UNL     1      -7.629  10.013  69.329  1.00  0.00    -0.109 C  
HETATM    5  C   UNL     1      -8.355   7.769  68.315  1.00  0.00    -0.125 C  
HETATM    6  C   UNL     1      -6.507   8.976  67.210  1.00  0.00    -0.061 C  
HETATM    7  N   UNL     1      -7.670   9.665  70.767  1.00  0.00    -0.076 N  
HETATM    8  C   UNL     1      -6.708  11.238  69.177  1.00  0.00    -0.099 C  
HETATM    9  C   UNL     1      -8.729   8.947  71.260  1.00  0.00    -0.215 C  
HETATM   10  OXT UNL     1      -6.353  11.719  68.113  1.00  0.00    -0.049 OA 
HETATM   11  O   UNL     1      -6.374  11.819  70.359  1.00  0.00    -0.218 OA 
HETATM   12  CA  UNL     1      -7.799   7.949  71.988  1.00  0.00    -0.104 C  
HETATM   13  O   UNL     1      -9.912   9.016  71.011  1.00  0.00    -0.229 OA 
ENDROOT
BRANCH  12  14
HETATM   14  N   UNL     1      -7.980   6.500  71.685  1.00  0.00    -0.104 N  
HETATM   15  C   UNL     1      -7.476   5.564  72.558  1.00  0.00    -0.097 C  
HETATM   16  H   UNL     1      -8.471   6.207  70.839  1.00  0.00     0.000 HD 
HETATM   17  C   UNL     1      -7.548   4.112  72.127  1.00  0.00    -0.075 C  
HETATM   18  O   UNL     1      -6.997   5.896  73.646  1.00  0.00    -0.079 OA 
HETATM   19  C   UNL     1      -6.329   3.301  72.547  1.00  0.00    -0.014 C  
HETATM   20  C   UNL     1      -8.839   3.446  72.581  1.00  0.00    -0.100 A  
HETATM   21  O   UNL     1      -5.650   3.729  73.635  1.00  0.00    -0.003 OA 
HETATM   22  C   UNL     1      -9.356   2.365  71.847  1.00  0.00    -0.174 A  
HETATM   23  O   UNL     1      -5.982   2.284  71.952  1.00  0.00    -0.012 OA 
HETATM   24  C   UNL     1     -10.520   1.717  72.263  1.00  0.00    -0.208 A  
HETATM   25  C   UNL     1     -11.184   2.138  73.413  1.00  0.00    -0.296 A  
HETATM   26  C   UNL     1     -10.683   3.204  74.152  1.00  0.00    -0.248 A  
HETATM   27  C   UNL     1      -9.516   3.850  73.744  1.00  0.00    -0.118 A  
ENDBRANCH  12  14
TORSDOF 1
ENDMDL
MODEL      126
REMARK 921   NORMALIZED FREE ENERGY PREDICTED BY IDOCK:   -2.82 KCAL/MOL
REMARK 922        TOTAL FREE ENERGY PREDICTED BY IDOCK:   -3.42 KCAL/MOL
REMARK 923 INTER-LIGAND FREE ENERGY PREDICTED BY IDOCK:   -2.91 KCAL/MOL
REMARK 924 INTRA-LIGAND FREE ENERGY PREDICTED BY IDOCK:   -0.52 KCAL/MOL
REMARK 927      BINDING AFFINITY PREDICTED BY RF-SCORE:    0.00 PKD
ROOT
HETATM    1  C   UNL     1      -9.797   9.242  68.161  1.00  0.00    -0.162 C  
HETATM    2  S   UNL     1     -11.351   8.667  68.964  1.00  0.00     0.732 SA 
HETATM    3  C   UNL     1     -11.287   9.898  70.334  1.00  0.00    -0.307 C  
HETATM    4  CA  UNL     1     -10.417  11.056  69.782  1.00  0.00     0.075 C  
HETATM    5  C   UNL     1     -10.638   9.206  71.550  1.00  0.00    -0.428 C  
HETATM    6  C   UNL     1     -12.715  10.269  70.744  1.00  0.00    -0.434 C  
HETATM    7  N   UNL     1      -9.386  10.450  68.911  1.00  0.00    -0.177 N  
HETATM    8  C   UNL     1     -11.165  12.111  68.947  1.00  0.00    -0.269 C  
HETATM    9  C   UNL     1      -8.294   9.842  69.475  1.00  0.00    -0.161 C  
HETATM   10  OXT UNL     1     -12.157  12.720  69.315  1.00  0.00    -0.262 OA 
HETATM   11  O   UNL     1     -10.568  12.388  67.758  1.00  0.00    -0.210 OA 
HETATM   12  CA  UNL     1      -8.461   8.578  68.599  1.00  0.00    -0.131 C  
HETATM   13  O   UNL     1      -7.623  10.158  70.431  1.00  0.00    -0.249 OA 
ENDROOT
BRANCH  12  14
HETATM   14  N   UNL     1      -8.564   7.268  69.303  1.00  0.00    -0.136 N  
HETATM   15  C   UNL     1      -7.435   6.496  69.451  1.00  0.00    -0.094 C  
HETATM   16  H   UNL     1      -9.461   6.948  69.670  1.00  0.00     0.000 HD 
HETATM   17  C   UNL     1      -7.622   5.107  70.033  1.00  0.00    -0.064 C  
HETATM   18  O   UNL     1      -6.321   6.922  69.132  1.00  0.00    -0.026 OA 
HETATM   19  C   UNL     1      -6.710   4.064  69.399  1.00  0.00    -0.041 C  
HETATM   20  C   UNL     1      -7.496   5.104  71.550  1.00  0.00    -0.095 A  
HETATM   21  O   UNL     1      -5.550   4.505  68.863  1.00  0.00    -0.011 OA 
HETATM   22  C   UNL     1      -8.167   4.122  72.298  1.00  0.00    -0.098 A  
HETATM   23  O   UNL     1      -6.989   2.868  69.392  1.00  0.00    -0.040 OA 
HETATM   24  C   UNL     1      -8.040   4.078  73.687  1.00  0.00    -0.089 A  
HETATM   25  C   UNL     1      -7.244   5.011  74.348  1.00  0.00    -0.082 A  
HETATM   26  C   UNL     1      -6.571   5.987  73.621  1.00  0.00    -0.075 A  
HETATM   27  C   UNL     1      -6.689   6.030  72.232  1.00  0.00    -0.072 A  
ENDBRANCH  12  14
TORSDOF 1
ENDMDL
MODEL      127
REMARK 921   NORMALIZED FREE ENERGY PREDICTED BY IDOCK:   -2.70 KCAL/MOL
REMARK 922        TOTAL FREE ENERGY PREDICTED BY IDOCK:   -3.30 KCAL/MOL
REMARK 923 INTER-LIGAND FREE ENERGY PREDICTED BY IDOCK:   -3.67 KCAL/MOL
REMARK 924 INTRA-LIGAND FREE ENERGY PREDICTED BY IDOCK:    0.37 KCAL/MOL
REMARK 927      BINDING AFFINITY PREDICTED BY RF-SCORE:    0.00 PKD
ROOT
HETATM    1  C   UNL     1      -9.924  10.968  66.236  1.00  0.00    -0.224 C  
HETATM    2  S   UNL     1     -10.979  10.144  67.502  1.00  0.00    -0.176 SA 
HETATM    3  C   UNL     1     -10.646  11.389  68.819  1.00  0.00    -0.204 C  
HETATM    4  CA  UNL     1     -10.232  12.671  68.054  1.00  0.00    -0.230 C  
HETATM    5  C   UNL     1      -9.506  10.839  69.700  1.00  0.00     0.174 C  
HETATM    6  C   UNL     1     -11.880  11.513  69.717  1.00  0.00    -0.429 C  
HETATM    7  N   UNL     1      -9.486  12.240  66.851  1.00  0.00    -0.211 N  
HETATM    8  C   UNL     1     -11.391  13.568  67.581  1.00  0.00    -0.296 C  
HETATM    9  C   UNL     1      -8.180  11.839  66.972  1.00  0.00    -0.172 C  
HETATM   10  OXT UNL     1     -12.279  14.001  68.299  1.00  0.00    -0.328 OA 
HETATM   11  O   UNL     1     -11.305  13.925  66.273  1.00  0.00    -0.312 OA 
HETATM   12  CA  UNL     1      -8.429  10.553  66.151  1.00  0.00    -0.153 C  
HETATM   13  O   UNL     1      -7.280  12.282  67.648  1.00  0.00    -0.105 OA 
ENDROOT
BRANCH  12  14
HETATM   14  N   UNL     1      -8.057   9.255  66.785  1.00  0.00    -0.111 N  
HETATM   15  C   UNL     1      -8.715   8.109  66.402  1.00  0.00    -0.149 C  
HETATM   16  H   UNL     1      -7.324   9.218  67.494  1.00  0.00     0.000 HD 
HETATM   17  C   UNL     1      -8.410   6.846  67.185  1.00  0.00    -0.121 C  
HETATM   18  O   UNL     1      -9.509   8.112  65.457  1.00  0.00     0.071 OA 
HETATM   19  C   UNL     1      -9.632   5.960  67.392  1.00  0.00    -0.113 C  
HETATM   20  C   UNL     1      -7.254   6.064  66.577  1.00  0.00    -0.073 A  
HETATM   21  O   UNL     1     -10.624   6.057  66.479  1.00  0.00    -0.228 OA 
HETATM   22  C   UNL     1      -6.467   5.241  67.400  1.00  0.00    -0.052 A  
HETATM   23  O   UNL     1      -9.714   5.165  68.325  1.00  0.00    -0.129 OA 
HETATM   24  C   UNL     1      -5.424   4.488  66.859  1.00  0.00    -0.013 A  
HETATM   25  C   UNL     1      -5.151   4.546  65.495  1.00  0.00    -0.009 A  
HETATM   26  C   UNL     1      -5.923   5.354  64.667  1.00  0.00    -0.022 A  
HETATM   27  C   UNL     1      -6.972   6.102  65.201  1.00  0.00    -0.056 A  
ENDBRANCH  12  14
TORSDOF 1
ENDMDL
MODEL      128
REMARK 921   NORMALIZED FREE ENERGY PREDICTED BY IDOCK:   -2.60 KCAL/MOL
REMARK 922        TOTAL FREE ENERGY PREDICTED BY IDOCK:   -3.19 KCAL/MOL
REMARK 923 INTER-LIGAND FREE ENERGY PREDICTED BY IDOCK:   -3.10 KCAL/MOL
REMARK 924 INTRA-LIGAND FREE ENERGY PREDICTED BY IDOCK:   -0.10 KCAL/MOL
REMARK 927      BINDING AFFINITY PREDICTED BY RF-SCORE:    0.00 PKD
ROOT
HETATM    1  C   UNL     1      -9.500   6.195  71.333  1.00  0.00    -0.156 C  
HETATM    2  S   UNL     1      -9.802   4.529  70.607  1.00  0.00    -0.210 SA 
HETATM    3  C   UNL     1      -8.540   3.675  71.644  1.00  0.00    -0.088 C  
HETATM    4  CA  UNL     1      -8.376   4.580  72.890  1.00  0.00    -0.103 C  
HETATM    5  C   UNL     1      -7.244   3.582  70.813  1.00  0.00    -0.033 C  
HETATM    6  C   UNL     1      -8.999   2.239  71.913  1.00  0.00    -0.124 C  
HETATM    7  N   UNL     1      -8.542   5.979  72.439  1.00  0.00    -0.120 N  
HETATM    8  C   UNL     1      -9.387   4.338  74.027  1.00  0.00    -0.105 C  
HETATM    9  C   UNL     1      -7.510   6.610  71.793  1.00  0.00    -0.091 C  
HETATM   10  OXT UNL     1      -9.605   3.257  74.550  1.00  0.00    -0.096 OA 
HETATM   11  O   UNL     1      -9.979   5.474  74.479  1.00  0.00    -0.203 OA 
HETATM   12  CA  UNL     1      -8.435   7.103  70.655  1.00  0.00    -0.138 C  
HETATM   13  O   UNL     1      -6.318   6.580  71.997  1.00  0.00    -0.048 OA 
ENDROOT
BRANCH  12  14
HETATM   14  N   UNL     1      -8.046   6.752  69.259  1.00  0.00    -0.119 N  
HETATM   15  C   UNL     1      -8.983   6.854  68.257  1.00  0.00    -0.124 C  
HETATM   16  H   UNL     1      -7.097   6.440  69.050  1.00  0.00     0.000 HD 
HETATM   17  C   UNL     1      -8.585   6.339  66.887  1.00  0.00    -0.113 C  
HETATM   18  O   UNL     1     -10.093   7.352  68.466  1.00  0.00    -0.164 OA 
HETATM   19  C   UNL     1      -9.728   5.653  66.149  1.00  0.00    -0.098 C  
HETATM   20  C   UNL     1      -7.946   7.425  66.033  1.00  0.00    -0.115 A  
HETATM   21  O   UNL     1     -10.985   6.032  66.474  1.00  0.00    -0.245 OA 
HETATM   22  C   UNL     1      -7.030   7.067  65.029  1.00  0.00    -0.052 A  
HETATM   23  O   UNL     1      -9.533   4.814  65.274  1.00  0.00    -0.161 OA 
HETATM   24  C   UNL     1      -6.458   8.043  64.212  1.00  0.00    -0.061 A  
HETATM   25  C   UNL     1      -6.789   9.385  64.384  1.00  0.00    -0.091 A  
HETATM   26  C   UNL     1      -7.698   9.754  65.371  1.00  0.00    -0.123 A  
HETATM   27  C   UNL     1      -8.278   8.782  66.185  1.00  0.00    -0.117 A  
ENDBRANCH  12  14
TORSDOF 1
ENDMDL
MODEL      129
REMARK 921   NORMALIZED FREE ENERGY PREDICTED BY IDOCK:   -2.57 KCAL/MOL
REMARK 922        TOTAL FREE ENERGY PREDICTED BY IDOCK:   -3.16 KCAL/MOL
REMARK 923 INTER-LIGAND FREE ENERGY PREDICTED BY IDOCK:   -2.72 KCAL/MOL
REMARK 924 INTRA-LIGAND FREE ENERGY PREDICTED BY IDOCK:   -0.44 KCAL/MOL
REMARK 927      BINDING AFFINITY PREDICTED BY RF-SCORE:    0.00 PKD
ROOT
HETATM    1  C   UNL     1      -8.917  14.040  68.879  1.00  0.00     0.060 C  
HETATM    2  S   UNL     1      -7.410  14.196  69.926  1.00  0.00     0.484 SA 
HETATM    3  C   UNL     1      -6.265  14.493  68.513  1.00  0.00    -0.089 C  
HETATM    4  CA  UNL     1      -7.170  15.044  67.382  1.00  0.00    -0.194 C  
HETATM    5  C   UNL     1      -5.625  13.139  68.143  1.00  0.00    -0.097 C  
HETATM    6  C   UNL     1      -5.129  15.411  68.970  1.00  0.00    -0.095 C  
HETATM    7  N   UNL     1      -8.481  14.368  67.504  1.00  0.00    -0.179 N  
HETATM    8  C   UNL     1      -7.428  16.561  67.415  1.00  0.00    -0.149 C  
HETATM    9  C   UNL     1      -8.626  13.083  67.051  1.00  0.00    -0.162 C  
HETATM   10  OXT UNL     1      -6.559  17.418  67.457  1.00  0.00    -0.138 OA 
HETATM   11  O   UNL     1      -8.741  16.894  67.306  1.00  0.00    -0.189 OA 
HETATM   12  CA  UNL     1      -9.303  12.625  68.363  1.00  0.00    -0.148 C  
HETATM   13  O   UNL     1      -8.186  12.542  66.061  1.00  0.00     0.512 OA 
ENDROOT
BRANCH  12  14
HETATM   14  N   UNL     1      -8.696  11.464  69.076  1.00  0.00    -0.375 N  
HETATM   15  C   UNL     1      -9.506  10.429  69.483  1.00  0.00    -0.139 C  
HETATM   16  H   UNL     1      -7.692  11.438  69.260  1.00  0.00     0.000 HD 
HETATM   17  C   UNL     1      -8.867   9.351  70.338  1.00  0.00    -0.290 C  
HETATM   18  O   UNL     1     -10.695  10.380  69.157  1.00  0.00    -0.204 OA 
HETATM   19  C   UNL     1      -9.794   8.822  71.425  1.00  0.00    -0.283 C  
HETATM   20  C   UNL     1      -8.299   8.218  69.495  1.00  0.00    -0.121 A  
HETATM   21  O   UNL     1     -11.124   8.912  71.199  1.00  0.00    -0.247 OA 
HETATM   22  C   UNL     1      -7.222   7.462  69.989  1.00  0.00    -0.073 A  
HETATM   23  O   UNL     1      -9.368   8.306  72.455  1.00  0.00    -0.229 OA 
HETATM   24  C   UNL     1      -6.706   6.397  69.249  1.00  0.00    -0.049 A  
HETATM   25  C   UNL     1      -7.254   6.073  68.010  1.00  0.00    -0.080 A  
HETATM   26  C   UNL     1      -8.322   6.810  67.510  1.00  0.00    -0.122 A  
HETATM   27  C   UNL     1      -8.847   7.870  68.250  1.00  0.00    -0.129 A  
ENDBRANCH  12  14
TORSDOF 1
ENDMDL
MODEL      130
REMARK 921   NORMALIZED FREE ENERGY PREDICTED BY IDOCK:   -2.53 KCAL/MOL
REMARK 922        TOTAL FREE ENERGY PREDICTED BY IDOCK:   -3.12 KCAL/MOL
REMARK 923 INTER-LIGAND FREE ENERGY PREDICTED BY IDOCK:   -2.73 KCAL/MOL
REMARK 924 INTRA-LIGAND FREE ENERGY PREDICTED BY IDOCK:   -0.39 KCAL/MOL
REMARK 927      BINDING AFFINITY PREDICTED BY RF-SCORE:    0.00 PKD
ROOT
HETATM    1  C   UNL     1      -8.813   7.911  66.067  1.00  0.00    -0.158 C  
HETATM    2  S   UNL     1      -7.279   8.765  66.625  1.00  0.00    -0.082 SA 
HETATM    3  C   UNL     1      -6.215   8.064  65.294  1.00  0.00    -0.045 C  
HETATM    4  CA  UNL     1      -7.200   7.693  64.157  1.00  0.00    -0.080 C  
HETATM    5  C   UNL     1      -5.500   6.827  65.876  1.00  0.00    -0.025 C  
HETATM    6  C   UNL     1      -5.125   9.078  64.934  1.00  0.00    -0.037 C  
HETATM    7  N   UNL     1      -8.456   7.243  64.797  1.00  0.00     0.030 N  
HETATM    8  C   UNL     1      -7.558   8.834  63.187  1.00  0.00    -0.109 C  
HETATM    9  C   UNL     1      -8.531   5.982  65.330  1.00  0.00    -0.145 C  
HETATM   10  OXT UNL     1      -6.748   9.517  62.581  1.00  0.00    -0.097 OA 
HETATM   11  O   UNL     1      -8.894   8.976  62.983  1.00  0.00    -0.172 OA 
HETATM   12  CA  UNL     1      -9.122   6.508  66.659  1.00  0.00    -0.147 C  
HETATM   13  O   UNL     1      -8.096   4.928  64.926  1.00  0.00    -0.102 OA 
ENDROOT
BRANCH  12  14
HETATM   14  N   UNL     1      -8.410   6.140  67.917  1.00  0.00    -0.116 N  
HETATM   15  C   UNL     1      -8.873   6.627  69.117  1.00  0.00    -0.129 C  
HETATM   16  H   UNL     1      -7.589   5.534  67.887  1.00  0.00     0.000 HD 
HETATM   17  C   UNL     1      -8.025   6.353  70.345  1.00  0.00    -0.112 C  
HETATM   18  O   UNL     1      -9.936   7.251  69.188  1.00  0.00    -0.164 OA 
HETATM   19  C   UNL     1      -8.006   7.513  71.331  1.00  0.00    -0.095 C  
HETATM   20  C   UNL     1      -8.418   5.051  71.029  1.00  0.00    -0.122 A  
HETATM   21  O   UNL     1      -9.072   8.345  71.324  1.00  0.00    -0.149 OA 
HETATM   22  C   UNL     1      -7.461   4.346  71.777  1.00  0.00    -0.070 A  
HETATM   23  O   UNL     1      -7.084   7.683  72.124  1.00  0.00    -0.062 OA 
HETATM   24  C   UNL     1      -7.806   3.168  72.441  1.00  0.00    -0.059 A  
HETATM   25  C   UNL     1      -9.108   2.677  72.367  1.00  0.00    -0.125 A  
HETATM   26  C   UNL     1     -10.068   3.366  71.633  1.00  0.00    -0.104 A  
HETATM   27  C   UNL     1      -9.729   4.548  70.975  1.00  0.00    -0.259 A  
ENDBRANCH  12  14
TORSDOF 1
ENDMDL
MODEL      131
REMARK 921   NORMALIZED FREE ENERGY PREDICTED BY IDOCK:   -0.64 KCAL/MOL
REMARK 922        TOTAL FREE ENERGY PREDICTED BY IDOCK:   -1.12 KCAL/MOL
REMARK 923 INTER-LIGAND FREE ENERGY PREDICTED BY IDOCK:   -0.68 KCAL/MOL
REMARK 924 INTRA-LIGAND FREE ENERGY PREDICTED BY IDOCK:   -0.44 KCAL/MOL
REMARK 927      BINDING AFFINITY PREDICTED BY RF-SCORE:    0.00 PKD
ROOT
HETATM    1  C   UNL     1      -9.545  13.112  65.386  1.00  0.00     0.110 C  
HETATM    2  S   UNL     1      -8.500  11.886  66.279  1.00  0.00     0.123 SA 
HETATM    3  C   UNL     1      -9.438  10.416  65.684  1.00  0.00    -0.211 C  
HETATM    4  CA  UNL     1     -10.122  10.888  64.376  1.00  0.00    -0.339 C  
HETATM    5  C   UNL     1     -10.460  10.044  66.777  1.00  0.00    -0.267 C  
HETATM    6  C   UNL     1      -8.480   9.229  65.548  1.00  0.00    -0.151 C  
HETATM    7  N   UNL     1     -10.475  12.314  64.559  1.00  0.00    -0.293 N  
HETATM    8  C   UNL     1      -9.265  10.784  63.101  1.00  0.00    -0.299 C  
HETATM    9  C   UNL     1     -11.575  12.649  65.305  1.00  0.00    -0.351 C  
HETATM   10  OXT UNL     1      -8.702   9.771  62.717  1.00  0.00    -0.185 OA 
HETATM   11  O   UNL     1      -9.249  11.924  62.361  1.00  0.00    -0.001 OA 
HETATM   12  CA  UNL     1     -10.782  13.692  66.127  1.00  0.00    -0.286 C  
HETATM   13  O   UNL     1     -12.670  12.137  65.369  1.00  0.00    -0.384 OA 
ENDROOT
BRANCH  12  14
HETATM   14  N   UNL     1     -10.802  13.550  67.611  1.00  0.00    -0.257 N  
HETATM   15  C   UNL     1     -10.692  14.676  68.394  1.00  0.00    -0.241 C  
HETATM   16  H   UNL     1     -10.895  12.629  68.041  1.00  0.00     0.000 HD 
HETATM   17  C   UNL     1     -10.560  14.464  69.890  1.00  0.00     0.133 C  
HETATM   18  O   UNL     1     -10.711  15.806  67.897  1.00  0.00    -0.284 OA 
HETATM   19  C   UNL     1      -9.614  15.456  70.554  1.00  0.00     0.818 C  
HETATM   20  C   UNL     1     -11.915  14.441  70.584  1.00  0.00    -0.393 A  
HETATM   21  O   UNL     1      -9.452  16.653  69.948  1.00  0.00     0.307 OA 
HETATM   22  C   UNL     1     -12.067  13.722  71.781  1.00  0.00     0.178 A  
HETATM   23  O   UNL     1      -9.039  15.205  71.610  1.00  0.00     2.922 OA 
HETATM   24  C   UNL     1     -13.291  13.714  72.453  1.00  0.00    -0.641 A  
HETATM   25  C   UNL     1     -14.376  14.420  71.941  1.00  0.00    -0.627 A  
HETATM   26  C   UNL     1     -14.240  15.140  70.758  1.00  0.00     0.067 A  
HETATM   27  C   UNL     1     -13.018  15.157  70.088  1.00  0.00    -0.126 A  
ENDBRANCH  12  14
TORSDOF 1
ENDMDL
MODEL      132
REMARK 921   NORMALIZED FREE ENERGY PREDICTED BY IDOCK:   -0.53 KCAL/MOL
REMARK 922        TOTAL FREE ENERGY PREDICTED BY IDOCK:   -1.00 KCAL/MOL
REMARK 923 INTER-LIGAND FREE ENERGY PREDICTED BY IDOCK:   -3.71 KCAL/MOL
REMARK 924 INTRA-LIGAND FREE ENERGY PREDICTED BY IDOCK:    2.71 KCAL/MOL
REMARK 927      BINDING AFFINITY PREDICTED BY RF-SCORE:    0.00 PKD
ROOT
HETATM    1  C   UNL     1     -10.117   8.443  72.655  1.00  0.00    -0.251 C  
HETATM    2  S   UNL     1      -9.911   8.105  70.856  1.00  0.00    -0.190 SA 
HETATM    3  C   UNL     1     -11.219   6.809  70.788  1.00  0.00    -0.304 C  
HETATM    4  CA  UNL     1     -12.144   7.119  71.993  1.00  0.00    -0.292 C  
HETATM    5  C   UNL     1     -10.522   5.440  70.922  1.00  0.00    -0.307 C  
HETATM    6  C   UNL     1     -11.884   6.836  69.409  1.00  0.00     0.136 C  
HETATM    7  N   UNL     1     -11.285   7.640  73.079  1.00  0.00    -0.380 N  
HETATM    8  C   UNL     1     -13.247   8.161  71.735  1.00  0.00    -0.341 C  
HETATM    9  C   UNL     1     -10.533   6.770  73.825  1.00  0.00    -0.354 C  
HETATM   10  OXT UNL     1     -14.059   8.111  70.825  1.00  0.00     0.133 OA 
HETATM   11  O   UNL     1     -13.306   9.136  72.680  1.00  0.00    -0.454 OA 
HETATM   12  CA  UNL     1      -9.254   7.622  73.654  1.00  0.00    -0.283 C  
HETATM   13  O   UNL     1     -10.797   5.670  74.256  1.00  0.00    -0.167 OA 
ENDROOT
BRANCH  12  14
HETATM   14  N   UNL     1      -8.050   6.943  73.097  1.00  0.00    -0.105 N  
HETATM   15  C   UNL     1      -7.976   5.570  73.137  1.00  0.00    -0.104 C  
HETATM   16  H   UNL     1      -7.289   7.490  72.691  1.00  0.00     0.000 HD 
HETATM   17  C   UNL     1      -6.667   4.938  72.701  1.00  0.00    -0.061 C  
HETATM   18  O   UNL     1      -8.937   4.887  73.501  1.00  0.00    -0.112 OA 
HETATM   19  C   UNL     1      -6.289   3.714  73.527  1.00  0.00    -0.028 C  
HETATM   20  C   UNL     1      -6.653   4.627  71.211  1.00  0.00    -0.027 A  
HETATM   21  O   UNL     1      -7.299   3.028  74.108  1.00  0.00    -0.045 OA 
HETATM   22  C   UNL     1      -5.428   4.592  70.524  1.00  0.00    -0.011 A  
HETATM   23  O   UNL     1      -5.126   3.337  73.644  1.00  0.00     0.000 OA 
HETATM   24  C   UNL     1      -5.386   4.276  69.165  1.00  0.00    -0.011 A  
HETATM   25  C   UNL     1      -6.562   3.992  68.475  1.00  0.00    -0.045 A  
HETATM   26  C   UNL     1      -7.782   4.019  69.143  1.00  0.00    -0.053 A  
HETATM   27  C   UNL     1      -7.828   4.327  70.502  1.00  0.00    -0.052 A  
ENDBRANCH  12  14
TORSDOF 1
ENDMDL
MODEL      133
REMARK 921   NORMALIZED FREE ENERGY PREDICTED BY IDOCK:   -0.07 KCAL/MOL
REMARK 922        TOTAL FREE ENERGY PREDICTED BY IDOCK:   -0.52 KCAL/MOL
REMARK 923 INTER-LIGAND FREE ENERGY PREDICTED BY IDOCK:   -1.61 KCAL/MOL
REMARK 924 INTRA-LIGAND FREE ENERGY PREDICTED BY IDOCK:    1.09 KCAL/MOL
REMARK 927      BINDING AFFINITY PREDICTED BY RF-SCORE:    0.00 PKD
ROOT
HETATM    1  C   UNL     1      -9.818  15.371  65.797  1.00  0.00    -0.364 C  
HETATM    2  S   UNL     1     -11.176  15.782  66.972  1.00  0.00     0.014 SA 
HETATM    3  C   UNL     1     -10.056  16.131  68.393  1.00  0.00    -0.236 C  
HETATM    4  CA  UNL     1      -8.696  16.491  67.743  1.00  0.00    -0.196 C  
HETATM    5  C   UNL     1      -9.976  14.848  69.246  1.00  0.00    -0.181 C  
HETATM    6  C   UNL     1     -10.685  17.212  69.276  1.00  0.00    -0.146 C  
HETATM    7  N   UNL     1      -8.563  15.665  66.523  1.00  0.00    -0.287 N  
HETATM    8  C   UNL     1      -8.527  17.963  67.325  1.00  0.00    -0.236 C  
HETATM    9  C   UNL     1      -8.208  14.345  66.634  1.00  0.00     0.283 C  
HETATM   10  OXT UNL     1      -8.696  18.923  68.060  1.00  0.00    -0.284 OA 
HETATM   11  O   UNL     1      -8.077  18.120  66.052  1.00  0.00    -0.477 OA 
HETATM   12  CA  UNL     1      -9.358  13.889  65.705  1.00  0.00     0.140 C  
HETATM   13  O   UNL     1      -7.407  13.803  67.360  1.00  0.00    -0.171 OA 
ENDROOT
BRANCH  12  14
HETATM   14  N   UNL     1     -10.299  12.862  66.237  1.00  0.00    -0.263 N  
HETATM   15  C   UNL     1      -9.795  11.791  66.939  1.00  0.00    -0.203 C  
HETATM   16  H   UNL     1     -11.304  12.951  66.082  1.00  0.00     0.000 HD 
HETATM   17  C   UNL     1     -10.774  10.697  67.322  1.00  0.00    -0.338 C  
HETATM   18  O   UNL     1      -8.602  11.732  67.249  1.00  0.00    -0.149 OA 
HETATM   19  C   UNL     1     -10.173   9.300  67.239  1.00  0.00    -0.252 C  
HETATM   20  C   UNL     1     -11.405  10.949  68.684  1.00  0.00    -0.360 A  
HETATM   21  O   UNL     1      -8.834   9.196  67.389  1.00  0.00    -0.118 OA 
HETATM   22  C   UNL     1     -12.680  10.428  68.963  1.00  0.00     1.340 A  
HETATM   23  O   UNL     1     -10.865   8.298  67.074  1.00  0.00    -0.245 OA 
HETATM   24  C   UNL     1     -13.265  10.617  70.216  1.00  0.00     0.125 A  
HETATM   25  C   UNL     1     -12.588  11.327  71.205  1.00  0.00    -0.487 A  
HETATM   26  C   UNL     1     -11.324  11.845  70.946  1.00  0.00     1.383 A  
HETATM   27  C   UNL     1     -10.733  11.652  69.697  1.00  0.00     0.100 A  
ENDBRANCH  12  14
TORSDOF 1
ENDMDL
MODEL      134
REMARK 921   NORMALIZED FREE ENERGY PREDICTED BY IDOCK:   -0.04 KCAL/MOL
REMARK 922        TOTAL FREE ENERGY PREDICTED BY IDOCK:   -0.48 KCAL/MOL
REMARK 923 INTER-LIGAND FREE ENERGY PREDICTED BY IDOCK:   -3.98 KCAL/MOL
REMARK 924 INTRA-LIGAND FREE ENERGY PREDICTED BY IDOCK:    3.50 KCAL/MOL
REMARK 927      BINDING AFFINITY PREDICTED BY RF-SCORE:    0.00 PKD
ROOT
HETATM    1  C   UNL     1      -7.417   8.871  67.136  1.00  0.00    -0.084 C  
HETATM    2  S   UNL     1      -8.804   8.253  68.179  1.00  0.00    -0.139 SA 
HETATM    3  C   UNL     1      -9.891   7.820  66.755  1.00  0.00    -0.241 C  
HETATM    4  CA  UNL     1      -8.919   7.616  65.566  1.00  0.00     0.088 C  
HETATM    5  C   UNL     1     -10.852   9.005  66.529  1.00  0.00     0.288 C  
HETATM    6  C   UNL     1     -10.755   6.612  67.131  1.00  0.00    -0.440 C  
HETATM    7  N   UNL     1      -7.808   8.577  65.741  1.00  0.00    -0.097 N  
HETATM    8  C   UNL     1      -8.301   6.211  65.445  1.00  0.00    -0.150 C  
HETATM    9  C   UNL     1      -7.995   9.896  65.416  1.00  0.00    -0.134 C  
HETATM   10  OXT UNL     1      -8.934   5.168  65.410  1.00  0.00    -0.157 OA 
HETATM   11  O   UNL     1      -6.951   6.222  65.288  1.00  0.00    -0.053 OA 
HETATM   12  CA  UNL     1      -7.404  10.379  66.761  1.00  0.00    -0.110 C  
HETATM   13  O   UNL     1      -8.586  10.403  64.490  1.00  0.00    -0.174 OA 
ENDROOT
BRANCH  12  14
HETATM   14  N   UNL     1      -8.249  11.284  67.592  1.00  0.00    -0.117 N  
HETATM   15  C   UNL     1      -9.453  11.723  67.093  1.00  0.00    -0.175 C  
HETATM   16  H   UNL     1      -7.937  11.574  68.520  1.00  0.00     0.000 HD 
HETATM   17  C   UNL     1     -10.200  12.761  67.909  1.00  0.00    -0.229 C  
HETATM   18  O   UNL     1      -9.907  11.281  66.033  1.00  0.00    -0.212 OA 
HETATM   19  C   UNL     1     -10.911  13.800  67.051  1.00  0.00    -0.284 C  
HETATM   20  C   UNL     1     -11.153  12.122  68.909  1.00  0.00    -0.292 A  
HETATM   21  O   UNL     1     -11.269  13.425  65.802  1.00  0.00    -0.289 OA 
HETATM   22  C   UNL     1     -11.483  12.811  70.089  1.00  0.00     0.005 A  
HETATM   23  O   UNL     1     -11.180  14.922  67.470  1.00  0.00    -0.307 OA 
HETATM   24  C   UNL     1     -12.381  12.261  71.004  1.00  0.00    -0.320 A  
HETATM   25  C   UNL     1     -12.960  11.018  70.758  1.00  0.00    -0.263 A  
HETATM   26  C   UNL     1     -12.646  10.325  69.593  1.00  0.00     0.238 A  
HETATM   27  C   UNL     1     -11.755  10.875  68.672  1.00  0.00    -0.334 A  
ENDBRANCH  12  14
TORSDOF 1
ENDMDL
MODEL      135
REMARK 921   NORMALIZED FREE ENERGY PREDICTED BY IDOCK:    0.18 KCAL/MOL
REMARK 922        TOTAL FREE ENERGY PREDICTED BY IDOCK:   -0.25 KCAL/MOL
REMARK 923 INTER-LIGAND FREE ENERGY PREDICTED BY IDOCK:   -1.41 KCAL/MOL
REMARK 924 INTRA-LIGAND FREE ENERGY PREDICTED BY IDOCK:    1.16 KCAL/MOL
REMARK 927      BINDING AFFINITY PREDICTED BY RF-SCORE:    0.00 PKD
ROOT
HETATM    1  C   UNL     1      -7.442   8.869  67.201  1.00  0.00    -0.084 C  
HETATM    2  S   UNL     1      -8.795   8.059  68.154  1.00  0.00    -0.131 SA 
HETATM    3  C   UNL     1      -9.434   7.086  66.725  1.00  0.00    -0.163 C  
HETATM    4  CA  UNL     1      -8.231   6.975  65.755  1.00  0.00    -0.132 C  
HETATM    5  C   UNL     1     -10.608   7.877  66.114  1.00  0.00     1.091 C  
HETATM    6  C   UNL     1     -10.008   5.761  67.236  1.00  0.00    -0.178 C  
HETATM    7  N   UNL     1      -7.464   8.236  65.864  1.00  0.00    -0.079 N  
HETATM    8  C   UNL     1      -7.256   5.816  66.032  1.00  0.00    -0.072 C  
HETATM    9  C   UNL     1      -7.922   9.364  65.234  1.00  0.00    -0.110 C  
HETATM   10  OXT UNL     1      -7.577   4.643  66.141  1.00  0.00    -0.088 OA 
HETATM   11  O   UNL     1      -5.952   6.197  66.064  1.00  0.00    -0.027 OA 
HETATM   12  CA  UNL     1      -7.750  10.225  66.507  1.00  0.00    -0.113 C  
HETATM   13  O   UNL     1      -8.435   9.507  64.148  1.00  0.00    -0.161 OA 
ENDROOT
BRANCH  12  14
HETATM   14  N   UNL     1      -8.946  10.970  66.995  1.00  0.00    -0.146 N  
HETATM   15  C   UNL     1      -9.160  11.082  68.350  1.00  0.00    -0.161 C  
HETATM   16  H   UNL     1      -9.598  11.392  66.333  1.00  0.00     0.000 HD 
HETATM   17  C   UNL     1     -10.468  11.712  68.791  1.00  0.00    -0.226 C  
HETATM   18  O   UNL     1      -8.319  10.695  69.165  1.00  0.00    -0.151 OA 
HETATM   19  C   UNL     1     -11.056  11.061  70.037  1.00  0.00    -0.161 C  
HETATM   20  C   UNL     1     -10.346  13.220  68.957  1.00  0.00     0.014 A  
HETATM   21  O   UNL     1     -10.191  10.455  70.881  1.00  0.00     0.424 OA 
HETATM   22  C   UNL     1     -11.484  14.028  68.793  1.00  0.00    -0.327 A  
HETATM   23  O   UNL     1     -12.256  11.103  70.292  1.00  0.00    -0.310 OA 
HETATM   24  C   UNL     1     -11.404  15.410  68.975  1.00  0.00    -0.324 A  
HETATM   25  C   UNL     1     -10.192  16.003  69.321  1.00  0.00    -0.249 A  
HETATM   26  C   UNL     1      -9.058  15.215  69.490  1.00  0.00    -0.131 A  
HETATM   27  C   UNL     1      -9.135  13.833  69.318  1.00  0.00     0.589 A  
ENDBRANCH  12  14
TORSDOF 1
ENDMDL
MODEL      136
REMARK 921   NORMALIZED FREE ENERGY PREDICTED BY IDOCK:    3.37 KCAL/MOL
REMARK 922        TOTAL FREE ENERGY PREDICTED BY IDOCK:    3.13 KCAL/MOL
REMARK 923 INTER-LIGAND FREE ENERGY PREDICTED BY IDOCK:    2.25 KCAL/MOL
REMARK 924 INTRA-LIGAND FREE ENERGY PREDICTED BY IDOCK:    0.87 KCAL/MOL
REMARK 927      BINDING AFFINITY PREDICTED BY RF-SCORE:    0.00 PKD
ROOT
HETATM    1  C   UNL     1     -12.406  12.841  69.287  1.00  0.00     0.113 C  
HETATM    2  S   UNL     1     -10.949  12.956  70.408  1.00  0.00     1.874 SA 
HETATM    3  C   UNL     1     -10.374  14.580  69.754  1.00  0.00     0.145 C  
HETATM    4  CA  UNL     1     -11.640  15.227  69.138  1.00  0.00    -0.332 C  
HETATM    5  C   UNL     1      -9.288  14.296  68.697  1.00  0.00    -0.172 C  
HETATM    6  C   UNL     1      -9.701  15.367  70.883  1.00  0.00     1.301 C  
HETATM    7  N   UNL     1     -12.455  14.132  68.566  1.00  0.00     0.029 N  
HETATM    8  C   UNL     1     -12.536  16.005  70.119  1.00  0.00     0.128 C  
HETATM    9  C   UNL     1     -12.099  13.580  67.362  1.00  0.00    -0.318 C  
HETATM   10  OXT UNL     1     -12.153  16.899  70.857  1.00  0.00     0.895 OA 
HETATM   11  O   UNL     1     -13.850  15.669  70.040  1.00  0.00     0.462 OA 
HETATM   12  CA  UNL     1     -12.215  12.139  67.913  1.00  0.00     0.320 C  
HETATM   13  O   UNL     1     -11.678  14.097  66.353  1.00  0.00    -0.357 OA 
ENDROOT
BRANCH  12  14
HETATM   14  N   UNL     1     -11.022  11.256  67.772  1.00  0.00    -0.232 N  
HETATM   15  C   UNL     1     -10.356  11.216  66.569  1.00  0.00    -0.243 C  
HETATM   16  H   UNL     1     -10.703  10.689  68.559  1.00  0.00     0.000 HD 
HETATM   17  C   UNL     1      -9.248  10.189  66.430  1.00  0.00    -0.190 C  
HETATM   18  O   UNL     1     -10.644  11.989  65.651  1.00  0.00    -0.248 OA 
HETATM   19  C   UNL     1      -9.181   9.565  65.042  1.00  0.00    -0.236 C  
HETATM   20  C   UNL     1      -7.897  10.748  66.853  1.00  0.00    -0.130 A  
HETATM   21  O   UNL     1      -9.657  10.301  64.013  1.00  0.00    -0.289 OA 
HETATM   22  C   UNL     1      -6.908   9.876  67.337  1.00  0.00    -0.082 A  
HETATM   23  O   UNL     1      -8.690   8.456  64.845  1.00  0.00    -0.134 OA 
HETATM   24  C   UNL     1      -5.650  10.360  67.699  1.00  0.00    -0.044 A  
HETATM   25  C   UNL     1      -5.362  11.718  67.583  1.00  0.00    -0.065 A  
HETATM   26  C   UNL     1      -6.330  12.594  67.102  1.00  0.00     0.005 A  
HETATM   27  C   UNL     1      -7.585  12.113  66.732  1.00  0.00     0.052 A  
ENDBRANCH  12  14
TORSDOF 1
ENDMDL
MODEL      137
REMARK 921   NORMALIZED FREE ENERGY PREDICTED BY IDOCK:    3.66 KCAL/MOL
REMARK 922        TOTAL FREE ENERGY PREDICTED BY IDOCK:    3.43 KCAL/MOL
REMARK 923 INTER-LIGAND FREE ENERGY PREDICTED BY IDOCK:    3.58 KCAL/MOL
REMARK 924 INTRA-LIGAND FREE ENERGY PREDICTED BY IDOCK:   -0.14 KCAL/MOL
REMARK 927      BINDING AFFINITY PREDICTED BY RF-SCORE:    0.00 PKD
ROOT
HETATM    1  C   UNL     1     -13.058  14.143  70.405  1.00  0.00     0.021 C  
HETATM    2  S   UNL     1     -11.748  13.433  71.488  1.00  0.00     1.708 SA 
HETATM    3  C   UNL     1     -10.972  15.057  71.883  1.00  0.00     0.327 C  
HETATM    4  CA  UNL     1     -12.097  16.097  71.653  1.00  0.00    -0.418 C  
HETATM    5  C   UNL     1      -9.787  15.252  70.916  1.00  0.00     1.091 C  
HETATM    6  C   UNL     1     -10.387  15.004  73.297  1.00  0.00     4.211 C  
HETATM    7  N   UNL     1     -12.916  15.611  70.521  1.00  0.00    -0.349 N  
HETATM    8  C   UNL     1     -13.046  16.327  72.844  1.00  0.00    -0.183 C  
HETATM    9  C   UNL     1     -12.457  15.762  69.238  1.00  0.00     0.193 C  
HETATM   10  OXT UNL     1     -12.690  16.615  73.976  1.00  0.00    -0.599 OA 
HETATM   11  O   UNL     1     -14.362  16.268  72.512  1.00  0.00    -0.001 OA 
HETATM   12  CA  UNL     1     -12.752  14.284  68.888  1.00  0.00     0.648 C  
HETATM   13  O   UNL     1     -11.873  16.683  68.713  1.00  0.00     0.006 OA 
ENDROOT
BRANCH  12  14
HETATM   14  N   UNL     1     -11.622  13.470  68.354  1.00  0.00    -0.319 N  
HETATM   15  C   UNL     1     -11.066  13.808  67.142  1.00  0.00    -0.302 C  
HETATM   16  H   UNL     1     -11.266  12.672  68.881  1.00  0.00     0.000 HD 
HETATM   17  C   UNL     1     -10.029  12.860  66.572  1.00  0.00    -0.259 C  
HETATM   18  O   UNL     1     -11.393  14.843  66.553  1.00  0.00    -0.348 OA 
HETATM   19  C   UNL     1     -10.114  12.719  65.057  1.00  0.00    -0.218 C  
HETATM   20  C   UNL     1      -8.619  13.224  67.016  1.00  0.00    -0.169 A  
HETATM   21  O   UNL     1     -10.640  13.758  64.371  1.00  0.00    -0.418 OA 
HETATM   22  C   UNL     1      -7.638  12.221  67.095  1.00  0.00    -0.118 A  
HETATM   23  O   UNL     1      -9.701  11.723  64.468  1.00  0.00    -0.223 OA 
HETATM   24  C   UNL     1      -6.330  12.536  67.466  1.00  0.00    -0.154 A  
HETATM   25  C   UNL     1      -5.984  13.852  67.765  1.00  0.00    -0.117 A  
HETATM   26  C   UNL     1      -6.943  14.856  67.688  1.00  0.00    -0.207 A  
HETATM   27  C   UNL     1      -8.249  14.547  67.309  1.00  0.00    -0.230 A  
ENDBRANCH  12  14
TORSDOF 1
ENDMDL
MODEL      138
REMARK 921   NORMALIZED FREE ENERGY PREDICTED BY IDOCK:    5.44 KCAL/MOL
REMARK 922        TOTAL FREE ENERGY PREDICTED BY IDOCK:    5.31 KCAL/MOL
REMARK 923 INTER-LIGAND FREE ENERGY PREDICTED BY IDOCK:    5.80 KCAL/MOL
REMARK 924 INTRA-LIGAND FREE ENERGY PREDICTED BY IDOCK:   -0.48 KCAL/MOL
REMARK 927      BINDING AFFINITY PREDICTED BY RF-SCORE:    0.00 PKD
ROOT
HETATM    1  C   UNL     1      -7.923  12.881  69.150  1.00  0.00     0.459 C  
HETATM    2  S   UNL     1      -6.253  12.400  68.538  1.00  0.00    -0.067 SA 
HETATM    3  C   UNL     1      -6.699  12.518  66.754  1.00  0.00     0.465 C  
HETATM    4  CA  UNL     1      -7.910  13.483  66.713  1.00  0.00     0.487 C  
HETATM    5  C   UNL     1      -7.065  11.099  66.273  1.00  0.00    -0.049 C  
HETATM    6  C   UNL     1      -5.467  12.954  65.955  1.00  0.00     3.751 C  
HETATM    7  N   UNL     1      -8.697  13.248  67.944  1.00  0.00    -0.180 N  
HETATM    8  C   UNL     1      -7.566  14.983  66.665  1.00  0.00     0.562 C  
HETATM    9  C   UNL     1      -9.519  12.153  68.024  1.00  0.00    -0.201 C  
HETATM   10  OXT UNL     1      -6.824  15.504  65.848  1.00  0.00     2.262 OA 
HETATM   11  O   UNL     1      -8.238  15.726  67.582  1.00  0.00    -0.143 OA 
HETATM   12  CA  UNL     1      -8.958  11.750  69.408  1.00  0.00     0.866 C  
HETATM   13  O   UNL     1     -10.242  11.648  67.195  1.00  0.00    -0.207 OA 
ENDROOT
BRANCH  12  14
HETATM   14  N   UNL     1      -8.418  10.368  69.550  1.00  0.00    -0.315 N  
HETATM   15  C   UNL     1      -9.133   9.439  70.271  1.00  0.00    -0.245 C  
HETATM   16  H   UNL     1      -7.529  10.113  69.118  1.00  0.00     0.000 HD 
HETATM   17  C   UNL     1      -8.468   8.098  70.516  1.00  0.00    -0.125 C  
HETATM   18  O   UNL     1     -10.267   9.687  70.688  1.00  0.00    -0.276 OA 
HETATM   19  C   UNL     1      -8.768   7.525  71.896  1.00  0.00    -0.114 C  
HETATM   20  C   UNL     1      -8.787   7.094  69.418  1.00  0.00    -0.136 A  
HETATM   21  O   UNL     1      -9.921   7.911  72.486  1.00  0.00    -0.204 OA 
HETATM   22  C   UNL     1      -7.878   6.059  69.140  1.00  0.00    -0.099 A  
HETATM   23  O   UNL     1      -8.019   6.722  72.448  1.00  0.00    -0.098 OA 
HETATM   24  C   UNL     1      -8.165   5.107  68.161  1.00  0.00    -0.097 A  
HETATM   25  C   UNL     1      -9.358   5.174  67.446  1.00  0.00    -0.128 A  
HETATM   26  C   UNL     1     -10.270   6.191  67.711  1.00  0.00    -0.211 A  
HETATM   27  C   UNL     1      -9.991   7.140  68.695  1.00  0.00    -0.161 A  
ENDBRANCH  12  14
TORSDOF 1
ENDMDL
MODEL      139
REMARK 921   NORMALIZED FREE ENERGY PREDICTED BY IDOCK:    5.46 KCAL/MOL
REMARK 922        TOTAL FREE ENERGY PREDICTED BY IDOCK:    5.34 KCAL/MOL
REMARK 923 INTER-LIGAND FREE ENERGY PREDICTED BY IDOCK:    0.50 KCAL/MOL
REMARK 924 INTRA-LIGAND FREE ENERGY PREDICTED BY IDOCK:    4.83 KCAL/MOL
REMARK 927      BINDING AFFINITY PREDICTED BY RF-SCORE:    0.00 PKD
ROOT
HETATM    1  C   UNL     1      -9.496  16.650  69.902  1.00  0.00     0.728 C  
HETATM    2  S   UNL     1      -8.392  15.495  68.983  1.00  0.00    -0.243 SA 
HETATM    3  C   UNL     1      -8.237  16.575  67.497  1.00  0.00    -0.154 C  
HETATM    4  CA  UNL     1      -8.544  18.003  68.014  1.00  0.00    -0.264 C  
HETATM    5  C   UNL     1      -9.273  16.091  66.463  1.00  0.00    -0.307 C  
HETATM    6  C   UNL     1      -6.855  16.371  66.870  1.00  0.00    -0.231 C  
HETATM    7  N   UNL     1      -9.569  17.873  69.073  1.00  0.00    -0.196 N  
HETATM    8  C   UNL     1      -7.350  18.764  68.619  1.00  0.00    -0.307 C  
HETATM    9  C   UNL     1     -10.880  17.671  68.725  1.00  0.00     0.087 C  
HETATM   10  OXT UNL     1      -6.279  18.943  68.060  1.00  0.00    -0.210 OA 
HETATM   11  O   UNL     1      -7.613  19.315  69.832  1.00  0.00     0.173 OA 
HETATM   12  CA  UNL     1     -11.031  16.493  69.716  1.00  0.00    -0.292 C  
HETATM   13  O   UNL     1     -11.541  18.148  67.831  1.00  0.00     0.604 OA 
ENDROOT
BRANCH  12  14
HETATM   14  N   UNL     1     -11.509  15.193  69.165  1.00  0.00    -0.287 N  
HETATM   15  C   UNL     1     -10.635  14.133  69.093  1.00  0.00    -0.158 C  
HETATM   16  H   UNL     1     -12.473  15.091  68.844  1.00  0.00     0.000 HD 
HETATM   17  C   UNL     1     -11.124  12.884  68.383  1.00  0.00    -0.293 C  
HETATM   18  O   UNL     1      -9.509  14.196  69.594  1.00  0.00     0.462 OA 
HETATM   19  C   UNL     1     -10.036  12.194  67.570  1.00  0.00    -0.196 C  
HETATM   20  C   UNL     1     -11.802  11.914  69.339  1.00  0.00    -0.389 A  
HETATM   21  O   UNL     1      -8.758  12.381  67.967  1.00  0.00    -0.170 OA 
HETATM   22  C   UNL     1     -12.782  11.033  68.852  1.00  0.00     0.977 A  
HETATM   23  O   UNL     1     -10.295  11.472  66.610  1.00  0.00    -0.213 OA 
HETATM   24  C   UNL     1     -13.393  10.111  69.702  1.00  0.00     1.500 A  
HETATM   25  C   UNL     1     -13.037  10.054  71.048  1.00  0.00    -0.435 A  
HETATM   26  C   UNL     1     -12.065  10.917  71.544  1.00  0.00    -0.125 A  
HETATM   27  C   UNL     1     -11.446  11.835  70.696  1.00  0.00     0.444 A  
ENDBRANCH  12  14
TORSDOF 1
ENDMDL
MODEL      140
REMARK 921   NORMALIZED FREE ENERGY PREDICTED BY IDOCK:    6.20 KCAL/MOL
REMARK 922        TOTAL FREE ENERGY PREDICTED BY IDOCK:    6.12 KCAL/MOL
REMARK 923 INTER-LIGAND FREE ENERGY PREDICTED BY IDOCK:    0.78 KCAL/MOL
REMARK 924 INTRA-LIGAND FREE ENERGY PREDICTED BY IDOCK:    5.33 KCAL/MOL
REMARK 927      BINDING AFFINITY PREDICTED BY RF-SCORE:    0.00 PKD
ROOT
HETATM    1  C   UNL     1      -6.965  13.289  70.324  1.00  0.00     0.942 C  
HETATM    2  S   UNL     1      -8.597  14.016  69.873  1.00  0.00     1.796 SA 
HETATM    3  C   UNL     1      -8.750  13.089  68.287  1.00  0.00    -0.173 C  
HETATM    4  CA  UNL     1      -7.846  11.844  68.470  1.00  0.00    -0.136 C  
HETATM    5  C   UNL     1      -8.250  14.015  67.160  1.00  0.00    -0.146 C  
HETATM    6  C   UNL     1     -10.229  12.809  68.009  1.00  0.00    -0.228 C  
HETATM    7  N   UNL     1      -6.691  12.260  69.297  1.00  0.00    -0.099 N  
HETATM    8  C   UNL     1      -8.504  10.640  69.169  1.00  0.00    -0.128 C  
HETATM    9  C   UNL     1      -5.668  12.971  68.723  1.00  0.00    -0.072 C  
HETATM   10  OXT UNL     1      -9.553  10.119  68.824  1.00  0.00    -0.156 OA 
HETATM   11  O   UNL     1      -7.762  10.127  70.185  1.00  0.00    -0.165 OA 
HETATM   12  CA  UNL     1      -5.682  14.029  69.851  1.00  0.00    -0.114 C  
HETATM   13  O   UNL     1      -5.140  12.856  67.641  1.00  0.00    -0.117 OA 
ENDROOT
BRANCH  12  14
HETATM   14  N   UNL     1      -5.842  15.455  69.448  1.00  0.00    -0.105 N  
HETATM   15  C   UNL     1      -6.248  15.748  68.166  1.00  0.00    -0.123 C  
HETATM   16  H   UNL     1      -5.653  16.205  70.113  1.00  0.00     0.000 HD 
HETATM   17  C   UNL     1      -6.245  17.209  67.760  1.00  0.00    -0.154 C  
HETATM   18  O   UNL     1      -6.608  14.859  67.389  1.00  0.00    -0.272 OA 
HETATM   19  C   UNL     1      -5.815  17.428  66.315  1.00  0.00    -0.189 C  
HETATM   20  C   UNL     1      -7.579  17.884  68.049  1.00  0.00    -0.238 A  
HETATM   21  O   UNL     1      -6.017  16.408  65.451  1.00  0.00     2.413 OA 
HETATM   22  C   UNL     1      -7.617  19.268  68.290  1.00  0.00    -0.339 A  
HETATM   23  O   UNL     1      -5.331  18.489  65.929  1.00  0.00    -0.141 OA 
HETATM   24  C   UNL     1      -8.831  19.914  68.523  1.00  0.00    -0.193 A  
HETATM   25  C   UNL     1     -10.022  19.191  68.521  1.00  0.00    -0.496 A  
HETATM   26  C   UNL     1     -10.001  17.821  68.280  1.00  0.00    -0.355 A  
HETATM   27  C   UNL     1      -8.790  17.173  68.038  1.00  0.00    -0.229 A  
ENDBRANCH  12  14
TORSDOF 1
ENDMDL
MODEL      141
REMARK 921   NORMALIZED FREE ENERGY PREDICTED BY IDOCK:    6.39 KCAL/MOL
REMARK 922        TOTAL FREE ENERGY PREDICTED BY IDOCK:    6.33 KCAL/MOL
REMARK 923 INTER-LIGAND FREE ENERGY PREDICTED BY IDOCK:    6.63 KCAL/MOL
REMARK 924 INTRA-LIGAND FREE ENERGY PREDICTED BY IDOCK:   -0.31 KCAL/MOL
REMARK 927      BINDING AFFINITY PREDICTED BY RF-SCORE:    0.00 PKD
ROOT
HETATM    1  C   UNL     1     -13.079  14.172  70.292  1.00  0.00     0.132 C  
HETATM    2  S   UNL     1     -11.763  13.357  71.290  1.00  0.00     1.259 SA 
HETATM    3  C   UNL     1     -10.972  14.934  71.825  1.00  0.00     0.449 C  
HETATM    4  CA  UNL     1     -12.093  15.997  71.704  1.00  0.00    -0.472 C  
HETATM    5  C   UNL     1      -9.796  15.211  70.866  1.00  0.00     1.139 C  
HETATM    6  C   UNL     1     -10.373  14.747  73.222  1.00  0.00     4.454 C  
HETATM    7  N   UNL     1     -12.927  15.622  70.541  1.00  0.00    -0.349 N  
HETATM    8  C   UNL     1     -13.028  16.122  72.921  1.00  0.00    -0.368 C  
HETATM    9  C   UNL     1     -12.480  15.888  69.272  1.00  0.00     0.287 C  
HETATM   10  OXT UNL     1     -12.659  16.301  74.071  1.00  0.00    -0.590 OA 
HETATM   11  O   UNL     1     -14.347  16.100  72.599  1.00  0.00    -0.276 OA 
HETATM   12  CA  UNL     1     -12.788  14.451  68.790  1.00  0.00     1.065 C  
HETATM   13  O   UNL     1     -11.896  16.850  68.828  1.00  0.00     0.291 OA 
ENDROOT
BRANCH  12  14
HETATM   14  N   UNL     1     -11.670  13.683  68.172  1.00  0.00    -0.338 N  
HETATM   15  C   UNL     1     -11.849  12.349  67.886  1.00  0.00    -0.308 C  
HETATM   16  H   UNL     1     -10.782  14.141  67.962  1.00  0.00     0.000 HD 
HETATM   17  C   UNL     1     -10.635  11.579  67.404  1.00  0.00    -0.252 C  
HETATM   18  O   UNL     1     -12.953  11.811  68.009  1.00  0.00     1.749 OA 
HETATM   19  C   UNL     1     -10.580  10.152  67.937  1.00  0.00    -0.249 C  
HETATM   20  C   UNL     1     -10.506  11.609  65.888  1.00  0.00    -0.300 A  
HETATM   21  O   UNL     1     -11.756   9.573  68.265  1.00  0.00     0.451 OA 
HETATM   22  C   UNL     1      -9.236  11.481  65.298  1.00  0.00    -0.094 A  
HETATM   23  O   UNL     1      -9.525   9.532  68.041  1.00  0.00    -0.133 OA 
HETATM   24  C   UNL     1      -9.097  11.472  63.910  1.00  0.00     0.147 A  
HETATM   25  C   UNL     1     -10.218  11.592  63.092  1.00  0.00    -0.389 A  
HETATM   26  C   UNL     1     -11.482  11.716  63.660  1.00  0.00    -0.458 A  
HETATM   27  C   UNL     1     -11.626  11.717  65.047  1.00  0.00    -0.214 A  
ENDBRANCH  12  14
TORSDOF 1
ENDMDL
MODEL      142
REMARK 921   NORMALIZED FREE ENERGY PREDICTED BY IDOCK:    7.23 KCAL/MOL
REMARK 922        TOTAL FREE ENERGY PREDICTED BY IDOCK:    7.21 KCAL/MOL
REMARK 923 INTER-LIGAND FREE ENERGY PREDICTED BY IDOCK:    3.53 KCAL/MOL
REMARK 924 INTRA-LIGAND FREE ENERGY PREDICTED BY IDOCK:    3.68 KCAL/MOL
REMARK 927      BINDING AFFINITY PREDICTED BY RF-SCORE:    0.00 PKD
ROOT
HETATM    1  C   UNL     1      -6.199  14.440  67.167  1.00  0.00     0.757 C  
HETATM    2  S   UNL     1      -7.386  13.692  65.974  1.00  0.00     4.724 SA 
HETATM    3  C   UNL     1      -8.891  14.319  66.834  1.00  0.00    -0.213 C  
HETATM    4  CA  UNL     1      -8.400  15.550  67.638  1.00  0.00    -0.155 C  
HETATM    5  C   UNL     1      -9.406  13.190  67.748  1.00  0.00    -0.206 C  
HETATM    6  C   UNL     1      -9.987  14.588  65.798  1.00  0.00    -0.361 C  
HETATM    7  N   UNL     1      -7.021  15.257  68.086  1.00  0.00    -0.116 N  
HETATM    8  C   UNL     1      -8.361  16.880  66.862  1.00  0.00    -0.213 C  
HETATM    9  C   UNL     1      -6.819  14.424  69.157  1.00  0.00    -0.120 C  
HETATM   10  OXT UNL     1      -9.302  17.361  66.250  1.00  0.00    -0.342 OA 
HETATM   11  O   UNL     1      -7.183  17.546  66.983  1.00  0.00    -0.164 OA 
HETATM   12  CA  UNL     1      -5.765  13.589  68.393  1.00  0.00    -0.097 C  
HETATM   13  O   UNL     1      -7.421  14.325  70.202  1.00  0.00     0.289 OA 
ENDROOT
BRANCH  12  14
HETATM   14  N   UNL     1      -5.993  12.119  68.302  1.00  0.00    -0.050 N  
HETATM   15  C   UNL     1      -7.090  11.571  68.926  1.00  0.00    -0.111 C  
HETATM   16  H   UNL     1      -5.344  11.526  67.784  1.00  0.00     0.000 HD 
HETATM   17  C   UNL     1      -7.193  10.057  68.935  1.00  0.00    -0.077 C  
HETATM   18  O   UNL     1      -7.955  12.283  69.444  1.00  0.00     0.420 OA 
HETATM   19  C   UNL     1      -7.764   9.504  70.234  1.00  0.00    -0.161 C  
HETATM   20  C   UNL     1      -7.952   9.530  67.726  1.00  0.00    -0.099 A  
HETATM   21  O   UNL     1      -8.579  10.316  70.944  1.00  0.00     0.589 OA 
HETATM   22  C   UNL     1      -7.680   8.237  67.247  1.00  0.00    -0.101 A  
HETATM   23  O   UNL     1      -7.530   8.361  70.619  1.00  0.00    -0.058 OA 
HETATM   24  C   UNL     1      -8.387   7.719  66.162  1.00  0.00    -0.129 A  
HETATM   25  C   UNL     1      -9.373   8.482  65.539  1.00  0.00    -0.039 A  
HETATM   26  C   UNL     1      -9.656   9.762  66.004  1.00  0.00    -0.296 A  
HETATM   27  C   UNL     1      -8.957  10.280  67.093  1.00  0.00    -0.145 A  
ENDBRANCH  12  14
TORSDOF 1
ENDMDL
MODEL      143
REMARK 921   NORMALIZED FREE ENERGY PREDICTED BY IDOCK:    7.90 KCAL/MOL
REMARK 922        TOTAL FREE ENERGY PREDICTED BY IDOCK:    7.92 KCAL/MOL
REMARK 923 INTER-LIGAND FREE ENERGY PREDICTED BY IDOCK:    5.37 KCAL/MOL
REMARK 924 INTRA-LIGAND FREE ENERGY PREDICTED BY IDOCK:    2.55 KCAL/MOL
REMARK 927      BINDING AFFINITY PREDICTED BY RF-SCORE:    0.00 PKD
ROOT
HETATM    1  C   UNL     1     -11.397  11.900  64.661  1.00  0.00    -0.293 C  
HETATM    2  S   UNL     1      -9.877  12.769  64.088  1.00  0.00     0.214 SA 
HETATM    3  C   UNL     1      -8.711  11.636  64.958  1.00  0.00     0.466 C  
HETATM    4  CA  UNL     1      -9.508  10.321  65.148  1.00  0.00    -0.252 C  
HETATM    5  C   UNL     1      -8.341  12.295  66.302  1.00  0.00     0.268 C  
HETATM    6  C   UNL     1      -7.418  11.526  64.146  1.00  0.00     2.035 C  
HETATM    7  N   UNL     1     -10.921  10.696  65.375  1.00  0.00     0.085 N  
HETATM    8  C   UNL     1      -9.476   9.345  63.957  1.00  0.00     0.375 C  
HETATM    9  C   UNL     1     -11.310  11.158  66.606  1.00  0.00    -0.001 C  
HETATM   10  OXT UNL     1      -8.461   8.928  63.423  1.00  0.00    -0.190 OA 
HETATM   11  O   UNL     1     -10.704   8.898  63.585  1.00  0.00     6.023 OA 
HETATM   12  CA  UNL     1     -12.047  12.371  65.992  1.00  0.00    -0.254 C  
HETATM   13  O   UNL     1     -10.990  10.803  67.718  1.00  0.00    -0.252 OA 
ENDROOT
BRANCH  12  14
HETATM   14  N   UNL     1     -11.662  13.725  66.484  1.00  0.00    -0.364 N  
HETATM   15  C   UNL     1     -11.052  13.844  67.711  1.00  0.00    -0.262 C  
HETATM   16  H   UNL     1     -11.848  14.553  65.917  1.00  0.00     0.000 HD 
HETATM   17  C   UNL     1     -10.823  15.250  68.232  1.00  0.00    -0.262 C  
HETATM   18  O   UNL     1     -10.700  12.849  68.351  1.00  0.00    -0.240 OA 
HETATM   19  C   UNL     1     -11.022  15.371  69.737  1.00  0.00    -0.287 C  
HETATM   20  C   UNL     1      -9.470  15.802  67.806  1.00  0.00    -0.212 A  
HETATM   21  O   UNL     1     -10.829  14.255  70.476  1.00  0.00     0.205 OA 
HETATM   22  C   UNL     1      -9.298  17.191  67.676  1.00  0.00    -0.239 A  
HETATM   23  O   UNL     1     -11.317  16.436  70.276  1.00  0.00    -0.338 OA 
HETATM   24  C   UNL     1      -8.057  17.722  67.320  1.00  0.00    -0.223 A  
HETATM   25  C   UNL     1      -6.974  16.878  67.089  1.00  0.00    -0.217 A  
HETATM   26  C   UNL     1      -7.127  15.501  67.217  1.00  0.00    -0.225 A  
HETATM   27  C   UNL     1      -8.363  14.967  67.580  1.00  0.00    -0.195 A  
ENDBRANCH  12  14
TORSDOF 1
ENDMDL
MODEL      144
REMARK 921   NORMALIZED FREE ENERGY PREDICTED BY IDOCK:   11.05 KCAL/MOL
REMARK 922        TOTAL FREE ENERGY PREDICTED BY IDOCK:   11.26 KCAL/MOL
REMARK 923 INTER-LIGAND FREE ENERGY PREDICTED BY IDOCK:   11.71 KCAL/MOL
REMARK 924 INTRA-LIGAND FREE ENERGY PREDICTED BY IDOCK:   -0.45 KCAL/MOL
REMARK 927      BINDING AFFINITY PREDICTED BY RF-SCORE:    0.00 PKD
ROOT
HETATM    1  C   UNL     1     -10.215  12.978  66.472  1.00  0.00    -0.268 C  
HETATM    2  S   UNL     1     -11.802  13.913  66.435  1.00  0.00    -0.434 SA 
HETATM    3  C   UNL     1     -12.116  13.621  64.643  1.00  0.00    -0.412 C  
HETATM    4  CA  UNL     1     -11.312  12.341  64.306  1.00  0.00    -0.352 C  
HETATM    5  C   UNL     1     -11.601  14.856  63.875  1.00  0.00     0.326 C  
HETATM    6  C   UNL     1     -13.627  13.547  64.403  1.00  0.00     2.088 C  
HETATM    7  N   UNL     1     -10.084  12.367  65.131  1.00  0.00    -0.274 N  
HETATM    8  C   UNL     1     -12.030  11.009  64.588  1.00  0.00     1.298 C  
HETATM    9  C   UNL     1      -9.037  13.172  64.763  1.00  0.00     1.550 C  
HETATM   10  OXT UNL     1     -13.136  10.707  64.167  1.00  0.00     3.329 OA 
HETATM   11  O   UNL     1     -11.281  10.125  65.298  1.00  0.00     0.893 OA 
HETATM   12  CA  UNL     1      -8.902  13.759  66.188  1.00  0.00     0.407 C  
HETATM   13  O   UNL     1      -8.578  13.418  63.671  1.00  0.00     4.775 OA 
ENDROOT
BRANCH  12  14
HETATM   14  N   UNL     1      -8.963  15.243  66.323  1.00  0.00    -0.404 N  
HETATM   15  C   UNL     1      -8.458  15.833  67.459  1.00  0.00    -0.168 C  
HETATM   16  H   UNL     1      -9.374  15.813  65.583  1.00  0.00     0.000 HD 
HETATM   17  C   UNL     1      -8.685  17.325  67.617  1.00  0.00    -0.219 C  
HETATM   18  O   UNL     1      -7.842  15.177  68.303  1.00  0.00    -0.118 OA 
HETATM   19  C   UNL     1      -8.960  17.739  69.057  1.00  0.00    -0.007 C  
HETATM   20  C   UNL     1      -7.550  18.141  67.014  1.00  0.00    -0.232 A  
HETATM   21  O   UNL     1      -8.461  16.947  70.032  1.00  0.00     1.133 OA 
HETATM   22  C   UNL     1      -7.805  19.442  66.548  1.00  0.00    -0.300 A  
HETATM   23  O   UNL     1      -9.582  18.761  69.337  1.00  0.00    -0.083 OA 
HETATM   24  C   UNL     1      -6.773  20.221  66.022  1.00  0.00    -0.273 A  
HETATM   25  C   UNL     1      -5.478  19.715  65.952  1.00  0.00    -0.169 A  
HETATM   26  C   UNL     1      -5.209  18.430  66.412  1.00  0.00    -0.172 A  
HETATM   27  C   UNL     1      -6.235  17.651  66.946  1.00  0.00    -0.199 A  
ENDBRANCH  12  14
TORSDOF 1
ENDMDL
MODEL      145
REMARK 921   NORMALIZED FREE ENERGY PREDICTED BY IDOCK:   12.65 KCAL/MOL
REMARK 922        TOTAL FREE ENERGY PREDICTED BY IDOCK:   12.94 KCAL/MOL
REMARK 923 INTER-LIGAND FREE ENERGY PREDICTED BY IDOCK:   13.40 KCAL/MOL
REMARK 924 INTRA-LIGAND FREE ENERGY PREDICTED BY IDOCK:   -0.45 KCAL/MOL
REMARK 927      BINDING AFFINITY PREDICTED BY RF-SCORE:    0.00 PKD
ROOT
HETATM    1  C   UNL     1      -9.529  16.139  69.335  1.00  0.00    -0.198 C  
HETATM    2  S   UNL     1      -8.639  15.990  70.942  1.00  0.00     4.121 SA 
HETATM    3  C   UNL     1      -6.988  15.687  70.180  1.00  0.00     0.186 C  
HETATM    4  CA  UNL     1      -7.091  16.302  68.761  1.00  0.00    -0.164 C  
HETATM    5  C   UNL     1      -6.767  14.162  70.143  1.00  0.00     0.038 C  
HETATM    6  C   UNL     1      -5.902  16.272  71.087  1.00  0.00     0.592 C  
HETATM    7  N   UNL     1      -8.479  16.092  68.294  1.00  0.00    -0.175 N  
HETATM    8  C   UNL     1      -6.794  17.809  68.665  1.00  0.00    -0.242 C  
HETATM    9  C   UNL     1      -8.860  14.858  67.833  1.00  0.00    -0.165 C  
HETATM   10  OXT UNL     1      -5.782  18.351  69.081  1.00  0.00    -0.202 OA 
HETATM   11  O   UNL     1      -7.738  18.508  67.981  1.00  0.00    -0.253 OA 
HETATM   12  CA  UNL     1     -10.132  14.849  68.713  1.00  0.00    -0.241 C  
HETATM   13  O   UNL     1      -8.269  14.057  67.146  1.00  0.00    -0.182 OA 
ENDROOT
BRANCH  12  14
HETATM   14  N   UNL     1     -10.320  13.688  69.631  1.00  0.00    -0.152 N  
HETATM   15  C   UNL     1     -11.575  13.420  70.125  1.00  0.00    -0.100 C  
HETATM   16  H   UNL     1      -9.526  13.100  69.888  1.00  0.00     0.000 HD 
HETATM   17  C   UNL     1     -11.684  12.328  71.172  1.00  0.00     1.024 C  
HETATM   18  O   UNL     1     -12.567  14.036  69.724  1.00  0.00    -0.276 OA 
HETATM   19  C   UNL     1     -12.710  12.637  72.255  1.00  0.00     0.163 C  
HETATM   20  C   UNL     1     -11.932  10.962  70.548  1.00  0.00    -0.466 A  
HETATM   21  O   UNL     1     -13.727  13.463  71.922  1.00  0.00    -0.411 OA 
HETATM   22  C   UNL     1     -11.508   9.805  71.223  1.00  0.00    -0.457 A  
HETATM   23  O   UNL     1     -12.647  12.142  73.378  1.00  0.00     3.817 OA 
HETATM   24  C   UNL     1     -11.754   8.541  70.686  1.00  0.00    -0.161 A  
HETATM   25  C   UNL     1     -12.425   8.413  69.472  1.00  0.00     2.470 A  
HETATM   26  C   UNL     1     -12.854   9.549  68.794  1.00  0.00     4.659 A  
HETATM   27  C   UNL     1     -12.617  10.814  69.330  1.00  0.00     0.173 A  
ENDBRANCH  12  14
TORSDOF 1
ENDMDL
MODEL      146
REMARK 921   NORMALIZED FREE ENERGY PREDICTED BY IDOCK:   14.23 KCAL/MOL
REMARK 922        TOTAL FREE ENERGY PREDICTED BY IDOCK:   14.62 KCAL/MOL
REMARK 923 INTER-LIGAND FREE ENERGY PREDICTED BY IDOCK:   11.55 KCAL/MOL
REMARK 924 INTRA-LIGAND FREE ENERGY PREDICTED BY IDOCK:    3.07 KCAL/MOL
REMARK 927      BINDING AFFINITY PREDICTED BY RF-SCORE:    0.00 PKD
ROOT
HETATM    1  C   UNL     1      -8.559  14.542  65.440  1.00  0.00     2.670 C  
HETATM    2  S   UNL     1      -7.613  15.024  66.945  1.00  0.00     0.301 SA 
HETATM    3  C   UNL     1      -8.877  14.400  68.133  1.00  0.00    -0.180 C  
HETATM    4  CA  UNL     1      -9.671  13.333  67.338  1.00  0.00    -0.221 C  
HETATM    5  C   UNL     1      -9.757  15.598  68.545  1.00  0.00    -0.202 C  
HETATM    6  C   UNL     1      -8.175  13.907  69.401  1.00  0.00     0.545 C  
HETATM    7  N   UNL     1      -9.735  13.793  65.933  1.00  0.00    -0.240 N  
HETATM    8  C   UNL     1      -9.063  11.918  67.332  1.00  0.00    -0.178 C  
HETATM    9  C   UNL     1     -10.625  14.776  65.583  1.00  0.00    -0.340 C  
HETATM   10  OXT UNL     1      -8.755  11.285  68.330  1.00  0.00    -0.144 OA 
HETATM   11  O   UNL     1      -8.969  11.370  66.093  1.00  0.00    -0.198 OA 
HETATM   12  CA  UNL     1      -9.540  15.582  64.831  1.00  0.00     0.805 C  
HETATM   13  O   UNL     1     -11.767  14.968  65.935  1.00  0.00    -0.248 OA 
ENDROOT
BRANCH  12  14
HETATM   14  N   UNL     1      -9.343  17.004  65.235  1.00  0.00     0.905 N  
HETATM   15  C   UNL     1     -10.281  17.609  66.039  1.00  0.00    -0.297 C  
HETATM   16  H   UNL     1      -8.522  17.522  64.918  1.00  0.00     0.000 HD 
HETATM   17  C   UNL     1     -10.115  19.096  66.292  1.00  0.00    -0.499 C  
HETATM   18  O   UNL     1     -11.208  16.965  66.538  1.00  0.00     0.235 OA 
HETATM   19  C   UNL     1     -11.440  19.845  66.347  1.00  0.00     0.934 C  
HETATM   20  C   UNL     1      -9.271  19.373  67.527  1.00  0.00    -0.375 A  
HETATM   21  O   UNL     1     -12.533  19.138  66.712  1.00  0.00     3.499 OA 
HETATM   22  C   UNL     1      -8.542  20.571  67.613  1.00  0.00    -0.252 A  
HETATM   23  O   UNL     1     -11.524  21.046  66.102  1.00  0.00     2.926 OA 
HETATM   24  C   UNL     1      -7.788  20.863  68.751  1.00  0.00     1.160 A  
HETATM   25  C   UNL     1      -7.748  19.965  69.815  1.00  0.00     0.366 A  
HETATM   26  C   UNL     1      -8.467  18.775  69.746  1.00  0.00     0.918 A  
HETATM   27  C   UNL     1      -9.228  18.484  68.615  1.00  0.00    -0.336 A  
ENDBRANCH  12  14
TORSDOF 1
ENDMDL
MODEL      147
REMARK 921   NORMALIZED FREE ENERGY PREDICTED BY IDOCK:   14.58 KCAL/MOL
REMARK 922        TOTAL FREE ENERGY PREDICTED BY IDOCK:   14.99 KCAL/MOL
REMARK 923 INTER-LIGAND FREE ENERGY PREDICTED BY IDOCK:   12.94 KCAL/MOL
REMARK 924 INTRA-LIGAND FREE ENERGY PREDICTED BY IDOCK:    2.04 KCAL/MOL
REMARK 927      BINDING AFFINITY PREDICTED BY RF-SCORE:    0.00 PKD
ROOT
HETATM    1  C   UNL     1     -10.177  12.630  65.557  1.00  0.00    -0.281 C  
HETATM    2  S   UNL     1     -11.589  13.028  66.671  1.00  0.00    -0.377 SA 
HETATM    3  C   UNL     1     -12.678  13.662  65.326  1.00  0.00    -0.430 C  
HETATM    4  CA  UNL     1     -12.141  12.992  64.036  1.00  0.00    -0.450 C  
HETATM    5  C   UNL     1     -12.530  15.197  65.294  1.00  0.00     0.322 C  
HETATM    6  C   UNL     1     -14.138  13.364  65.678  1.00  0.00     4.478 C  
HETATM    7  N   UNL     1     -10.673  12.873  64.185  1.00  0.00    -0.400 N  
HETATM    8  C   UNL     1     -12.690  11.585  63.738  1.00  0.00     0.132 C  
HETATM    9  C   UNL     1      -9.881  13.975  63.993  1.00  0.00     2.217 C  
HETATM   10  OXT UNL     1     -13.875  11.295  63.675  1.00  0.00     0.519 OA 
HETATM   11  O   UNL     1     -11.725  10.672  63.455  1.00  0.00     1.306 OA 
HETATM   12  CA  UNL     1      -9.110  13.733  65.311  1.00  0.00     1.236 C  
HETATM   13  O   UNL     1      -9.952  14.864  63.174  1.00  0.00     6.118 OA 
ENDROOT
BRANCH  12  14
HETATM   14  N   UNL     1      -9.067  14.854  66.293  1.00  0.00    -0.449 N  
HETATM   15  C   UNL     1      -9.336  14.596  67.618  1.00  0.00    -0.200 C  
HETATM   16  H   UNL     1      -8.842  15.802  65.987  1.00  0.00     0.000 HD 
HETATM   17  C   UNL     1      -9.433  15.792  68.547  1.00  0.00    -0.201 C  
HETATM   18  O   UNL     1      -9.480  13.442  68.029  1.00  0.00    -0.204 OA 
HETATM   19  C   UNL     1     -10.510  15.637  69.612  1.00  0.00    -0.283 C  
HETATM   20  C   UNL     1      -8.087  16.143  69.166  1.00  0.00    -0.230 A  
HETATM   21  O   UNL     1     -10.843  14.377  69.972  1.00  0.00    -0.087 OA 
HETATM   22  C   UNL     1      -7.831  17.467  69.560  1.00  0.00     0.492 A  
HETATM   23  O   UNL     1     -11.041  16.604  70.152  1.00  0.00    -0.310 OA 
HETATM   24  C   UNL     1      -6.618  17.806  70.161  1.00  0.00     0.522 A  
HETATM   25  C   UNL     1      -5.646  16.832  70.376  1.00  0.00    -0.166 A  
HETATM   26  C   UNL     1      -5.886  15.516  69.995  1.00  0.00    -0.144 A  
HETATM   27  C   UNL     1      -7.100  15.171  69.401  1.00  0.00    -0.189 A  
ENDBRANCH  12  14
TORSDOF 1
ENDMDL
MODEL      148
REMARK 921   NORMALIZED FREE ENERGY PREDICTED BY IDOCK:   20.37 KCAL/MOL
REMARK 922        TOTAL FREE ENERGY PREDICTED BY IDOCK:   21.12 KCAL/MOL
REMARK 923 INTER-LIGAND FREE ENERGY PREDICTED BY IDOCK:   13.78 KCAL/MOL
REMARK 924 INTRA-LIGAND FREE ENERGY PREDICTED BY IDOCK:    7.35 KCAL/MOL
REMARK 927      BINDING AFFINITY PREDICTED BY RF-SCORE:    0.00 PKD
ROOT
HETATM    1  C   UNL     1      -6.979  19.036  68.712  1.00  0.00    -0.310 C  
HETATM    2  S   UNL     1      -8.769  19.241  68.325  1.00  0.00    -0.346 SA 
HETATM    3  C   UNL     1      -9.351  18.732  69.998  1.00  0.00     1.292 C  
HETATM    4  CA  UNL     1      -8.146  19.004  70.934  1.00  0.00     3.710 C  
HETATM    5  C   UNL     1      -9.712  17.235  69.927  1.00  0.00     0.844 C  
HETATM    6  C   UNL     1     -10.642  19.485  70.332  1.00  0.00     1.656 C  
HETATM    7  N   UNL     1      -6.919  18.724  70.157  1.00  0.00     0.431 N  
HETATM    8  C   UNL     1      -8.033  20.441  71.475  1.00  0.00     2.049 C  
HETATM    9  C   UNL     1      -6.524  17.427  69.956  1.00  0.00     0.201 C  
HETATM   10  OXT UNL     1      -8.922  21.040  72.060  1.00  0.00     1.366 OA 
HETATM   11  O   UNL     1      -6.797  20.984  71.324  1.00  0.00     0.816 OA 
HETATM   12  CA  UNL     1      -6.329  17.651  68.438  1.00  0.00    -0.187 C  
HETATM   13  O   UNL     1      -6.539  16.474  70.702  1.00  0.00     0.716 OA 
ENDROOT
BRANCH  12  14
HETATM   14  N   UNL     1      -7.061  16.739  67.513  1.00  0.00    -0.139 N  
HETATM   15  C   UNL     1      -8.216  16.130  67.946  1.00  0.00    -0.153 C  
HETATM   16  H   UNL     1      -6.709  16.569  66.570  1.00  0.00     0.000 HD 
HETATM   17  C   UNL     1      -8.835  15.095  67.026  1.00  0.00    -0.258 C  
HETATM   18  O   UNL     1      -8.727  16.424  69.031  1.00  0.00    -0.248 OA 
HETATM   19  C   UNL     1      -9.438  13.913  67.775  1.00  0.00    -0.214 C  
HETATM   20  C   UNL     1      -9.841  15.715  66.067  1.00  0.00    -0.362 A  
HETATM   21  O   UNL     1      -9.849  14.133  69.044  1.00  0.00    -0.153 OA 
HETATM   22  C   UNL     1     -10.080  15.102  64.825  1.00  0.00     0.031 A  
HETATM   23  O   UNL     1      -9.579  12.810  67.253  1.00  0.00    -0.199 OA 
HETATM   24  C   UNL     1     -11.023  15.633  63.942  1.00  0.00     1.201 A  
HETATM   25  C   UNL     1     -11.737  16.779  64.285  1.00  0.00     0.927 A  
HETATM   26  C   UNL     1     -11.513  17.394  65.512  1.00  0.00     1.289 A  
HETATM   27  C   UNL     1     -10.578  16.863  66.400  1.00  0.00    -0.183 A  
ENDBRANCH  12  14
TORSDOF 1
ENDMDL
MODEL      149
REMARK 921   NORMALIZED FREE ENERGY PREDICTED BY IDOCK:   20.67 KCAL/MOL
REMARK 922        TOTAL FREE ENERGY PREDICTED BY IDOCK:   21.44 KCAL/MOL
REMARK 923 INTER-LIGAND FREE ENERGY PREDICTED BY IDOCK:   21.94 KCAL/MOL
REMARK 924 INTRA-LIGAND FREE ENERGY PREDICTED BY IDOCK:   -0.51 KCAL/MOL
REMARK 927      BINDING AFFINITY PREDICTED BY RF-SCORE:    0.00 PKD
ROOT
HETATM    1  C   UNL     1     -11.842  15.004  70.191  1.00  0.00    -0.314 C  
HETATM    2  S   UNL     1     -10.565  14.095  71.159  1.00  0.00     2.853 SA 
HETATM    3  C   UNL     1     -10.821  15.064  72.706  1.00  0.00     1.467 C  
HETATM    4  CA  UNL     1     -12.261  15.622  72.587  1.00  0.00    -0.439 C  
HETATM    5  C   UNL     1      -9.759  16.182  72.734  1.00  0.00     8.572 C  
HETATM    6  C   UNL     1     -10.548  14.163  73.914  1.00  0.00     5.539 C  
HETATM    7  N   UNL     1     -12.500  15.911  71.156  1.00  0.00    -0.430 N  
HETATM    8  C   UNL     1     -13.382  14.680  73.061  1.00  0.00    -0.423 C  
HETATM    9  C   UNL     1     -11.969  17.045  70.595  1.00  0.00     2.210 C  
HETATM   10  OXT UNL     1     -13.430  14.145  74.158  1.00  0.00     1.717 OA 
HETATM   11  O   UNL     1     -14.398  14.548  72.168  1.00  0.00    -0.494 OA 
HETATM   12  CA  UNL     1     -11.394  16.261  69.393  1.00  0.00    -0.284 C  
HETATM   13  O   UNL     1     -11.864  18.166  71.036  1.00  0.00     4.662 OA 
ENDROOT
BRANCH  12  14
HETATM   14  N   UNL     1      -9.933  16.398  69.124  1.00  0.00    -0.264 N  
HETATM   15  C   UNL     1      -9.511  17.264  68.142  1.00  0.00    -0.278 C  
HETATM   16  H   UNL     1      -9.256  15.856  69.662  1.00  0.00     0.000 HD 
HETATM   17  C   UNL     1      -8.032  17.250  67.802  1.00  0.00    -0.194 C  
HETATM   18  O   UNL     1     -10.301  18.022  67.573  1.00  0.00    -0.352 OA 
HETATM   19  C   UNL     1      -7.758  17.441  66.316  1.00  0.00    -0.305 C  
HETATM   20  C   UNL     1      -7.246  18.246  68.643  1.00  0.00    -0.293 A  
HETATM   21  O   UNL     1      -8.688  18.110  65.599  1.00  0.00    -0.302 OA 
HETATM   22  C   UNL     1      -5.886  18.008  68.906  1.00  0.00    -0.201 A  
HETATM   23  O   UNL     1      -6.728  17.036  65.783  1.00  0.00     0.077 OA 
HETATM   24  C   UNL     1      -5.136  18.924  69.645  1.00  0.00    -0.183 A  
HETATM   25  C   UNL     1      -5.730  20.085  70.133  1.00  0.00    -0.329 A  
HETATM   26  C   UNL     1      -7.074  20.336  69.879  1.00  0.00     0.185 A  
HETATM   27  C   UNL     1      -7.825  19.428  69.133  1.00  0.00    -0.253 A  
ENDBRANCH  12  14
TORSDOF 1
ENDMDL
MODEL      150
REMARK 921   NORMALIZED FREE ENERGY PREDICTED BY IDOCK:   21.97 KCAL/MOL
REMARK 922        TOTAL FREE ENERGY PREDICTED BY IDOCK:   22.81 KCAL/MOL
REMARK 923 INTER-LIGAND FREE ENERGY PREDICTED BY IDOCK:   16.07 KCAL/MOL
REMARK 924 INTRA-LIGAND FREE ENERGY PREDICTED BY IDOCK:    6.74 KCAL/MOL
REMARK 927      BINDING AFFINITY PREDICTED BY RF-SCORE:    0.00 PKD
ROOT
HETATM    1  C   UNL     1      -9.377  16.625  65.985  1.00  0.00    -0.235 C  
HETATM    2  S   UNL     1      -9.551  15.597  67.504  1.00  0.00    -0.224 SA 
HETATM    3  C   UNL     1     -11.301  15.124  67.175  1.00  0.00    -0.290 C  
HETATM    4  CA  UNL     1     -11.472  15.285  65.644  1.00  0.00    -0.123 C  
HETATM    5  C   UNL     1     -12.200  16.094  67.970  1.00  0.00     0.923 C  
HETATM    6  C   UNL     1     -11.557  13.722  67.735  1.00  0.00    -0.381 C  
HETATM    7  N   UNL     1     -10.634  16.433  65.230  1.00  0.00    -0.356 N  
HETATM    8  C   UNL     1     -11.047  14.073  64.795  1.00  0.00    -0.387 C  
HETATM    9  C   UNL     1     -11.076  17.711  65.456  1.00  0.00     0.436 C  
HETATM   10  OXT UNL     1     -11.449  12.932  64.956  1.00  0.00    -0.300 OA 
HETATM   11  O   UNL     1     -10.226  14.393  63.761  1.00  0.00     1.212 OA 
HETATM   12  CA  UNL     1      -9.728  18.136  66.084  1.00  0.00    -0.210 C  
HETATM   13  O   UNL     1     -12.181  18.192  65.354  1.00  0.00     4.133 OA 
ENDROOT
BRANCH  12  14
HETATM   14  N   UNL     1      -9.769  18.726  67.453  1.00  0.00    -0.299 N  
HETATM   15  C   UNL     1      -9.519  17.918  68.539  1.00  0.00    -0.313 C  
HETATM   16  H   UNL     1      -9.980  19.716  67.584  1.00  0.00     0.000 HD 
HETATM   17  C   UNL     1      -9.725  18.528  69.912  1.00  0.00     0.877 C  
HETATM   18  O   UNL     1      -9.134  16.754  68.396  1.00  0.00    -0.218 OA 
HETATM   19  C   UNL     1     -10.309  17.547  70.921  1.00  0.00     2.365 C  
HETATM   20  C   UNL     1      -8.456  19.179  70.443  1.00  0.00     2.062 A  
HETATM   21  O   UNL     1     -10.073  16.233  70.710  1.00  0.00     0.782 OA 
HETATM   22  C   UNL     1      -8.553  20.241  71.358  1.00  0.00     2.127 A  
HETATM   23  O   UNL     1     -10.944  17.920  71.905  1.00  0.00     1.567 OA 
HETATM   24  C   UNL     1      -7.403  20.831  71.885  1.00  0.00     2.374 A  
HETATM   25  C   UNL     1      -6.143  20.372  71.507  1.00  0.00    -0.175 A  
HETATM   26  C   UNL     1      -6.031  19.319  70.605  1.00  0.00    -0.116 A  
HETATM   27  C   UNL     1      -7.177  18.721  70.082  1.00  0.00     0.838 A  
ENDBRANCH  12  14
TORSDOF 1
ENDMDL
MODEL      151
REMARK 921   NORMALIZED FREE ENERGY PREDICTED BY IDOCK:   22.09 KCAL/MOL
REMARK 922        TOTAL FREE ENERGY PREDICTED BY IDOCK:   22.94 KCAL/MOL
REMARK 923 INTER-LIGAND FREE ENERGY PREDICTED BY IDOCK:   18.40 KCAL/MOL
REMARK 924 INTRA-LIGAND FREE ENERGY PREDICTED BY IDOCK:    4.54 KCAL/MOL
REMARK 927      BINDING AFFINITY PREDICTED BY RF-SCORE:    0.00 PKD
ROOT
HETATM    1  C   UNL     1      -9.813  13.543  66.274  1.00  0.00    -0.299 C  
HETATM    2  S   UNL     1     -11.382  14.011  67.118  1.00  0.00    -0.348 SA 
HETATM    3  C   UNL     1     -11.931  15.173  65.797  1.00  0.00     0.165 C  
HETATM    4  CA  UNL     1     -11.188  14.699  64.522  1.00  0.00    -0.282 C  
HETATM    5  C   UNL     1     -11.510  16.593  66.225  1.00  0.00     0.915 C  
HETATM    6  C   UNL     1     -13.460  15.166  65.724  1.00  0.00     2.143 C  
HETATM    7  N   UNL     1      -9.863  14.198  64.949  1.00  0.00    -0.100 N  
HETATM    8  C   UNL     1     -11.876  13.570  63.732  1.00  0.00    -0.381 C  
HETATM    9  C   UNL     1      -8.866  15.091  65.249  1.00  0.00     1.939 C  
HETATM   10  OXT UNL     1     -13.029  13.597  63.334  1.00  0.00    -0.301 OA 
HETATM   11  O   UNL     1     -11.048  12.537  63.425  1.00  0.00    -0.459 OA 
HETATM   12  CA  UNL     1      -8.541  14.381  66.584  1.00  0.00    -0.019 C  
HETATM   13  O   UNL     1      -8.552  16.129  64.714  1.00  0.00     2.673 OA 
ENDROOT
BRANCH  12  14
HETATM   14  N   UNL     1      -8.571  15.209  67.823  1.00  0.00    -0.148 N  
HETATM   15  C   UNL     1      -9.032  16.504  67.753  1.00  0.00    -0.202 C  
HETATM   16  H   UNL     1      -8.253  14.822  68.712  1.00  0.00     0.000 HD 
HETATM   17  C   UNL     1      -8.897  17.352  69.004  1.00  0.00    -0.056 C  
HETATM   18  O   UNL     1      -9.542  16.947  66.720  1.00  0.00    -0.242 OA 
HETATM   19  C   UNL     1      -8.548  18.805  68.707  1.00  0.00    -0.281 C  
HETATM   20  C   UNL     1     -10.124  17.247  69.898  1.00  0.00     0.441 A  
HETATM   21  O   UNL     1      -8.922  19.294  67.504  1.00  0.00    -0.290 OA 
HETATM   22  C   UNL     1      -9.991  17.455  71.282  1.00  0.00     4.478 A  
HETATM   23  O   UNL     1      -7.978  19.522  69.526  1.00  0.00    -0.127 OA 
HETATM   24  C   UNL     1     -11.108  17.399  72.117  1.00  0.00     1.911 A  
HETATM   25  C   UNL     1     -12.368  17.134  71.587  1.00  0.00     3.238 A  
HETATM   26  C   UNL     1     -12.516  16.929  70.219  1.00  0.00     3.519 A  
HETATM   27  C   UNL     1     -11.404  16.993  69.379  1.00  0.00     0.513 A  
ENDBRANCH  12  14
TORSDOF 1
ENDMDL
MODEL      152
REMARK 921   NORMALIZED FREE ENERGY PREDICTED BY IDOCK:   22.35 KCAL/MOL
REMARK 922        TOTAL FREE ENERGY PREDICTED BY IDOCK:   23.22 KCAL/MOL
REMARK 923 INTER-LIGAND FREE ENERGY PREDICTED BY IDOCK:   23.68 KCAL/MOL
REMARK 924 INTRA-LIGAND FREE ENERGY PREDICTED BY IDOCK:   -0.47 KCAL/MOL
REMARK 927      BINDING AFFINITY PREDICTED BY RF-SCORE:    0.00 PKD
ROOT
HETATM    1  C   UNL     1     -11.842  15.004  70.191  1.00  0.00    -0.314 C  
HETATM    2  S   UNL     1     -10.567  14.041  71.108  1.00  0.00     3.268 SA 
HETATM    3  C   UNL     1     -10.763  14.979  72.682  1.00  0.00     1.737 C  
HETATM    4  CA  UNL     1     -12.191  15.577  72.610  1.00  0.00    -0.420 C  
HETATM    5  C   UNL     1      -9.672  16.069  72.711  1.00  0.00     8.098 C  
HETATM    6  C   UNL     1     -10.487  14.043  73.863  1.00  0.00     6.667 C  
HETATM    7  N   UNL     1     -12.454  15.905  71.191  1.00  0.00    -0.430 N  
HETATM    8  C   UNL     1     -13.325  14.652  73.088  1.00  0.00    -0.317 C  
HETATM    9  C   UNL     1     -11.907  17.037  70.645  1.00  0.00     1.808 C  
HETATM   10  OXT UNL     1     -13.361  14.093  74.173  1.00  0.00     1.280 OA 
HETATM   11  O   UNL     1     -14.363  14.568  72.216  1.00  0.00    -0.485 OA 
HETATM   12  CA  UNL     1     -11.379  16.267  69.412  1.00  0.00    -0.284 C  
HETATM   13  O   UNL     1     -11.762  18.145  71.109  1.00  0.00     3.993 OA 
ENDROOT
BRANCH  12  14
HETATM   14  N   UNL     1      -9.922  16.373  69.112  1.00  0.00    -0.264 N  
HETATM   15  C   UNL     1      -9.439  15.842  67.939  1.00  0.00    -0.213 C  
HETATM   16  H   UNL     1      -9.292  16.834  69.769  1.00  0.00     0.000 HD 
HETATM   17  C   UNL     1      -7.933  15.837  67.754  1.00  0.00    -0.155 C  
HETATM   18  O   UNL     1     -10.200  15.400  67.074  1.00  0.00    -0.253 OA 
HETATM   19  C   UNL     1      -7.420  14.590  67.047  1.00  0.00     0.222 C  
HETATM   20  C   UNL     1      -7.439  17.105  67.071  1.00  0.00    -0.223 A  
HETATM   21  O   UNL     1      -8.281  13.953  66.221  1.00  0.00     0.631 OA 
HETATM   22  C   UNL     1      -6.130  17.555  67.312  1.00  0.00    -0.162 A  
HETATM   23  O   UNL     1      -6.269  14.184  67.187  1.00  0.00    -0.198 OA 
HETATM   24  C   UNL     1      -5.643  18.695  66.670  1.00  0.00    -0.166 A  
HETATM   25  C   UNL     1      -6.453  19.400  65.783  1.00  0.00    -0.254 A  
HETATM   26  C   UNL     1      -7.750  18.964  65.531  1.00  0.00     0.313 A  
HETATM   27  C   UNL     1      -8.237  17.821  66.164  1.00  0.00    -0.193 A  
ENDBRANCH  12  14
TORSDOF 1
ENDMDL
MODEL      153
REMARK 921   NORMALIZED FREE ENERGY PREDICTED BY IDOCK:   52.66 KCAL/MOL
REMARK 922        TOTAL FREE ENERGY PREDICTED BY IDOCK:   55.30 KCAL/MOL
REMARK 923 INTER-LIGAND FREE ENERGY PREDICTED BY IDOCK:   53.25 KCAL/MOL
REMARK 924 INTRA-LIGAND FREE ENERGY PREDICTED BY IDOCK:    2.05 KCAL/MOL
REMARK 927      BINDING AFFINITY PREDICTED BY RF-SCORE:    0.00 PKD
ROOT
HETATM    1  C   UNL     1     -11.515  15.667  70.798  1.00  0.00    -0.379 C  
HETATM    2  S   UNL     1     -10.420  14.186  70.753  1.00  0.00     2.240 SA 
HETATM    3  C   UNL     1      -8.943  15.062  71.424  1.00  0.00     3.781 C  
HETATM    4  CA  UNL     1      -9.522  16.273  72.198  1.00  0.00     7.960 C  
HETATM    5  C   UNL     1      -8.075  15.493  70.225  1.00  0.00     0.872 C  
HETATM    6  C   UNL     1      -8.107  14.078  72.247  1.00  0.00     8.321 C  
HETATM    7  N   UNL     1     -10.725  16.725  71.465  1.00  0.00     1.306 N  
HETATM    8  C   UNL     1      -9.945  15.995  73.652  1.00  0.00     9.424 C  
HETATM    9  C   UNL     1     -10.582  17.469  70.322  1.00  0.00     1.009 C  
HETATM   10  OXT UNL     1      -9.229  15.493  74.505  1.00  0.00    12.775 OA 
HETATM   11  O   UNL     1     -11.192  16.442  73.952  1.00  0.00     1.121 OA 
HETATM   12  CA  UNL     1     -11.567  16.573  69.536  1.00  0.00     0.127 C  
HETATM   13  O   UNL     1      -9.808  18.359  70.053  1.00  0.00     0.668 OA 
ENDROOT
BRANCH  12  14
HETATM   14  N   UNL     1     -11.078  15.975  68.261  1.00  0.00    -0.340 N  
HETATM   15  C   UNL     1     -11.295  14.637  68.021  1.00  0.00    -0.311 C  
HETATM   16  H   UNL     1     -10.588  16.549  67.575  1.00  0.00     0.000 HD 
HETATM   17  C   UNL     1     -10.644  14.044  66.786  1.00  0.00    -0.277 C  
HETATM   18  O   UNL     1     -11.998  13.957  68.775  1.00  0.00    -0.341 OA 
HETATM   19  C   UNL     1     -10.140  12.623  66.999  1.00  0.00    -0.224 C  
HETATM   20  C   UNL     1     -11.549  14.135  65.566  1.00  0.00    -0.337 A  
HETATM   21  O   UNL     1     -10.758  11.886  67.950  1.00  0.00    -0.192 OA 
HETATM   22  C   UNL     1     -10.977  14.189  64.283  1.00  0.00    -0.104 A  
HETATM   23  O   UNL     1      -9.233  12.141  66.325  1.00  0.00    -0.220 OA 
HETATM   24  C   UNL     1     -11.787  14.238  63.147  1.00  0.00     1.224 A  
HETATM   25  C   UNL     1     -13.174  14.234  63.275  1.00  0.00     2.761 A  
HETATM   26  C   UNL     1     -13.755  14.178  64.538  1.00  0.00     2.672 A  
HETATM   27  C   UNL     1     -12.949  14.121  65.675  1.00  0.00    -0.284 A  
ENDBRANCH  12  14
TORSDOF 1
ENDMDL
MODEL      154
REMARK 921   NORMALIZED FREE ENERGY PREDICTED BY IDOCK:   56.86 KCAL/MOL
REMARK 922        TOTAL FREE ENERGY PREDICTED BY IDOCK:   59.74 KCAL/MOL
REMARK 923 INTER-LIGAND FREE ENERGY PREDICTED BY IDOCK:   56.48 KCAL/MOL
REMARK 924 INTRA-LIGAND FREE ENERGY PREDICTED BY IDOCK:    3.26 KCAL/MOL
REMARK 927      BINDING AFFINITY PREDICTED BY RF-SCORE:    0.00 PKD
ROOT
HETATM    1  C   UNL     1     -12.580  15.245  70.638  1.00  0.00    -0.417 C  
HETATM    2  S   UNL     1     -10.852  14.623  70.488  1.00  0.00     0.284 SA 
HETATM    3  C   UNL     1     -10.370  15.080  72.208  1.00  0.00     2.500 C  
HETATM    4  CA  UNL     1     -11.707  15.137  72.989  1.00  0.00    -0.285 C  
HETATM    5  C   UNL     1      -9.671  16.453  72.144  1.00  0.00     7.037 C  
HETATM    6  C   UNL     1      -9.334  14.077  72.723  1.00  0.00    10.589 C  
HETATM    7  N   UNL     1     -12.738  15.640  72.055  1.00  0.00    -0.404 N  
HETATM    8  C   UNL     1     -12.209  13.793  73.550  1.00  0.00     1.714 C  
HETATM    9  C   UNL     1     -12.798  16.980  71.771  1.00  0.00     4.230 C  
HETATM   10  OXT UNL     1     -11.556  13.043  74.258  1.00  0.00     7.023 OA 
HETATM   11  O   UNL     1     -13.510  13.532  73.257  1.00  0.00    -0.303 OA 
HETATM   12  CA  UNL     1     -12.859  16.723  70.247  1.00  0.00     4.164 C  
HETATM   13  O   UNL     1     -12.654  17.945  72.487  1.00  0.00     4.812 OA 
ENDROOT
BRANCH  12  14
HETATM   14  N   UNL     1     -11.834  17.396  69.399  1.00  0.00     1.275 N  
HETATM   15  C   UNL     1     -11.016  16.630  68.601  1.00  0.00    -0.328 C  
HETATM   16  H   UNL     1     -11.740  18.412  69.410  1.00  0.00     0.000 HD 
HETATM   17  C   UNL     1      -9.891  17.347  67.879  1.00  0.00    -0.287 C  
HETATM   18  O   UNL     1     -11.200  15.416  68.473  1.00  0.00    -0.282 OA 
HETATM   19  C   UNL     1      -8.611  16.525  67.798  1.00  0.00    -0.177 C  
HETATM   20  C   UNL     1     -10.320  17.841  66.504  1.00  0.00    -0.345 A  
HETATM   21  O   UNL     1      -8.740  15.180  67.841  1.00  0.00    -0.153 OA 
HETATM   22  C   UNL     1      -9.684  18.961  65.942  1.00  0.00    -0.023 A  
HETATM   23  O   UNL     1      -7.506  17.045  67.670  1.00  0.00    -0.159 OA 
HETATM   24  C   UNL     1     -10.036  19.412  64.669  1.00  0.00     3.544 A  
HETATM   25  C   UNL     1     -11.025  18.754  63.941  1.00  0.00     8.385 A  
HETATM   26  C   UNL     1     -11.661  17.642  64.483  1.00  0.00     3.240 A  
HETATM   27  C   UNL     1     -11.307  17.183  65.751  1.00  0.00     0.847 A  
ENDBRANCH  12  14
TORSDOF 1
ENDMDL
MODEL      155
REMARK 921   NORMALIZED FREE ENERGY PREDICTED BY IDOCK:   66.53 KCAL/MOL
REMARK 922        TOTAL FREE ENERGY PREDICTED BY IDOCK:   69.97 KCAL/MOL
REMARK 923 INTER-LIGAND FREE ENERGY PREDICTED BY IDOCK:   70.41 KCAL/MOL
REMARK 924 INTRA-LIGAND FREE ENERGY PREDICTED BY IDOCK:   -0.44 KCAL/MOL
REMARK 927      BINDING AFFINITY PREDICTED BY RF-SCORE:    0.00 PKD
ROOT
HETATM    1  C   UNL     1      -9.068  13.779  70.574  1.00  0.00     4.240 C  
HETATM    2  S   UNL     1      -9.676  15.429  71.121  1.00  0.00     2.386 SA 
HETATM    3  C   UNL     1     -11.288  14.801  71.758  1.00  0.00     0.084 C  
HETATM    4  CA  UNL     1     -11.034  13.302  72.060  1.00  0.00     5.983 C  
HETATM    5  C   UNL     1     -12.337  15.004  70.646  1.00  0.00    -0.404 C  
HETATM    6  C   UNL     1     -11.728  15.660  72.947  1.00  0.00    -0.512 C  
HETATM    7  N   UNL     1     -10.081  12.808  71.043  1.00  0.00     6.698 N  
HETATM    8  C   UNL     1     -10.434  12.994  73.445  1.00  0.00    14.847 C  
HETATM    9  C   UNL     1     -10.527  12.520  69.779  1.00  0.00     1.007 C  
HETATM   10  OXT UNL     1     -10.899  13.372  74.508  1.00  0.00     6.607 OA 
HETATM   11  O   UNL     1      -9.355  12.170  73.399  1.00  0.00    20.276 OA 
HETATM   12  CA  UNL     1      -9.386  13.330  69.120  1.00  0.00     0.593 C  
HETATM   13  O   UNL     1     -11.549  11.990  69.406  1.00  0.00    -0.288 OA 
ENDROOT
BRANCH  12  14
HETATM   14  N   UNL     1      -9.776  14.402  68.159  1.00  0.00    -0.217 N  
HETATM   15  C   UNL     1      -8.906  14.747  67.151  1.00  0.00    -0.216 C  
HETATM   16  H   UNL     1     -10.677  14.873  68.248  1.00  0.00     0.000 HD 
HETATM   17  C   UNL     1      -9.281  15.945  66.299  1.00  0.00    -0.372 C  
HETATM   18  O   UNL     1      -7.873  14.103  66.947  1.00  0.00     0.000 OA 
HETATM   19  C   UNL     1      -8.081  16.794  65.898  1.00  0.00     0.117 C  
HETATM   20  C   UNL     1     -10.105  15.544  65.084  1.00  0.00    -0.263 A  
HETATM   21  O   UNL     1      -6.881  16.174  65.838  1.00  0.00     0.824 OA 
HETATM   22  C   UNL     1     -11.000  16.468  64.518  1.00  0.00     0.060 A  
HETATM   23  O   UNL     1      -8.187  17.984  65.611  1.00  0.00    -0.455 OA 
HETATM   24  C   UNL     1     -11.742  16.135  63.384  1.00  0.00     2.574 A  
HETATM   25  C   UNL     1     -11.603  14.878  62.800  1.00  0.00     4.199 A  
HETATM   26  C   UNL     1     -10.719  13.953  63.346  1.00  0.00     2.153 A  
HETATM   27  C   UNL     1      -9.970  14.285  64.475  1.00  0.00     0.488 A  
ENDBRANCH  12  14
TORSDOF 1
ENDMDL
MODEL      156
REMARK 921   NORMALIZED FREE ENERGY PREDICTED BY IDOCK:   76.13 KCAL/MOL
REMARK 922        TOTAL FREE ENERGY PREDICTED BY IDOCK:   80.14 KCAL/MOL
REMARK 923 INTER-LIGAND FREE ENERGY PREDICTED BY IDOCK:   80.57 KCAL/MOL
REMARK 924 INTRA-LIGAND FREE ENERGY PREDICTED BY IDOCK:   -0.44 KCAL/MOL
REMARK 927      BINDING AFFINITY PREDICTED BY RF-SCORE:    0.00 PKD
ROOT
HETATM    1  C   UNL     1      -7.849  15.957  65.266  1.00  0.00     4.436 C  
HETATM    2  S   UNL     1      -7.027  14.750  66.389  1.00  0.00     3.323 SA 
HETATM    3  C   UNL     1      -8.275  13.418  66.130  1.00  0.00     1.350 C  
HETATM    4  CA  UNL     1      -8.919  13.744  64.759  1.00  0.00     2.813 C  
HETATM    5  C   UNL     1      -9.289  13.502  67.288  1.00  0.00    -0.233 C  
HETATM    6  C   UNL     1      -7.586  12.055  66.240  1.00  0.00     0.473 C  
HETATM    7  N   UNL     1      -8.965  15.218  64.637  1.00  0.00     3.371 N  
HETATM    8  C   UNL     1      -8.171  13.202  63.526  1.00  0.00     8.465 C  
HETATM    9  C   UNL     1      -9.932  15.923  65.306  1.00  0.00    -0.086 C  
HETATM   10  OXT UNL     1      -7.847  12.037  63.361  1.00  0.00     1.875 OA 
HETATM   11  O   UNL     1      -7.965  14.136  62.560  1.00  0.00    14.806 OA 
HETATM   12  CA  UNL     1      -8.901  16.923  65.879  1.00  0.00    -0.032 C  
HETATM   13  O   UNL     1     -11.103  15.676  65.489  1.00  0.00    -0.303 OA 
ENDROOT
BRANCH  12  14
HETATM   14  N   UNL     1      -8.868  17.097  67.360  1.00  0.00    -0.210 N  
HETATM   15  C   UNL     1      -8.884  18.368  67.886  1.00  0.00    -0.280 C  
HETATM   16  H   UNL     1      -8.834  16.283  67.975  1.00  0.00     0.000 HD 
HETATM   17  C   UNL     1      -8.692  18.495  69.385  1.00  0.00     0.380 C  
HETATM   18  O   UNL     1      -9.057  19.356  67.168  1.00  0.00    -0.290 OA 
HETATM   19  C   UNL     1      -7.864  19.710  69.782  1.00  0.00     0.398 C  
HETATM   20  C   UNL     1     -10.016  18.458  70.135  1.00  0.00     1.286 A  
HETATM   21  O   UNL     1      -7.869  20.763  68.933  1.00  0.00     0.663 OA 
HETATM   22  C   UNL     1     -10.048  17.995  71.461  1.00  0.00     4.761 A  
HETATM   23  O   UNL     1      -7.237  19.759  70.838  1.00  0.00     0.495 OA 
HETATM   24  C   UNL     1     -11.245  17.984  72.180  1.00  0.00     2.808 A  
HETATM   25  C   UNL     1     -12.423  18.432  71.587  1.00  0.00    12.627 A  
HETATM   26  C   UNL     1     -12.406  18.896  70.275  1.00  0.00    14.699 A  
HETATM   27  C   UNL     1     -11.212  18.916  69.556  1.00  0.00     2.977 A  
ENDBRANCH  12  14
TORSDOF 1
ENDMDL
MODEL      157
REMARK 921   NORMALIZED FREE ENERGY PREDICTED BY IDOCK:   81.09 KCAL/MOL
REMARK 922        TOTAL FREE ENERGY PREDICTED BY IDOCK:   85.38 KCAL/MOL
REMARK 923 INTER-LIGAND FREE ENERGY PREDICTED BY IDOCK:   85.92 KCAL/MOL
REMARK 924 INTRA-LIGAND FREE ENERGY PREDICTED BY IDOCK:   -0.53 KCAL/MOL
REMARK 927      BINDING AFFINITY PREDICTED BY RF-SCORE:    0.00 PKD
ROOT
HETATM    1  C   UNL     1      -6.052  14.395  66.555  1.00  0.00     3.379 C  
HETATM    2  S   UNL     1      -5.998  13.709  64.846  1.00  0.00    16.864 SA 
HETATM    3  C   UNL     1      -7.577  14.493  64.311  1.00  0.00    16.784 C  
HETATM    4  CA  UNL     1      -7.757  15.705  65.260  1.00  0.00     5.468 C  
HETATM    5  C   UNL     1      -8.696  13.446  64.482  1.00  0.00     4.084 C  
HETATM    6  C   UNL     1      -7.497  14.818  62.816  1.00  0.00    24.543 C  
HETATM    7  N   UNL     1      -7.213  15.311  66.578  1.00  0.00     0.772 N  
HETATM    8  C   UNL     1      -7.039  16.998  64.832  1.00  0.00     4.482 C  
HETATM    9  C   UNL     1      -7.953  14.503  67.402  1.00  0.00    -0.200 C  
HETATM   10  OXT UNL     1      -7.156  17.536  63.742  1.00  0.00     7.152 OA 
HETATM   11  O   UNL     1      -6.302  17.566  65.822  1.00  0.00    -0.166 OA 
HETATM   12  CA  UNL     1      -6.758  13.554  67.655  1.00  0.00    -0.167 C  
HETATM   13  O   UNL     1      -9.140  14.492  67.637  1.00  0.00    -0.185 OA 
ENDROOT
BRANCH  12  14
HETATM   14  N   UNL     1      -6.962  12.106  67.363  1.00  0.00    -0.134 N  
HETATM   15  C   UNL     1      -7.499  11.295  68.337  1.00  0.00    -0.108 C  
HETATM   16  H   UNL     1      -6.706  11.721  66.453  1.00  0.00     0.000 HD 
HETATM   17  C   UNL     1      -7.541   9.807  68.047  1.00  0.00    -0.082 C  
HETATM   18  O   UNL     1      -7.935  11.764  69.392  1.00  0.00     0.226 OA 
HETATM   19  C   UNL     1      -7.263   8.950  69.275  1.00  0.00    -0.066 C  
HETATM   20  C   UNL     1      -8.839   9.396  67.366  1.00  0.00    -0.135 A  
HETATM   21  O   UNL     1      -7.551   9.489  70.480  1.00  0.00    -0.137 OA 
HETATM   22  C   UNL     1      -8.855   8.266  66.531  1.00  0.00    -0.175 A  
HETATM   23  O   UNL     1      -6.823   7.806  69.189  1.00  0.00    -0.047 OA 
HETATM   24  C   UNL     1     -10.040   7.850  65.924  1.00  0.00     0.649 A  
HETATM   25  C   UNL     1     -11.223   8.552  66.139  1.00  0.00     2.926 A  
HETATM   26  C   UNL     1     -11.224   9.671  66.967  1.00  0.00     0.424 A  
HETATM   27  C   UNL     1     -10.044  10.086  67.582  1.00  0.00    -0.232 A  
ENDBRANCH  12  14
TORSDOF 1
ENDMDL
