MODEL        1
REMARK 921   NORMALIZED FREE ENERGY PREDICTED BY IDOCK:   -6.06 KCAL/MOL
REMARK 922        TOTAL FREE ENERGY PREDICTED BY IDOCK:   -8.84 KCAL/MOL
REMARK 923 INTER-LIGAND FREE ENERGY PREDICTED BY IDOCK:   -8.19 KCAL/MOL
REMARK 924 INTRA-LIGAND FREE ENERGY PREDICTED BY IDOCK:   -0.65 KCAL/MOL
REMARK 927      BINDING AFFINITY PREDICTED BY RF-SCORE:    0.00 PKD
ROOT
HETATM    1  C   UNL     1     -10.387  19.332  66.327  1.00  0.00    -0.480 C  
HETATM    2  N   UNL     1      -9.454  18.232  66.067  1.00  0.00    -0.513 NA 
HETATM    3  C   UNL     1      -8.098  18.644  66.446  1.00  0.00    -0.281 C  
ENDROOT
BRANCH   2   4
HETATM    4  C   UNL     1      -9.898  17.019  66.786  1.00  0.00    -0.278 C  
BRANCH   4   5
HETATM    5  C   UNL     1     -10.783  17.313  68.005  1.00  0.00    -0.367 C  
BRANCH   5   6
HETATM    6  O   UNL     1     -10.712  16.240  68.957  1.00  0.00    -0.258 OA 
BRANCH   6   7
HETATM    7  C   UNL     1     -11.997  15.589  69.139  1.00  0.00    -0.309 C  
BRANCH   7   8
HETATM    8  C   UNL     1     -11.920  14.159  68.608  1.00  0.00    -0.373 A  
HETATM    9  C   UNL     1     -11.980  13.931  67.221  1.00  0.00    -0.446 A  
HETATM   10  C   UNL     1     -11.606  13.083  69.457  1.00  0.00    -0.342 A  
HETATM   11 CL   UNL     1     -10.854  10.112  66.896  1.00  0.00    -0.230 Cl 
HETATM   12  C   UNL     1     -11.666  12.677  66.694  1.00  0.00    -0.464 A  
HETATM   13  C   UNL     1     -11.308  11.827  68.930  1.00  0.00    -0.326 A  
HETATM   14  C   UNL     1     -11.318  11.635  67.550  1.00  0.00    -0.298 A  
ENDBRANCH   7   8
BRANCH   7  15
HETATM   15  C   UNL     1     -12.460  15.670  70.595  1.00  0.00    -0.417 A  
HETATM   16  C   UNL     1     -11.982  16.275  72.786  1.00  0.00    -0.537 A  
HETATM   17  C   UNL     1     -14.139  15.409  72.300  1.00  0.00    -0.660 A  
HETATM   18  C   UNL     1     -13.747  15.277  70.970  1.00  0.00    -0.452 A  
HETATM   19  N   UNL     1     -11.572  16.169  71.501  1.00  0.00    -0.461 NA 
HETATM   20  C   UNL     1     -13.244  15.920  73.228  1.00  0.00    -0.698 A  
ENDBRANCH   7  15
ENDBRANCH   6   7
ENDBRANCH   5   6
ENDBRANCH   4   5
ENDBRANCH   2   4
TORSDOF 6
ENDMDL
MODEL        2
REMARK 921   NORMALIZED FREE ENERGY PREDICTED BY IDOCK:   -6.01 KCAL/MOL
REMARK 922        TOTAL FREE ENERGY PREDICTED BY IDOCK:   -8.77 KCAL/MOL
REMARK 923 INTER-LIGAND FREE ENERGY PREDICTED BY IDOCK:   -8.44 KCAL/MOL
REMARK 924 INTRA-LIGAND FREE ENERGY PREDICTED BY IDOCK:   -0.34 KCAL/MOL
REMARK 927      BINDING AFFINITY PREDICTED BY RF-SCORE:    0.00 PKD
ROOT
HETATM    1  C   UNL     1     -12.668  15.938  73.894  1.00  0.00    -0.600 C  
HETATM    2  N   UNL     1     -12.678  15.386  72.536  1.00  0.00    -0.356 NA 
HETATM    3  C   UNL     1     -14.059  15.331  72.044  1.00  0.00    -0.562 C  
ENDROOT
BRANCH   2   4
HETATM    4  C   UNL     1     -11.798  16.191  71.663  1.00  0.00    -0.487 C  
BRANCH   4   5
HETATM    5  C   UNL     1     -11.182  15.395  70.504  1.00  0.00    -0.333 C  
BRANCH   5   6
HETATM    6  O   UNL     1     -11.693  15.853  69.242  1.00  0.00    -0.367 OA 
BRANCH   6   7
HETATM    7  C   UNL     1     -10.640  16.021  68.258  1.00  0.00    -0.283 C  
BRANCH   7   8
HETATM    8  C   UNL     1     -10.892  15.080  67.080  1.00  0.00    -0.314 A  
HETATM    9  C   UNL     1     -12.134  14.429  66.969  1.00  0.00    -0.374 A  
HETATM   10  C   UNL     1      -9.985  14.994  66.010  1.00  0.00    -0.334 A  
HETATM   11 CL   UNL     1     -12.049  12.981  63.246  1.00  0.00    -0.612 Cl 
HETATM   12  C   UNL     1     -12.484  13.767  65.790  1.00  0.00    -0.527 A  
HETATM   13  C   UNL     1     -10.331  14.320  64.839  1.00  0.00    -0.429 A  
HETATM   14  C   UNL     1     -11.587  13.727  64.726  1.00  0.00    -0.362 A  
ENDBRANCH   7   8
BRANCH   7  15
HETATM   15  C   UNL     1     -10.497  17.486  67.841  1.00  0.00    -0.384 A  
HETATM   16  C   UNL     1      -9.957  19.664  68.442  1.00  0.00    -0.439 A  
HETATM   17  C   UNL     1     -10.530  19.227  66.179  1.00  0.00    -0.577 A  
HETATM   18  C   UNL     1     -10.715  17.889  66.522  1.00  0.00    -0.122 A  
HETATM   19  N   UNL     1     -10.119  18.371  68.806  1.00  0.00    -0.385 NA 
HETATM   20  C   UNL     1     -10.142  20.134  67.154  1.00  0.00    -0.590 A  
ENDBRANCH   7  15
ENDBRANCH   6   7
ENDBRANCH   5   6
ENDBRANCH   4   5
ENDBRANCH   2   4
TORSDOF 6
ENDMDL
MODEL        3
REMARK 921   NORMALIZED FREE ENERGY PREDICTED BY IDOCK:   -5.98 KCAL/MOL
REMARK 922        TOTAL FREE ENERGY PREDICTED BY IDOCK:   -8.73 KCAL/MOL
REMARK 923 INTER-LIGAND FREE ENERGY PREDICTED BY IDOCK:   -8.09 KCAL/MOL
REMARK 924 INTRA-LIGAND FREE ENERGY PREDICTED BY IDOCK:   -0.64 KCAL/MOL
REMARK 927      BINDING AFFINITY PREDICTED BY RF-SCORE:    0.00 PKD
ROOT
HETATM    1  C   UNL     1      -8.379  19.968  67.382  1.00  0.00    -0.334 C  
HETATM    2  N   UNL     1      -9.819  19.902  67.644  1.00  0.00    -0.370 NA 
HETATM    3  C   UNL     1     -10.535  19.692  66.381  1.00  0.00    -0.513 C  
ENDROOT
BRANCH   2   4
HETATM    4  C   UNL     1     -10.098  18.841  68.635  1.00  0.00    -0.380 C  
BRANCH   4   5
HETATM    5  C   UNL     1     -10.660  17.553  68.019  1.00  0.00    -0.384 C  
BRANCH   5   6
HETATM    6  O   UNL     1     -10.632  16.478  68.972  1.00  0.00    -0.280 OA 
BRANCH   6   7
HETATM    7  C   UNL     1     -11.911  15.798  69.062  1.00  0.00    -0.355 C  
BRANCH   7   8
HETATM    8  C   UNL     1     -11.803  14.425  68.400  1.00  0.00    -0.354 A  
HETATM    9  C   UNL     1     -12.000  14.309  67.012  1.00  0.00    -0.463 A  
HETATM   10  C   UNL     1     -11.330  13.309  69.111  1.00  0.00    -0.336 A  
HETATM   11 CL   UNL     1     -10.679  10.621  66.229  1.00  0.00    -0.222 Cl 
HETATM   12  C   UNL     1     -11.668  13.128  66.345  1.00  0.00    -0.429 A  
HETATM   13  C   UNL     1     -11.013  12.125  68.445  1.00  0.00    -0.271 A  
HETATM   14  C   UNL     1     -11.163  12.047  67.062  1.00  0.00    -0.320 A  
ENDBRANCH   7   8
BRANCH   7  15
HETATM   15  C   UNL     1     -12.405  15.734  70.509  1.00  0.00    -0.350 A  
HETATM   16  C   UNL     1     -14.136  15.260  71.984  1.00  0.00    -0.562 A  
HETATM   17  C   UNL     1     -12.036  15.914  72.881  1.00  0.00    -0.612 A  
HETATM   18  C   UNL     1     -11.555  16.028  71.578  1.00  0.00    -0.529 A  
HETATM   19  N   UNL     1     -13.697  15.351  70.707  1.00  0.00    -0.393 NA 
HETATM   20  C   UNL     1     -13.349  15.521  73.092  1.00  0.00    -0.632 A  
ENDBRANCH   7  15
ENDBRANCH   6   7
ENDBRANCH   5   6
ENDBRANCH   4   5
ENDBRANCH   2   4
TORSDOF 6
ENDMDL
MODEL        4
REMARK 921   NORMALIZED FREE ENERGY PREDICTED BY IDOCK:   -5.96 KCAL/MOL
REMARK 922        TOTAL FREE ENERGY PREDICTED BY IDOCK:   -8.69 KCAL/MOL
REMARK 923 INTER-LIGAND FREE ENERGY PREDICTED BY IDOCK:   -8.04 KCAL/MOL
REMARK 924 INTRA-LIGAND FREE ENERGY PREDICTED BY IDOCK:   -0.66 KCAL/MOL
REMARK 927      BINDING AFFINITY PREDICTED BY RF-SCORE:    0.00 PKD
ROOT
HETATM    1  C   UNL     1     -12.512  14.025  65.504  1.00  0.00    -0.509 C  
HETATM    2  N   UNL     1     -12.355  12.583  65.713  1.00  0.00    -0.626 NA 
HETATM    3  C   UNL     1     -11.493  12.030  64.662  1.00  0.00    -0.308 C  
ENDROOT
BRANCH   2   4
HETATM    4  C   UNL     1     -11.828  12.329  67.069  1.00  0.00    -0.259 C  
BRANCH   4   5
HETATM    5  C   UNL     1     -11.666  13.598  67.917  1.00  0.00    -0.360 C  
BRANCH   5   6
HETATM    6  O   UNL     1     -11.290  13.267  69.264  1.00  0.00    -0.262 OA 
BRANCH   6   7
HETATM    7  C   UNL     1     -12.441  12.933  70.083  1.00  0.00    -0.074 C  
BRANCH   7   8
HETATM    8  C   UNL     1     -12.241  11.548  70.697  1.00  0.00    -0.473 A  
HETATM    9  C   UNL     1     -13.156  11.078  71.657  1.00  0.00    -0.543 A  
HETATM   10  C   UNL     1     -11.274  10.662  70.193  1.00  0.00    -0.378 A  
HETATM   11 CL   UNL     1     -12.244   7.198  71.931  1.00  0.00    -0.353 Cl 
HETATM   12  C   UNL     1     -13.146   9.738  72.049  1.00  0.00    -0.546 A  
HETATM   13  C   UNL     1     -11.256   9.327  70.598  1.00  0.00    -0.333 A  
HETATM   14  C   UNL     1     -12.205   8.866  71.507  1.00  0.00    -0.327 A  
ENDBRANCH   7   8
BRANCH   7  15
HETATM   15  C   UNL     1     -12.717  14.022  71.122  1.00  0.00    -0.364 A  
HETATM   16  C   UNL     1     -14.278  15.301  72.272  1.00  0.00    -0.547 A  
HETATM   17  C   UNL     1     -11.981  15.572  72.811  1.00  0.00    -0.573 A  
HETATM   18  C   UNL     1     -11.678  14.616  71.843  1.00  0.00    -0.180 A  
HETATM   19  N   UNL     1     -14.019  14.363  71.332  1.00  0.00    -0.358 NA 
HETATM   20  C   UNL     1     -13.304  15.922  73.033  1.00  0.00    -0.663 A  
ENDBRANCH   7  15
ENDBRANCH   6   7
ENDBRANCH   5   6
ENDBRANCH   4   5
ENDBRANCH   2   4
TORSDOF 6
ENDMDL
MODEL        5
REMARK 921   NORMALIZED FREE ENERGY PREDICTED BY IDOCK:   -5.92 KCAL/MOL
REMARK 922        TOTAL FREE ENERGY PREDICTED BY IDOCK:   -8.65 KCAL/MOL
REMARK 923 INTER-LIGAND FREE ENERGY PREDICTED BY IDOCK:   -7.91 KCAL/MOL
REMARK 924 INTRA-LIGAND FREE ENERGY PREDICTED BY IDOCK:   -0.74 KCAL/MOL
REMARK 927      BINDING AFFINITY PREDICTED BY RF-SCORE:    0.00 PKD
ROOT
HETATM    1  C   UNL     1     -13.856  13.349  72.223  1.00  0.00    -0.573 C  
HETATM    2  N   UNL     1     -13.448  14.671  71.737  1.00  0.00    -0.346 NA 
HETATM    3  C   UNL     1     -13.608  15.656  72.812  1.00  0.00    -0.593 C  
ENDROOT
BRANCH   2   4
HETATM    4  C   UNL     1     -12.063  14.610  71.226  1.00  0.00    -0.350 C  
BRANCH   4   5
HETATM    5  C   UNL     1     -11.569  15.931  70.621  1.00  0.00    -0.400 C  
BRANCH   5   6
HETATM    6  O   UNL     1     -11.824  15.970  69.208  1.00  0.00    -0.345 OA 
BRANCH   6   7
HETATM    7  C   UNL     1     -10.602  15.858  68.432  1.00  0.00    -0.266 C  
BRANCH   7   8
HETATM    8  C   UNL     1     -10.854  14.969  67.214  1.00  0.00    -0.310 A  
HETATM    9  C   UNL     1     -12.030  14.200  67.152  1.00  0.00    -0.460 A  
HETATM   10  C   UNL     1     -10.033  15.044  66.076  1.00  0.00    -0.334 A  
HETATM   11 CL   UNL     1     -12.105  12.998  63.342  1.00  0.00    -0.630 Cl 
HETATM   12  C   UNL     1     -12.407  13.578  65.960  1.00  0.00    -0.486 A  
HETATM   13  C   UNL     1     -10.404  14.410  64.891  1.00  0.00    -0.419 A  
HETATM   14  C   UNL     1     -11.600  13.697  64.832  1.00  0.00    -0.344 A  
ENDBRANCH   7   8
BRANCH   7  15
HETATM   15  C   UNL     1     -10.045  17.236  68.070  1.00  0.00    -0.324 A  
HETATM   16  C   UNL     1      -8.208  18.652  67.948  1.00  0.00    -0.265 A  
HETATM   17  C   UNL     1     -10.299  19.447  67.151  1.00  0.00    -0.548 A  
HETATM   18  C   UNL     1     -10.859  18.221  67.505  1.00  0.00    -0.282 A  
HETATM   19  N   UNL     1      -8.718  17.447  68.295  1.00  0.00    -0.253 NA 
HETATM   20  C   UNL     1      -8.948  19.669  67.373  1.00  0.00    -0.383 A  
ENDBRANCH   7  15
ENDBRANCH   6   7
ENDBRANCH   5   6
ENDBRANCH   4   5
ENDBRANCH   2   4
TORSDOF 6
ENDMDL
MODEL        6
REMARK 921   NORMALIZED FREE ENERGY PREDICTED BY IDOCK:   -5.90 KCAL/MOL
REMARK 922        TOTAL FREE ENERGY PREDICTED BY IDOCK:   -8.61 KCAL/MOL
REMARK 923 INTER-LIGAND FREE ENERGY PREDICTED BY IDOCK:   -7.96 KCAL/MOL
REMARK 924 INTRA-LIGAND FREE ENERGY PREDICTED BY IDOCK:   -0.65 KCAL/MOL
REMARK 927      BINDING AFFINITY PREDICTED BY RF-SCORE:    0.00 PKD
ROOT
HETATM    1  C   UNL     1     -11.284  14.685  65.303  1.00  0.00    -0.358 C  
HETATM    2  N   UNL     1     -12.303  13.708  65.698  1.00  0.00    -0.451 NA 
HETATM    3  C   UNL     1     -12.434  12.690  64.650  1.00  0.00    -0.466 C  
ENDROOT
BRANCH   2   4
HETATM    4  C   UNL     1     -11.955  13.126  67.011  1.00  0.00    -0.355 C  
BRANCH   4   5
HETATM    5  C   UNL     1     -11.317  14.129  67.981  1.00  0.00    -0.299 C  
BRANCH   5   6
HETATM    6  O   UNL     1     -11.066  13.516  69.256  1.00  0.00    -0.243 OA 
BRANCH   6   7
HETATM    7  C   UNL     1     -12.297  13.176  69.947  1.00  0.00    -0.135 C  
BRANCH   7   8
HETATM    8  C   UNL     1     -12.217  11.733  70.444  1.00  0.00    -0.416 A  
HETATM    9  C   UNL     1     -11.165  10.908  70.007  1.00  0.00    -0.340 A  
HETATM   10  C   UNL     1     -13.062  11.268  71.467  1.00  0.00    -0.459 A  
HETATM   11 CL   UNL     1     -11.401   7.779  72.480  1.00  0.00    -0.399 Cl 
HETATM   12  C   UNL     1     -10.923   9.680  70.626  1.00  0.00    -0.386 A  
HETATM   13  C   UNL     1     -12.827  10.034  72.074  1.00  0.00    -0.484 A  
HETATM   14  C   UNL     1     -11.747   9.255  71.665  1.00  0.00    -0.392 A  
ENDBRANCH   7   8
BRANCH   7  15
HETATM   15  C   UNL     1     -12.607  14.182  71.058  1.00  0.00    -0.369 A  
HETATM   16  C   UNL     1     -11.807  15.643  72.676  1.00  0.00    -0.485 A  
HETATM   17  C   UNL     1     -14.155  15.497  72.351  1.00  0.00    -0.627 A  
HETATM   18  C   UNL     1     -13.922  14.544  71.361  1.00  0.00    -0.432 A  
HETATM   19  N   UNL     1     -11.545  14.728  71.714  1.00  0.00    -0.273 NA 
HETATM   20  C   UNL     1     -13.080  16.061  73.021  1.00  0.00    -0.593 A  
ENDBRANCH   7  15
ENDBRANCH   6   7
ENDBRANCH   5   6
ENDBRANCH   4   5
ENDBRANCH   2   4
TORSDOF 6
ENDMDL
MODEL        7
REMARK 921   NORMALIZED FREE ENERGY PREDICTED BY IDOCK:   -5.85 KCAL/MOL
REMARK 922        TOTAL FREE ENERGY PREDICTED BY IDOCK:   -8.55 KCAL/MOL
REMARK 923 INTER-LIGAND FREE ENERGY PREDICTED BY IDOCK:   -7.90 KCAL/MOL
REMARK 924 INTRA-LIGAND FREE ENERGY PREDICTED BY IDOCK:   -0.65 KCAL/MOL
REMARK 927      BINDING AFFINITY PREDICTED BY RF-SCORE:    0.00 PKD
ROOT
HETATM    1  C   UNL     1     -12.148  14.599  64.561  1.00  0.00    -0.475 C  
HETATM    2  N   UNL     1     -12.691  13.293  64.946  1.00  0.00    -0.690 NA 
HETATM    3  C   UNL     1     -12.400  12.315  63.893  1.00  0.00    -0.509 C  
ENDROOT
BRANCH   2   4
HETATM    4  C   UNL     1     -12.143  12.891  66.258  1.00  0.00    -0.365 C  
BRANCH   4   5
HETATM    5  C   UNL     1     -11.409  14.021  66.994  1.00  0.00    -0.330 C  
BRANCH   5   6
HETATM    6  O   UNL     1     -12.142  14.430  68.160  1.00  0.00    -0.310 OA 
BRANCH   6   7
HETATM    7  C   UNL     1     -11.261  14.796  69.254  1.00  0.00    -0.283 C  
BRANCH   7   8
HETATM    8  C   UNL     1     -10.334  15.924  68.803  1.00  0.00    -0.228 A  
HETATM    9  C   UNL     1     -10.885  17.163  68.426  1.00  0.00    -0.309 A  
HETATM   10  C   UNL     1      -8.939  15.815  68.933  1.00  0.00    -0.226 A  
HETATM   11 CL   UNL     1      -7.685  19.551  68.285  1.00  0.00    -0.347 Cl 
HETATM   12  C   UNL     1     -10.064  18.279  68.251  1.00  0.00    -0.406 A  
HETATM   13  C   UNL     1      -8.119  16.928  68.742  1.00  0.00    -0.251 A  
HETATM   14  C   UNL     1      -8.687  18.159  68.423  1.00  0.00    -0.291 A  
ENDBRANCH   7   8
BRANCH   7  15
HETATM   15  C   UNL     1     -12.056  15.134  70.518  1.00  0.00    -0.343 A  
HETATM   16  C   UNL     1     -14.108  15.183  71.603  1.00  0.00    -0.549 A  
HETATM   17  C   UNL     1     -12.179  15.867  72.808  1.00  0.00    -0.604 A  
HETATM   18  C   UNL     1     -11.421  15.614  71.666  1.00  0.00    -0.506 A  
HETATM   19  N   UNL     1     -13.400  14.919  70.480  1.00  0.00    -0.203 NA 
HETATM   20  C   UNL     1     -13.548  15.647  72.780  1.00  0.00    -0.678 A  
ENDBRANCH   7  15
ENDBRANCH   6   7
ENDBRANCH   5   6
ENDBRANCH   4   5
ENDBRANCH   2   4
TORSDOF 6
ENDMDL
MODEL        8
REMARK 921   NORMALIZED FREE ENERGY PREDICTED BY IDOCK:   -5.83 KCAL/MOL
REMARK 922        TOTAL FREE ENERGY PREDICTED BY IDOCK:   -8.53 KCAL/MOL
REMARK 923 INTER-LIGAND FREE ENERGY PREDICTED BY IDOCK:   -7.75 KCAL/MOL
REMARK 924 INTRA-LIGAND FREE ENERGY PREDICTED BY IDOCK:   -0.78 KCAL/MOL
REMARK 927      BINDING AFFINITY PREDICTED BY RF-SCORE:    0.00 PKD
ROOT
HETATM    1  C   UNL     1     -12.299  14.243  64.619  1.00  0.00    -0.415 C  
HETATM    2  N   UNL     1     -11.933  13.663  65.915  1.00  0.00    -0.381 NA 
HETATM    3  C   UNL     1     -11.492  12.278  65.721  1.00  0.00    -0.367 C  
ENDROOT
BRANCH   2   4
HETATM    4  C   UNL     1     -10.903  14.500  66.563  1.00  0.00    -0.314 C  
BRANCH   4   5
HETATM    5  C   UNL     1     -11.346  15.095  67.907  1.00  0.00    -0.338 C  
BRANCH   5   6
HETATM    6  O   UNL     1     -11.020  14.208  68.989  1.00  0.00    -0.250 OA 
BRANCH   6   7
HETATM    7  C   UNL     1     -12.208  13.681  69.636  1.00  0.00    -0.270 C  
BRANCH   7   8
HETATM    8  C   UNL     1     -12.007  12.195  69.932  1.00  0.00    -0.380 A  
HETATM    9  C   UNL     1     -11.019  11.478  69.233  1.00  0.00    -0.261 A  
HETATM   10  C   UNL     1     -12.657  11.574  71.012  1.00  0.00    -0.457 A  
HETATM   11 CL   UNL     1     -10.755   8.074  71.308  1.00  0.00    -0.255 Cl 
HETATM   12  C   UNL     1     -10.644  10.199  69.649  1.00  0.00    -0.286 A  
HETATM   13  C   UNL     1     -12.291  10.290  71.417  1.00  0.00    -0.502 A  
HETATM   14  C   UNL     1     -11.272   9.617  70.747  1.00  0.00    -0.336 A  
ENDBRANCH   7   8
BRANCH   7  15
HETATM   15  C   UNL     1     -12.575  14.500  70.876  1.00  0.00    -0.344 A  
HETATM   16  C   UNL     1     -14.238  15.365  72.247  1.00  0.00    -0.545 A  
HETATM   17  C   UNL     1     -11.971  15.725  72.858  1.00  0.00    -0.599 A  
HETATM   18  C   UNL     1     -11.590  15.023  71.717  1.00  0.00    -0.425 A  
HETATM   19  N   UNL     1     -13.901  14.670  71.135  1.00  0.00    -0.341 NA 
HETATM   20  C   UNL     1     -13.319  15.900  73.132  1.00  0.00    -0.681 A  
ENDBRANCH   7  15
ENDBRANCH   6   7
ENDBRANCH   5   6
ENDBRANCH   4   5
ENDBRANCH   2   4
TORSDOF 6
ENDMDL
MODEL        9
REMARK 921   NORMALIZED FREE ENERGY PREDICTED BY IDOCK:   -5.80 KCAL/MOL
REMARK 922        TOTAL FREE ENERGY PREDICTED BY IDOCK:   -8.48 KCAL/MOL
REMARK 923 INTER-LIGAND FREE ENERGY PREDICTED BY IDOCK:   -7.79 KCAL/MOL
REMARK 924 INTRA-LIGAND FREE ENERGY PREDICTED BY IDOCK:   -0.70 KCAL/MOL
REMARK 927      BINDING AFFINITY PREDICTED BY RF-SCORE:    0.00 PKD
ROOT
HETATM    1  C   UNL     1     -10.080  19.628  68.355  1.00  0.00    -0.449 C  
HETATM    2  N   UNL     1     -10.696  18.897  67.244  1.00  0.00    -0.461 NA 
HETATM    3  C   UNL     1     -10.309  19.522  65.975  1.00  0.00    -0.511 C  
ENDROOT
BRANCH   2   4
HETATM    4  C   UNL     1     -10.314  17.471  67.313  1.00  0.00    -0.337 C  
BRANCH   4   5
HETATM    5  C   UNL     1     -10.766  16.771  68.602  1.00  0.00    -0.352 C  
BRANCH   5   6
HETATM    6  O   UNL     1     -11.673  15.696  68.307  1.00  0.00    -0.349 OA 
BRANCH   6   7
HETATM    7  C   UNL     1     -10.973  14.452  68.042  1.00  0.00    -0.258 C  
BRANCH   7   8
HETATM    8  C   UNL     1     -11.332  13.430  69.119  1.00  0.00    -0.333 A  
HETATM    9  C   UNL     1     -12.113  13.828  70.219  1.00  0.00    -0.425 A  
HETATM   10  C   UNL     1     -11.058  12.062  68.943  1.00  0.00    -0.298 A  
HETATM   11 CL   UNL     1     -13.153  10.347  71.880  1.00  0.00    -0.571 Cl 
HETATM   12  C   UNL     1     -12.662  12.876  71.081  1.00  0.00    -0.366 A  
HETATM   13  C   UNL     1     -11.595  11.114  69.814  1.00  0.00    -0.409 A  
HETATM   14  C   UNL     1     -12.412  11.523  70.866  1.00  0.00    -0.366 A  
ENDBRANCH   7   8
BRANCH   7  15
HETATM   15  C   UNL     1     -11.244  13.955  66.620  1.00  0.00    -0.320 A  
HETATM   16  C   UNL     1     -10.387  13.254  64.579  1.00  0.00    -0.374 A  
HETATM   17  C   UNL     1     -12.743  13.225  64.883  1.00  0.00    -0.391 A  
HETATM   18  C   UNL     1     -12.546  13.720  66.171  1.00  0.00    -0.423 A  
HETATM   19  N   UNL     1     -10.161  13.725  65.827  1.00  0.00    -0.308 NA 
HETATM   20  C   UNL     1     -11.645  12.984  64.070  1.00  0.00    -0.487 A  
ENDBRANCH   7  15
ENDBRANCH   6   7
ENDBRANCH   5   6
ENDBRANCH   4   5
ENDBRANCH   2   4
TORSDOF 6
ENDMDL
MODEL       10
REMARK 921   NORMALIZED FREE ENERGY PREDICTED BY IDOCK:   -5.80 KCAL/MOL
REMARK 922        TOTAL FREE ENERGY PREDICTED BY IDOCK:   -8.48 KCAL/MOL
REMARK 923 INTER-LIGAND FREE ENERGY PREDICTED BY IDOCK:   -7.75 KCAL/MOL
REMARK 924 INTRA-LIGAND FREE ENERGY PREDICTED BY IDOCK:   -0.72 KCAL/MOL
REMARK 927      BINDING AFFINITY PREDICTED BY RF-SCORE:    0.00 PKD
ROOT
HETATM    1  C   UNL     1     -11.812  12.816  63.679  1.00  0.00    -0.532 C  
HETATM    2  N   UNL     1     -12.315  12.707  65.052  1.00  0.00    -0.491 NA 
HETATM    3  C   UNL     1     -11.402  11.872  65.840  1.00  0.00    -0.308 C  
ENDROOT
BRANCH   2   4
HETATM    4  C   UNL     1     -12.487  14.057  65.628  1.00  0.00    -0.504 C  
BRANCH   4   5
HETATM    5  C   UNL     1     -11.219  14.920  65.572  1.00  0.00    -0.348 C  
BRANCH   5   6
HETATM    6  O   UNL     1     -10.544  14.917  66.841  1.00  0.00    -0.289 OA 
BRANCH   6   7
HETATM    7  C   UNL     1     -11.146  15.848  67.778  1.00  0.00    -0.288 C  
BRANCH   7   8
HETATM    8  C   UNL     1     -11.552  15.099  69.047  1.00  0.00    -0.350 A  
HETATM    9  C   UNL     1     -12.145  15.806  70.108  1.00  0.00    -0.355 A  
HETATM   10  C   UNL     1     -11.517  13.695  69.105  1.00  0.00    -0.346 A  
HETATM   11 CL   UNL     1     -13.550  12.888  72.447  1.00  0.00    -0.659 Cl 
HETATM   12  C   UNL     1     -12.748  15.122  71.166  1.00  0.00    -0.452 A  
HETATM   13  C   UNL     1     -12.107  13.014  70.170  1.00  0.00    -0.377 A  
HETATM   14  C   UNL     1     -12.738  13.730  71.185  1.00  0.00    -0.362 A  
ENDBRANCH   7   8
BRANCH   7  15
HETATM   15  C   UNL     1     -10.223  17.039  68.048  1.00  0.00    -0.319 A  
HETATM   16  C   UNL     1      -8.130  17.804  68.701  1.00  0.00    -0.276 A  
HETATM   17  C   UNL     1      -9.758  19.401  68.037  1.00  0.00    -0.447 A  
HETATM   18  C   UNL     1     -10.647  18.350  67.819  1.00  0.00    -0.419 A  
HETATM   19  N   UNL     1      -8.965  16.760  68.490  1.00  0.00    -0.236 NA 
HETATM   20  C   UNL     1      -8.474  19.126  68.484  1.00  0.00    -0.399 A  
ENDBRANCH   7  15
ENDBRANCH   6   7
ENDBRANCH   5   6
ENDBRANCH   4   5
ENDBRANCH   2   4
TORSDOF 6
ENDMDL
MODEL       11
REMARK 921   NORMALIZED FREE ENERGY PREDICTED BY IDOCK:   -5.66 KCAL/MOL
REMARK 922        TOTAL FREE ENERGY PREDICTED BY IDOCK:   -8.29 KCAL/MOL
REMARK 923 INTER-LIGAND FREE ENERGY PREDICTED BY IDOCK:   -7.53 KCAL/MOL
REMARK 924 INTRA-LIGAND FREE ENERGY PREDICTED BY IDOCK:   -0.77 KCAL/MOL
REMARK 927      BINDING AFFINITY PREDICTED BY RF-SCORE:    0.00 PKD
ROOT
HETATM    1  C   UNL     1     -12.671  15.521  73.322  1.00  0.00    -0.509 C  
HETATM    2  N   UNL     1     -12.815  14.652  72.150  1.00  0.00    -0.319 NA 
HETATM    3  C   UNL     1     -13.907  13.701  72.381  1.00  0.00    -0.589 C  
ENDROOT
BRANCH   2   4
HETATM    4  C   UNL     1     -13.027  15.474  70.941  1.00  0.00    -0.467 C  
BRANCH   4   5
HETATM    5  C   UNL     1     -12.018  15.196  69.819  1.00  0.00    -0.334 C  
BRANCH   5   6
HETATM    6  O   UNL     1     -12.382  14.016  69.086  1.00  0.00    -0.313 OA 
BRANCH   6   7
HETATM    7  C   UNL     1     -11.223  13.343  68.528  1.00  0.00    -0.283 C  
BRANCH   7   8
HETATM    8  C   UNL     1     -11.117  11.939  69.121  1.00  0.00    -0.285 A  
HETATM    9  C   UNL     1     -10.021  11.126  68.782  1.00  0.00    -0.207 A  
HETATM   10  C   UNL     1     -11.988  11.512  70.138  1.00  0.00    -0.452 A  
HETATM   11 CL   UNL     1     -10.257   8.157  71.445  1.00  0.00    -0.235 Cl 
HETATM   12  C   UNL     1      -9.765   9.949  69.489  1.00  0.00    -0.238 A  
HETATM   13  C   UNL     1     -11.739  10.328  70.834  1.00  0.00    -0.472 A  
HETATM   14  C   UNL     1     -10.617   9.564  70.521  1.00  0.00    -0.297 A  
ENDBRANCH   7   8
BRANCH   7  15
HETATM   15  C   UNL     1     -11.260  13.352  66.998  1.00  0.00    -0.305 A  
HETATM   16  C   UNL     1     -12.286  12.628  65.044  1.00  0.00    -0.497 A  
HETATM   17  C   UNL     1     -10.459  14.135  64.866  1.00  0.00    -0.461 A  
HETATM   18  C   UNL     1     -10.361  14.123  66.257  1.00  0.00    -0.294 A  
HETATM   19  N   UNL     1     -12.224  12.602  66.396  1.00  0.00    -0.543 NA 
HETATM   20  C   UNL     1     -11.440  13.377  64.246  1.00  0.00    -0.429 A  
ENDBRANCH   7  15
ENDBRANCH   6   7
ENDBRANCH   5   6
ENDBRANCH   4   5
ENDBRANCH   2   4
TORSDOF 6
ENDMDL
MODEL       12
REMARK 921   NORMALIZED FREE ENERGY PREDICTED BY IDOCK:   -5.65 KCAL/MOL
REMARK 922        TOTAL FREE ENERGY PREDICTED BY IDOCK:   -8.29 KCAL/MOL
REMARK 923 INTER-LIGAND FREE ENERGY PREDICTED BY IDOCK:   -7.33 KCAL/MOL
REMARK 924 INTRA-LIGAND FREE ENERGY PREDICTED BY IDOCK:   -0.95 KCAL/MOL
REMARK 927      BINDING AFFINITY PREDICTED BY RF-SCORE:    0.00 PKD
ROOT
HETATM    1  C   UNL     1     -10.476  14.305  65.397  1.00  0.00    -0.365 C  
HETATM    2  N   UNL     1     -11.585  13.772  66.194  1.00  0.00    -0.339 NA 
HETATM    3  C   UNL     1     -12.682  13.382  65.303  1.00  0.00    -0.422 C  
ENDROOT
BRANCH   2   4
HETATM    4  C   UNL     1     -11.105  12.649  67.027  1.00  0.00    -0.281 C  
BRANCH   4   5
HETATM    5  C   UNL     1     -11.776  12.572  68.405  1.00  0.00    -0.328 C  
BRANCH   5   6
HETATM    6  O   UNL     1     -12.208  13.873  68.836  1.00  0.00    -0.354 OA 
BRANCH   6   7
HETATM    7  C   UNL     1     -11.309  14.444  69.823  1.00  0.00    -0.237 C  
BRANCH   7   8
HETATM    8  C   UNL     1     -10.472  15.543  69.171  1.00  0.00    -0.232 A  
HETATM    9  C   UNL     1     -11.110  16.686  68.657  1.00  0.00    -0.294 A  
HETATM   10  C   UNL     1      -9.068  15.524  69.238  1.00  0.00    -0.266 A  
HETATM   11 CL   UNL     1      -8.065  19.191  68.012  1.00  0.00    -0.322 Cl 
HETATM   12  C   UNL     1     -10.364  17.806  68.284  1.00  0.00    -0.387 A  
HETATM   13  C   UNL     1      -8.324  16.639  68.851  1.00  0.00    -0.230 A  
HETATM   14  C   UNL     1      -8.977  17.782  68.396  1.00  0.00    -0.281 A  
ENDBRANCH   7   8
BRANCH   7  15
HETATM   15  C   UNL     1     -12.074  14.920  71.060  1.00  0.00    -0.321 A  
HETATM   16  C   UNL     1     -12.000  15.814  73.202  1.00  0.00    -0.465 A  
HETATM   17  C   UNL     1     -14.125  15.412  72.221  1.00  0.00    -0.660 A  
HETATM   18  C   UNL     1     -13.471  14.928  71.089  1.00  0.00    -0.474 A  
HETATM   19  N   UNL     1     -11.334  15.360  72.115  1.00  0.00    -0.417 NA 
HETATM   20  C   UNL     1     -13.379  15.866  73.298  1.00  0.00    -0.660 A  
ENDBRANCH   7  15
ENDBRANCH   6   7
ENDBRANCH   5   6
ENDBRANCH   4   5
ENDBRANCH   2   4
TORSDOF 6
ENDMDL
MODEL       13
REMARK 921   NORMALIZED FREE ENERGY PREDICTED BY IDOCK:   -5.62 KCAL/MOL
REMARK 922        TOTAL FREE ENERGY PREDICTED BY IDOCK:   -8.25 KCAL/MOL
REMARK 923 INTER-LIGAND FREE ENERGY PREDICTED BY IDOCK:   -7.59 KCAL/MOL
REMARK 924 INTRA-LIGAND FREE ENERGY PREDICTED BY IDOCK:   -0.65 KCAL/MOL
REMARK 927      BINDING AFFINITY PREDICTED BY RF-SCORE:    0.00 PKD
ROOT
HETATM    1  C   UNL     1     -12.379  15.708  74.069  1.00  0.00    -0.641 C  
HETATM    2  N   UNL     1     -12.891  15.934  72.714  1.00  0.00    -0.457 NA 
HETATM    3  C   UNL     1     -11.764  16.073  71.786  1.00  0.00    -0.509 C  
ENDROOT
BRANCH   2   4
HETATM    4  C   UNL     1     -13.804  14.835  72.335  1.00  0.00    -0.474 C  
BRANCH   4   5
HETATM    5  C   UNL     1     -13.194  13.438  72.509  1.00  0.00    -0.413 C  
BRANCH   5   6
HETATM    6  O   UNL     1     -13.449  12.623  71.353  1.00  0.00    -0.127 OA 
BRANCH   6   7
HETATM    7  C   UNL     1     -12.225  12.088  70.785  1.00  0.00    -0.286 C  
BRANCH   7   8
HETATM    8  C   UNL     1     -12.205  10.571  70.961  1.00  0.00    -0.505 A  
HETATM    9  C   UNL     1     -10.972   9.903  71.067  1.00  0.00    -0.360 A  
HETATM   10  C   UNL     1     -13.388   9.852  71.206  1.00  0.00    -0.419 A  
HETATM   11 CL   UNL     1     -12.036   6.264  72.327  1.00  0.00    -0.338 Cl 
HETATM   12  C   UNL     1     -10.921   8.568  71.473  1.00  0.00    -0.337 A  
HETATM   13  C   UNL     1     -13.336   8.514  71.598  1.00  0.00    -0.372 A  
HETATM   14  C   UNL     1     -12.102   7.884  71.750  1.00  0.00    -0.303 A  
ENDBRANCH   7   8
BRANCH   7  15
HETATM   15  C   UNL     1     -12.047  12.531  69.331  1.00  0.00    -0.180 A  
HETATM   16  C   UNL     1     -12.012  14.266  67.787  1.00  0.00    -0.349 A  
HETATM   17  C   UNL     1     -11.521  12.070  67.027  1.00  0.00    -0.402 A  
HETATM   18  C   UNL     1     -11.716  11.614  68.330  1.00  0.00    -0.374 A  
HETATM   19  N   UNL     1     -12.198  13.858  69.064  1.00  0.00    -0.318 NA 
HETATM   20  C   UNL     1     -11.669  13.420  66.747  1.00  0.00    -0.429 A  
ENDBRANCH   7  15
ENDBRANCH   6   7
ENDBRANCH   5   6
ENDBRANCH   4   5
ENDBRANCH   2   4
TORSDOF 6
ENDMDL
MODEL       14
REMARK 921   NORMALIZED FREE ENERGY PREDICTED BY IDOCK:   -5.61 KCAL/MOL
REMARK 922        TOTAL FREE ENERGY PREDICTED BY IDOCK:   -8.22 KCAL/MOL
REMARK 923 INTER-LIGAND FREE ENERGY PREDICTED BY IDOCK:   -7.49 KCAL/MOL
REMARK 924 INTRA-LIGAND FREE ENERGY PREDICTED BY IDOCK:   -0.73 KCAL/MOL
REMARK 927      BINDING AFFINITY PREDICTED BY RF-SCORE:    0.00 PKD
ROOT
HETATM    1  C   UNL     1      -8.544  20.316  67.124  1.00  0.00    -0.338 C  
HETATM    2  N   UNL     1      -9.904  19.780  67.233  1.00  0.00    -0.358 NA 
HETATM    3  C   UNL     1     -10.513  19.724  65.900  1.00  0.00    -0.486 C  
ENDROOT
BRANCH   2   4
HETATM    4  C   UNL     1      -9.869  18.460  67.895  1.00  0.00    -0.329 C  
BRANCH   4   5
HETATM    5  C   UNL     1      -9.932  17.277  66.919  1.00  0.00    -0.294 C  
BRANCH   5   6
HETATM    6  O   UNL     1     -11.083  16.459  67.182  1.00  0.00    -0.149 OA 
BRANCH   6   7
HETATM    7  C   UNL     1     -10.717  15.085  67.477  1.00  0.00    -0.284 C  
BRANCH   7   8
HETATM    8  C   UNL     1     -11.308  14.681  68.826  1.00  0.00    -0.302 A  
HETATM    9  C   UNL     1     -11.982  15.642  69.602  1.00  0.00    -0.367 A  
HETATM   10  C   UNL     1     -11.356  13.335  69.226  1.00  0.00    -0.311 A  
HETATM   11 CL   UNL     1     -13.806  13.424  72.380  1.00  0.00    -0.693 Cl 
HETATM   12  C   UNL     1     -12.740  15.255  70.709  1.00  0.00    -0.491 A  
HETATM   13  C   UNL     1     -12.102  12.952  70.341  1.00  0.00    -0.385 A  
HETATM   14  C   UNL     1     -12.808  13.910  71.064  1.00  0.00    -0.324 A  
ENDBRANCH   7   8
BRANCH   7  15
HETATM   15  C   UNL     1     -11.117  14.147  66.336  1.00  0.00    -0.320 A  
HETATM   16  C   UNL     1     -10.453  12.661  64.679  1.00  0.00    -0.337 A  
HETATM   17  C   UNL     1     -12.778  13.030  64.998  1.00  0.00    -0.475 A  
HETATM   18  C   UNL     1     -12.459  13.927  66.016  1.00  0.00    -0.501 A  
HETATM   19  N   UNL     1     -10.110  13.517  65.669  1.00  0.00    -0.293 NA 
HETATM   20  C   UNL     1     -11.759  12.382  64.316  1.00  0.00    -0.452 A  
ENDBRANCH   7  15
ENDBRANCH   6   7
ENDBRANCH   5   6
ENDBRANCH   4   5
ENDBRANCH   2   4
TORSDOF 6
ENDMDL
MODEL       15
REMARK 921   NORMALIZED FREE ENERGY PREDICTED BY IDOCK:   -5.59 KCAL/MOL
REMARK 922        TOTAL FREE ENERGY PREDICTED BY IDOCK:   -8.20 KCAL/MOL
REMARK 923 INTER-LIGAND FREE ENERGY PREDICTED BY IDOCK:   -8.00 KCAL/MOL
REMARK 924 INTRA-LIGAND FREE ENERGY PREDICTED BY IDOCK:   -0.20 KCAL/MOL
REMARK 927      BINDING AFFINITY PREDICTED BY RF-SCORE:    0.00 PKD
ROOT
HETATM    1  C   UNL     1     -10.172  11.473  65.180  1.00  0.00    -0.274 C  
HETATM    2  N   UNL     1     -11.156  12.551  65.313  1.00  0.00    -0.289 NA 
HETATM    3  C   UNL     1     -12.203  12.384  64.299  1.00  0.00    -0.452 C  
ENDROOT
BRANCH   2   4
HETATM    4  C   UNL     1     -11.697  12.566  66.688  1.00  0.00    -0.387 C  
BRANCH   4   5
HETATM    5  C   UNL     1     -11.378  11.297  67.491  1.00  0.00    -0.288 C  
BRANCH   5   6
HETATM    6  O   UNL     1     -12.310  11.130  68.572  1.00  0.00    -0.561 OA 
BRANCH   6   7
HETATM    7  C   UNL     1     -11.698  11.388  69.862  1.00  0.00    -0.346 C  
BRANCH   7   8
HETATM    8  C   UNL     1     -12.399  12.572  70.528  1.00  0.00    -0.345 A  
HETATM    9  C   UNL     1     -13.144  12.364  71.702  1.00  0.00    -0.408 A  
HETATM   10  C   UNL     1     -12.164  13.890  70.099  1.00  0.00    -0.425 A  
HETATM   11 CL   UNL     1     -13.779  16.081  73.023  1.00  0.00    -0.610 Cl 
HETATM   12  C   UNL     1     -13.584  13.449  72.464  1.00  0.00    -0.659 A  
HETATM   13  C   UNL     1     -12.617  14.973  70.854  1.00  0.00    -0.419 A  
HETATM   14  C   UNL     1     -13.306  14.747  72.044  1.00  0.00    -0.363 A  
ENDBRANCH   7   8
BRANCH   7  15
HETATM   15  C   UNL     1     -11.682  10.129  70.731  1.00  0.00    -0.357 A  
HETATM   16  C   UNL     1     -10.443   8.594  71.957  1.00  0.00    -0.352 A  
HETATM   17  C   UNL     1     -12.806   8.362  71.919  1.00  0.00    -0.384 A  
HETATM   18  C   UNL     1     -12.866   9.481  71.090  1.00  0.00    -0.361 A  
HETATM   19  N   UNL     1     -10.467   9.688  71.161  1.00  0.00    -0.282 NA 
HETATM   20  C   UNL     1     -11.574   7.909  72.365  1.00  0.00    -0.436 A  
ENDBRANCH   7  15
ENDBRANCH   6   7
ENDBRANCH   5   6
ENDBRANCH   4   5
ENDBRANCH   2   4
TORSDOF 6
ENDMDL
MODEL       16
REMARK 921   NORMALIZED FREE ENERGY PREDICTED BY IDOCK:   -5.58 KCAL/MOL
REMARK 922        TOTAL FREE ENERGY PREDICTED BY IDOCK:   -8.18 KCAL/MOL
REMARK 923 INTER-LIGAND FREE ENERGY PREDICTED BY IDOCK:   -7.56 KCAL/MOL
REMARK 924 INTRA-LIGAND FREE ENERGY PREDICTED BY IDOCK:   -0.62 KCAL/MOL
REMARK 927      BINDING AFFINITY PREDICTED BY RF-SCORE:    0.00 PKD
ROOT
HETATM    1  C   UNL     1     -13.299   9.579  71.345  1.00  0.00    -0.361 C  
HETATM    2  N   UNL     1     -12.044  10.329  71.443  1.00  0.00    -0.377 NA 
HETATM    3  C   UNL     1     -10.915   9.422  71.213  1.00  0.00    -0.370 C  
ENDROOT
BRANCH   2   4
HETATM    4  C   UNL     1     -12.064  11.461  70.493  1.00  0.00    -0.394 C  
BRANCH   4   5
HETATM    5  C   UNL     1     -11.706  11.066  69.054  1.00  0.00    -0.333 C  
BRANCH   5   6
HETATM    6  O   UNL     1     -10.985  12.121  68.399  1.00  0.00    -0.209 OA 
BRANCH   6   7
HETATM    7  C   UNL     1     -11.839  12.900  67.520  1.00  0.00    -0.351 C  
BRANCH   7   8
HETATM    8  C   UNL     1     -11.597  14.388  67.766  1.00  0.00    -0.384 A  
HETATM    9  C   UNL     1     -11.835  14.926  69.044  1.00  0.00    -0.333 A  
HETATM   10  C   UNL     1     -10.968  15.192  66.800  1.00  0.00    -0.321 A  
HETATM   11 CL   UNL     1     -10.122  18.528  68.828  1.00  0.00    -0.415 Cl 
HETATM   12  C   UNL     1     -11.393  16.211  69.366  1.00  0.00    -0.323 A  
HETATM   13  C   UNL     1     -10.540  16.481  67.120  1.00  0.00    -0.270 A  
HETATM   14  C   UNL     1     -10.736  16.977  68.407  1.00  0.00    -0.361 A  
ENDBRANCH   7   8
BRANCH   7  15
HETATM   15  C   UNL     1     -11.652  12.490  66.058  1.00  0.00    -0.406 A  
HETATM   16  C   UNL     1     -12.507  12.436  63.899  1.00  0.00    -0.476 A  
HETATM   17  C   UNL     1     -10.326  11.571  64.270  1.00  0.00    -0.376 A  
HETATM   18  C   UNL     1     -10.470  11.888  65.620  1.00  0.00    -0.302 A  
HETATM   19  N   UNL     1     -12.675  12.765  65.201  1.00  0.00    -0.740 NA 
HETATM   20  C   UNL     1     -11.361  11.852  63.390  1.00  0.00    -0.465 A  
ENDBRANCH   7  15
ENDBRANCH   6   7
ENDBRANCH   5   6
ENDBRANCH   4   5
ENDBRANCH   2   4
TORSDOF 6
ENDMDL
MODEL       17
REMARK 921   NORMALIZED FREE ENERGY PREDICTED BY IDOCK:   -5.57 KCAL/MOL
REMARK 922        TOTAL FREE ENERGY PREDICTED BY IDOCK:   -8.18 KCAL/MOL
REMARK 923 INTER-LIGAND FREE ENERGY PREDICTED BY IDOCK:   -7.55 KCAL/MOL
REMARK 924 INTRA-LIGAND FREE ENERGY PREDICTED BY IDOCK:   -0.62 KCAL/MOL
REMARK 927      BINDING AFFINITY PREDICTED BY RF-SCORE:    0.00 PKD
ROOT
HETATM    1  C   UNL     1     -12.597  15.779  74.006  1.00  0.00    -0.623 C  
HETATM    2  N   UNL     1     -12.843  15.028  72.771  1.00  0.00    -0.376 NA 
HETATM    3  C   UNL     1     -14.138  15.427  72.209  1.00  0.00    -0.564 C  
ENDROOT
BRANCH   2   4
HETATM    4  C   UNL     1     -11.727  15.239  71.827  1.00  0.00    -0.418 C  
BRANCH   4   5
HETATM    5  C   UNL     1     -12.179  15.624  70.412  1.00  0.00    -0.395 C  
BRANCH   5   6
HETATM    6  O   UNL     1     -11.220  15.191  69.434  1.00  0.00    -0.251 OA 
BRANCH   6   7
HETATM    7  C   UNL     1     -11.307  15.964  68.208  1.00  0.00    -0.342 C  
BRANCH   7   8
HETATM    8  C   UNL     1     -10.143  16.951  68.147  1.00  0.00    -0.299 A  
HETATM    9  C   UNL     1     -10.408  18.329  68.040  1.00  0.00    -0.410 A  
HETATM   10  C   UNL     1      -8.821  16.533  68.380  1.00  0.00    -0.218 A  
HETATM   11 CL   UNL     1      -6.855  19.983  68.815  1.00  0.00    -0.346 Cl 
HETATM   12  C   UNL     1      -9.389  19.264  68.231  1.00  0.00    -0.407 A  
HETATM   13  C   UNL     1      -7.801  17.469  68.556  1.00  0.00    -0.274 A  
HETATM   14  C   UNL     1      -8.094  18.830  68.502  1.00  0.00    -0.346 A  
ENDBRANCH   7   8
BRANCH   7  15
HETATM   15  C   UNL     1     -11.392  15.052  66.982  1.00  0.00    -0.318 A  
HETATM   16  C   UNL     1     -11.015  14.762  64.709  1.00  0.00    -0.379 A  
HETATM   17  C   UNL     1     -11.869  12.928  65.953  1.00  0.00    -0.476 A  
HETATM   18  C   UNL     1     -11.850  13.736  67.088  1.00  0.00    -0.441 A  
HETATM   19  N   UNL     1     -10.975  15.570  65.793  1.00  0.00    -0.313 NA 
HETATM   20  C   UNL     1     -11.442  13.447  64.740  1.00  0.00    -0.359 A  
ENDBRANCH   7  15
ENDBRANCH   6   7
ENDBRANCH   5   6
ENDBRANCH   4   5
ENDBRANCH   2   4
TORSDOF 6
ENDMDL
MODEL       18
REMARK 921   NORMALIZED FREE ENERGY PREDICTED BY IDOCK:   -5.57 KCAL/MOL
REMARK 922        TOTAL FREE ENERGY PREDICTED BY IDOCK:   -8.17 KCAL/MOL
REMARK 923 INTER-LIGAND FREE ENERGY PREDICTED BY IDOCK:   -7.44 KCAL/MOL
REMARK 924 INTRA-LIGAND FREE ENERGY PREDICTED BY IDOCK:   -0.73 KCAL/MOL
REMARK 927      BINDING AFFINITY PREDICTED BY RF-SCORE:    0.00 PKD
ROOT
HETATM    1  C   UNL     1     -13.716  13.422  72.278  1.00  0.00    -0.607 C  
HETATM    2  N   UNL     1     -12.500  13.771  71.538  1.00  0.00    -0.315 NA 
HETATM    3  C   UNL     1     -12.339  12.853  70.405  1.00  0.00    -0.258 C  
ENDROOT
BRANCH   2   4
HETATM    4  C   UNL     1     -12.561  15.186  71.116  1.00  0.00    -0.367 C  
BRANCH   4   5
HETATM    5  C   UNL     1     -11.319  15.655  70.346  1.00  0.00    -0.358 C  
BRANCH   5   6
HETATM    6  O   UNL     1     -11.675  16.112  69.032  1.00  0.00    -0.345 OA 
BRANCH   6   7
HETATM    7  C   UNL     1     -10.547  16.075  68.119  1.00  0.00    -0.286 C  
BRANCH   7   8
HETATM    8  C   UNL     1     -10.945  15.321  66.851  1.00  0.00    -0.315 A  
HETATM    9  C   UNL     1     -10.046  15.260  65.771  1.00  0.00    -0.384 A  
HETATM   10  C   UNL     1     -12.109  14.534  66.808  1.00  0.00    -0.313 A  
HETATM   11 CL   UNL     1     -11.649  12.443  63.436  1.00  0.00    -0.548 Cl 
HETATM   12  C   UNL     1     -10.272  14.382  64.709  1.00  0.00    -0.259 A  
HETATM   13  C   UNL     1     -12.340  13.668  65.739  1.00  0.00    -0.524 A  
HETATM   14  C   UNL     1     -11.411  13.581  64.705  1.00  0.00    -0.356 A  
ENDBRANCH   7   8
BRANCH   7  15
HETATM   15  C   UNL     1     -10.010  17.481  67.844  1.00  0.00    -0.312 A  
HETATM   16  C   UNL     1     -10.412  19.627  67.051  1.00  0.00    -0.479 A  
HETATM   17  C   UNL     1      -8.274  19.145  67.966  1.00  0.00    -0.339 A  
HETATM   18  C   UNL     1      -8.706  17.840  68.195  1.00  0.00    -0.266 A  
HETATM   19  N   UNL     1     -10.866  18.371  67.269  1.00  0.00    -0.346 NA 
HETATM   20  C   UNL     1      -9.141  20.058  67.385  1.00  0.00    -0.460 A  
ENDBRANCH   7  15
ENDBRANCH   6   7
ENDBRANCH   5   6
ENDBRANCH   4   5
ENDBRANCH   2   4
TORSDOF 6
ENDMDL
MODEL       19
REMARK 921   NORMALIZED FREE ENERGY PREDICTED BY IDOCK:   -5.52 KCAL/MOL
REMARK 922        TOTAL FREE ENERGY PREDICTED BY IDOCK:   -8.11 KCAL/MOL
REMARK 923 INTER-LIGAND FREE ENERGY PREDICTED BY IDOCK:   -7.48 KCAL/MOL
REMARK 924 INTRA-LIGAND FREE ENERGY PREDICTED BY IDOCK:   -0.63 KCAL/MOL
REMARK 927      BINDING AFFINITY PREDICTED BY RF-SCORE:    0.00 PKD
ROOT
HETATM    1  C   UNL     1     -12.364   7.338  71.461  1.00  0.00    -0.362 C  
HETATM    2  N   UNL     1     -12.665   8.762  71.285  1.00  0.00    -0.275 NA 
HETATM    3  C   UNL     1     -13.663   9.175  72.277  1.00  0.00    -0.487 C  
ENDROOT
BRANCH   2   4
HETATM    4  C   UNL     1     -11.419   9.551  71.374  1.00  0.00    -0.392 C  
BRANCH   4   5
HETATM    5  C   UNL     1     -10.993  10.186  70.043  1.00  0.00    -0.307 C  
BRANCH   5   6
HETATM    6  O   UNL     1     -11.943  11.179  69.625  1.00  0.00    -0.308 OA 
BRANCH   6   7
HETATM    7  C   UNL     1     -11.432  12.527  69.797  1.00  0.00    -0.141 C  
BRANCH   7   8
HETATM    8  C   UNL     1     -11.152  13.142  68.427  1.00  0.00    -0.298 A  
HETATM    9  C   UNL     1     -11.992  12.829  67.343  1.00  0.00    -0.335 A  
HETATM   10  C   UNL     1     -10.189  14.154  68.267  1.00  0.00    -0.243 A  
HETATM   11 CL   UNL     1     -10.944  15.531  64.594  1.00  0.00    -0.400 Cl 
HETATM   12  C   UNL     1     -11.916  13.557  66.154  1.00  0.00    -0.454 A  
HETATM   13  C   UNL     1     -10.105  14.870  67.073  1.00  0.00    -0.244 A  
HETATM   14  C   UNL     1     -10.983  14.582  66.029  1.00  0.00    -0.324 A  
ENDBRANCH   7   8
BRANCH   7  15
HETATM   15  C   UNL     1     -12.372  13.372  70.659  1.00  0.00    -0.348 A  
HETATM   16  C   UNL     1     -13.862  13.472  72.439  1.00  0.00    -0.586 A  
HETATM   17  C   UNL     1     -13.337  15.485  71.293  1.00  0.00    -0.588 A  
HETATM   18  C   UNL     1     -12.502  14.748  70.455  1.00  0.00    -0.411 A  
HETATM   19  N   UNL     1     -13.052  12.729  71.649  1.00  0.00    -0.381 NA 
HETATM   20  C   UNL     1     -14.029  14.839  72.306  1.00  0.00    -0.598 A  
ENDBRANCH   7  15
ENDBRANCH   6   7
ENDBRANCH   5   6
ENDBRANCH   4   5
ENDBRANCH   2   4
TORSDOF 6
ENDMDL
MODEL       20
REMARK 921   NORMALIZED FREE ENERGY PREDICTED BY IDOCK:   -5.51 KCAL/MOL
REMARK 922        TOTAL FREE ENERGY PREDICTED BY IDOCK:   -8.09 KCAL/MOL
REMARK 923 INTER-LIGAND FREE ENERGY PREDICTED BY IDOCK:   -7.31 KCAL/MOL
REMARK 924 INTRA-LIGAND FREE ENERGY PREDICTED BY IDOCK:   -0.78 KCAL/MOL
REMARK 927      BINDING AFFINITY PREDICTED BY RF-SCORE:    0.00 PKD
ROOT
HETATM    1  C   UNL     1     -12.867  11.462  71.487  1.00  0.00    -0.403 C  
HETATM    2  N   UNL     1     -11.812  10.862  70.665  1.00  0.00    -0.347 NA 
HETATM    3  C   UNL     1     -11.773   9.415  70.904  1.00  0.00    -0.308 C  
ENDROOT
BRANCH   2   4
HETATM    4  C   UNL     1     -12.036  11.195  69.243  1.00  0.00    -0.351 C  
BRANCH   4   5
HETATM    5  C   UNL     1     -11.107  12.295  68.713  1.00  0.00    -0.251 C  
BRANCH   5   6
HETATM    6  O   UNL     1     -11.777  13.566  68.699  1.00  0.00    -0.308 OA 
BRANCH   6   7
HETATM    7  C   UNL     1     -11.097  14.548  69.524  1.00  0.00    -0.253 C  
BRANCH   7   8
HETATM    8  C   UNL     1     -10.688  15.740  68.660  1.00  0.00    -0.263 A  
HETATM    9  C   UNL     1     -10.699  15.615  67.259  1.00  0.00    -0.305 A  
HETATM   10  C   UNL     1     -10.480  17.010  69.225  1.00  0.00    -0.293 A  
HETATM   11 CL   UNL     1     -10.334  19.398  66.026  1.00  0.00    -0.567 Cl 
HETATM   12  C   UNL     1     -10.573  16.744  66.446  1.00  0.00    -0.192 A  
HETATM   13  C   UNL     1     -10.340  18.134  68.411  1.00  0.00    -0.371 A  
HETATM   14  C   UNL     1     -10.409  17.999  67.026  1.00  0.00    -0.369 A  
ENDBRANCH   7   8
BRANCH   7  15
HETATM   15  C   UNL     1     -11.947  14.941  70.734  1.00  0.00    -0.314 A  
HETATM   16  C   UNL     1     -12.026  15.580  72.966  1.00  0.00    -0.461 A  
HETATM   17  C   UNL     1     -14.065  15.460  71.754  1.00  0.00    -0.630 A  
HETATM   18  C   UNL     1     -13.336  15.057  70.637  1.00  0.00    -0.279 A  
HETATM   19  N   UNL     1     -11.287  15.200  71.898  1.00  0.00    -0.386 NA 
HETATM   20  C   UNL     1     -13.402  15.730  72.941  1.00  0.00    -0.661 A  
ENDBRANCH   7  15
ENDBRANCH   6   7
ENDBRANCH   5   6
ENDBRANCH   4   5
ENDBRANCH   2   4
TORSDOF 6
ENDMDL
MODEL       21
REMARK 921   NORMALIZED FREE ENERGY PREDICTED BY IDOCK:   -5.51 KCAL/MOL
REMARK 922        TOTAL FREE ENERGY PREDICTED BY IDOCK:   -8.09 KCAL/MOL
REMARK 923 INTER-LIGAND FREE ENERGY PREDICTED BY IDOCK:   -7.32 KCAL/MOL
REMARK 924 INTRA-LIGAND FREE ENERGY PREDICTED BY IDOCK:   -0.77 KCAL/MOL
REMARK 927      BINDING AFFINITY PREDICTED BY RF-SCORE:    0.00 PKD
ROOT
HETATM    1  C   UNL     1     -10.846  19.392  67.393  1.00  0.00    -0.440 C  
HETATM    2  N   UNL     1      -9.548  18.806  67.045  1.00  0.00    -0.295 NA 
HETATM    3  C   UNL     1      -8.474  19.686  67.517  1.00  0.00    -0.307 C  
ENDROOT
BRANCH   2   4
HETATM    4  C   UNL     1      -9.450  17.442  67.605  1.00  0.00    -0.251 C  
BRANCH   4   5
HETATM    5  C   UNL     1     -10.260  17.243  68.893  1.00  0.00    -0.349 C  
BRANCH   5   6
HETATM    6  O   UNL     1     -10.348  15.849  69.230  1.00  0.00    -0.215 OA 
BRANCH   6   7
HETATM    7  C   UNL     1     -11.634  15.283  68.865  1.00  0.00    -0.347 C  
BRANCH   7   8
HETATM    8  C   UNL     1     -11.430  14.210  67.796  1.00  0.00    -0.352 A  
HETATM    9  C   UNL     1     -12.479  13.909  66.909  1.00  0.00    -0.201 A  
HETATM   10  C   UNL     1     -10.162  13.649  67.561  1.00  0.00    -0.241 A  
HETATM   11 CL   UNL     1     -10.671  11.710  64.106  1.00  0.00    -0.385 Cl 
HETATM   12  C   UNL     1     -12.247  13.123  65.778  1.00  0.00    -0.514 A  
HETATM   13  C   UNL     1      -9.937  12.853  66.438  1.00  0.00    -0.267 A  
HETATM   14  C   UNL     1     -10.975  12.611  65.541  1.00  0.00    -0.279 A  
ENDBRANCH   7   8
BRANCH   7  15
HETATM   15  C   UNL     1     -12.386  14.775  70.097  1.00  0.00    -0.330 A  
HETATM   16  C   UNL     1     -13.876  15.221  71.822  1.00  0.00    -0.521 A  
HETATM   17  C   UNL     1     -13.022  13.015  71.612  1.00  0.00    -0.417 A  
HETATM   18  C   UNL     1     -12.284  13.444  70.510  1.00  0.00    -0.425 A  
HETATM   19  N   UNL     1     -13.180  15.668  70.751  1.00  0.00    -0.512 NA 
HETATM   20  C   UNL     1     -13.835  13.917  72.281  1.00  0.00    -0.669 A  
ENDBRANCH   7  15
ENDBRANCH   6   7
ENDBRANCH   5   6
ENDBRANCH   4   5
ENDBRANCH   2   4
TORSDOF 6
ENDMDL
MODEL       22
REMARK 921   NORMALIZED FREE ENERGY PREDICTED BY IDOCK:   -5.49 KCAL/MOL
REMARK 922        TOTAL FREE ENERGY PREDICTED BY IDOCK:   -8.06 KCAL/MOL
REMARK 923 INTER-LIGAND FREE ENERGY PREDICTED BY IDOCK:   -7.39 KCAL/MOL
REMARK 924 INTRA-LIGAND FREE ENERGY PREDICTED BY IDOCK:   -0.68 KCAL/MOL
REMARK 927      BINDING AFFINITY PREDICTED BY RF-SCORE:    0.00 PKD
ROOT
HETATM    1  C   UNL     1     -12.196   7.329  71.756  1.00  0.00    -0.334 C  
HETATM    2  N   UNL     1     -12.799   8.600  71.344  1.00  0.00    -0.297 NA 
HETATM    3  C   UNL     1     -13.858   8.966  72.291  1.00  0.00    -0.474 C  
ENDROOT
BRANCH   2   4
HETATM    4  C   UNL     1     -11.753   9.638  71.236  1.00  0.00    -0.382 C  
BRANCH   4   5
HETATM    5  C   UNL     1     -11.657  10.275  69.843  1.00  0.00    -0.256 C  
BRANCH   5   6
HETATM    6  O   UNL     1     -11.029  11.566  69.915  1.00  0.00    -0.093 OA 
BRANCH   6   7
HETATM    7  C   UNL     1     -11.905  12.622  69.442  1.00  0.00    -0.296 C  
BRANCH   7   8
HETATM    8  C   UNL     1     -12.185  13.598  70.584  1.00  0.00    -0.434 A  
HETATM    9  C   UNL     1     -13.087  13.232  71.601  1.00  0.00    -0.453 A  
HETATM   10  C   UNL     1     -11.427  14.771  70.742  1.00  0.00    -0.273 A  
HETATM   11 CL   UNL     1     -12.437  16.003  74.404  1.00  0.00    -0.728 Cl 
HETATM   12  C   UNL     1     -13.175  13.985  72.773  1.00  0.00    -0.580 A  
HETATM   13  C   UNL     1     -11.528  15.529  71.908  1.00  0.00    -0.506 A  
HETATM   14  C   UNL     1     -12.386  15.122  72.927  1.00  0.00    -0.391 A  
ENDBRANCH   7   8
BRANCH   7  15
HETATM   15  C   UNL     1     -11.334  13.300  68.194  1.00  0.00    -0.288 A  
HETATM   16  C   UNL     1      -9.490  13.718  66.846  1.00  0.00    -0.262 A  
HETATM   17  C   UNL     1     -11.600  14.576  66.170  1.00  0.00    -0.366 A  
HETATM   18  C   UNL     1     -12.155  14.012  67.317  1.00  0.00    -0.405 A  
HETATM   19  N   UNL     1     -10.000  13.151  67.964  1.00  0.00    -0.227 NA 
HETATM   20  C   UNL     1     -10.243  14.426  65.925  1.00  0.00    -0.341 A  
ENDBRANCH   7  15
ENDBRANCH   6   7
ENDBRANCH   5   6
ENDBRANCH   4   5
ENDBRANCH   2   4
TORSDOF 6
ENDMDL
MODEL       23
REMARK 921   NORMALIZED FREE ENERGY PREDICTED BY IDOCK:   -5.48 KCAL/MOL
REMARK 922        TOTAL FREE ENERGY PREDICTED BY IDOCK:   -8.05 KCAL/MOL
REMARK 923 INTER-LIGAND FREE ENERGY PREDICTED BY IDOCK:   -7.36 KCAL/MOL
REMARK 924 INTRA-LIGAND FREE ENERGY PREDICTED BY IDOCK:   -0.70 KCAL/MOL
REMARK 927      BINDING AFFINITY PREDICTED BY RF-SCORE:    0.00 PKD
ROOT
HETATM    1  C   UNL     1     -12.347  14.569  64.333  1.00  0.00    -0.413 C  
HETATM    2  N   UNL     1     -12.724  13.217  64.756  1.00  0.00    -0.700 NA 
HETATM    3  C   UNL     1     -12.365  12.259  63.705  1.00  0.00    -0.538 C  
ENDROOT
BRANCH   2   4
HETATM    4  C   UNL     1     -12.085  12.903  66.051  1.00  0.00    -0.422 C  
BRANCH   4   5
HETATM    5  C   UNL     1     -10.629  13.378  66.153  1.00  0.00    -0.292 C  
BRANCH   5   6
HETATM    6  O   UNL     1     -10.344  13.869  67.473  1.00  0.00    -0.242 OA 
BRANCH   6   7
HETATM    7  C   UNL     1     -11.010  15.132  67.738  1.00  0.00    -0.306 C  
BRANCH   7   8
HETATM    8  C   UNL     1     -11.581  15.116  69.155  1.00  0.00    -0.343 A  
HETATM    9  C   UNL     1     -12.242  13.966  69.622  1.00  0.00    -0.374 A  
HETATM   10  C   UNL     1     -11.300  16.151  70.064  1.00  0.00    -0.332 A  
HETATM   11 CL   UNL     1     -12.539  14.641  73.548  1.00  0.00    -0.531 Cl 
HETATM   12  C   UNL     1     -12.552  13.827  70.976  1.00  0.00    -0.446 A  
HETATM   13  C   UNL     1     -11.624  16.016  71.414  1.00  0.00    -0.520 A  
HETATM   14  C   UNL     1     -12.229  14.846  71.868  1.00  0.00    -0.352 A  
ENDBRANCH   7   8
BRANCH   7  15
HETATM   15  C   UNL     1     -10.078  16.317  67.473  1.00  0.00    -0.258 A  
HETATM   16  C   UNL     1      -9.849  18.560  66.917  1.00  0.00    -0.334 A  
HETATM   17  C   UNL     1      -7.888  17.313  67.410  1.00  0.00    -0.198 A  
HETATM   18  C   UNL     1      -8.694  16.196  67.618  1.00  0.00    -0.184 A  
HETATM   19  N   UNL     1     -10.661  17.496  67.121  1.00  0.00    -0.305 NA 
HETATM   20  C   UNL     1      -8.472  18.519  67.055  1.00  0.00    -0.266 A  
ENDBRANCH   7  15
ENDBRANCH   6   7
ENDBRANCH   5   6
ENDBRANCH   4   5
ENDBRANCH   2   4
TORSDOF 6
ENDMDL
MODEL       24
REMARK 921   NORMALIZED FREE ENERGY PREDICTED BY IDOCK:   -5.47 KCAL/MOL
REMARK 922        TOTAL FREE ENERGY PREDICTED BY IDOCK:   -8.04 KCAL/MOL
REMARK 923 INTER-LIGAND FREE ENERGY PREDICTED BY IDOCK:   -7.32 KCAL/MOL
REMARK 924 INTRA-LIGAND FREE ENERGY PREDICTED BY IDOCK:   -0.71 KCAL/MOL
REMARK 927      BINDING AFFINITY PREDICTED BY RF-SCORE:    0.00 PKD
ROOT
HETATM    1  C   UNL     1      -8.028  19.844  66.561  1.00  0.00    -0.321 C  
HETATM    2  N   UNL     1      -8.785  18.790  67.244  1.00  0.00    -0.271 NA 
HETATM    3  C   UNL     1      -9.364  19.329  68.479  1.00  0.00    -0.388 C  
ENDROOT
BRANCH   2   4
HETATM    4  C   UNL     1      -9.810  18.240  66.332  1.00  0.00    -0.357 C  
BRANCH   4   5
HETATM    5  C   UNL     1      -9.850  16.706  66.302  1.00  0.00    -0.310 C  
BRANCH   5   6
HETATM    6  O   UNL     1     -10.970  16.211  67.053  1.00  0.00    -0.256 OA 
BRANCH   6   7
HETATM    7  C   UNL     1     -10.827  14.804  67.379  1.00  0.00    -0.300 C  
BRANCH   7   8
HETATM    8  C   UNL     1     -11.670  14.480  68.611  1.00  0.00    -0.364 A  
HETATM    9  C   UNL     1     -11.682  13.167  69.116  1.00  0.00    -0.376 A  
HETATM   10  C   UNL     1     -12.284  15.499  69.360  1.00  0.00    -0.233 A  
HETATM   11 CL   UNL     1     -13.412  13.603  72.691  1.00  0.00    -0.652 Cl 
HETATM   12  C   UNL     1     -12.234  12.894  70.369  1.00  0.00    -0.381 A  
HETATM   13  C   UNL     1     -12.849  15.221  70.606  1.00  0.00    -0.462 A  
HETATM   14  C   UNL     1     -12.803  13.925  71.113  1.00  0.00    -0.351 A  
ENDBRANCH   7   8
BRANCH   7  15
HETATM   15  C   UNL     1     -11.153  13.919  66.173  1.00  0.00    -0.299 A  
HETATM   16  C   UNL     1     -10.416  12.373  64.605  1.00  0.00    -0.309 A  
HETATM   17  C   UNL     1     -12.708  12.997  64.584  1.00  0.00    -0.367 A  
HETATM   18  C   UNL     1     -12.448  13.850  65.655  1.00  0.00    -0.538 A  
HETATM   19  N   UNL     1     -10.132  13.184  65.650  1.00  0.00    -0.285 NA 
HETATM   20  C   UNL     1     -11.676  12.241  64.048  1.00  0.00    -0.506 A  
ENDBRANCH   7  15
ENDBRANCH   6   7
ENDBRANCH   5   6
ENDBRANCH   4   5
ENDBRANCH   2   4
TORSDOF 6
ENDMDL
MODEL       25
REMARK 921   NORMALIZED FREE ENERGY PREDICTED BY IDOCK:   -5.41 KCAL/MOL
REMARK 922        TOTAL FREE ENERGY PREDICTED BY IDOCK:   -7.96 KCAL/MOL
REMARK 923 INTER-LIGAND FREE ENERGY PREDICTED BY IDOCK:   -7.19 KCAL/MOL
REMARK 924 INTRA-LIGAND FREE ENERGY PREDICTED BY IDOCK:   -0.77 KCAL/MOL
REMARK 927      BINDING AFFINITY PREDICTED BY RF-SCORE:    0.00 PKD
ROOT
HETATM    1  C   UNL     1     -12.392  12.069  63.403  1.00  0.00    -0.523 C  
HETATM    2  N   UNL     1     -11.517  12.985  64.140  1.00  0.00    -0.379 NA 
HETATM    3  C   UNL     1     -12.218  14.253  64.365  1.00  0.00    -0.447 C  
ENDROOT
BRANCH   2   4
HETATM    4  C   UNL     1     -11.076  12.351  65.399  1.00  0.00    -0.306 C  
BRANCH   4   5
HETATM    5  C   UNL     1     -12.023  12.599  66.581  1.00  0.00    -0.312 C  
BRANCH   5   6
HETATM    6  O   UNL     1     -11.285  12.957  67.760  1.00  0.00    -0.253 OA 
BRANCH   6   7
HETATM    7  C   UNL     1     -11.405  14.370  68.069  1.00  0.00    -0.294 C  
BRANCH   7   8
HETATM    8  C   UNL     1     -11.584  14.546  69.576  1.00  0.00    -0.350 A  
HETATM    9  C   UNL     1     -11.218  15.764  70.178  1.00  0.00    -0.357 A  
HETATM   10  C   UNL     1     -12.275  13.592  70.343  1.00  0.00    -0.434 A  
HETATM   11 CL   UNL     1     -12.847  15.482  73.815  1.00  0.00    -0.672 Cl 
HETATM   12  C   UNL     1     -11.595  16.045  71.493  1.00  0.00    -0.529 A  
HETATM   13  C   UNL     1     -12.638  13.870  71.661  1.00  0.00    -0.387 A  
HETATM   14  C   UNL     1     -12.315  15.103  72.223  1.00  0.00    -0.363 A  
ENDBRANCH   7   8
BRANCH   7  15
HETATM   15  C   UNL     1     -10.226  15.165  67.502  1.00  0.00    -0.238 A  
HETATM   16  C   UNL     1      -7.944  15.283  67.087  1.00  0.00    -0.218 A  
HETATM   17  C   UNL     1      -9.322  17.064  66.332  1.00  0.00    -0.295 A  
HETATM   18  C   UNL     1     -10.419  16.396  66.872  1.00  0.00    -0.289 A  
HETATM   19  N   UNL     1      -8.990  14.604  67.613  1.00  0.00    -0.181 NA 
HETATM   20  C   UNL     1      -8.060  16.499  66.437  1.00  0.00    -0.362 A  
ENDBRANCH   7  15
ENDBRANCH   6   7
ENDBRANCH   5   6
ENDBRANCH   4   5
ENDBRANCH   2   4
TORSDOF 6
ENDMDL
MODEL       26
REMARK 921   NORMALIZED FREE ENERGY PREDICTED BY IDOCK:   -5.35 KCAL/MOL
REMARK 922        TOTAL FREE ENERGY PREDICTED BY IDOCK:   -7.88 KCAL/MOL
REMARK 923 INTER-LIGAND FREE ENERGY PREDICTED BY IDOCK:   -7.07 KCAL/MOL
REMARK 924 INTRA-LIGAND FREE ENERGY PREDICTED BY IDOCK:   -0.81 KCAL/MOL
REMARK 927      BINDING AFFINITY PREDICTED BY RF-SCORE:    0.00 PKD
ROOT
HETATM    1  C   UNL     1     -10.659  11.712  65.885  1.00  0.00    -0.271 C  
HETATM    2  N   UNL     1     -11.480  11.226  66.997  1.00  0.00    -0.470 NA 
HETATM    3  C   UNL     1     -10.888   9.999  67.540  1.00  0.00    -0.265 C  
ENDROOT
BRANCH   2   4
HETATM    4  C   UNL     1     -11.618  12.286  68.017  1.00  0.00    -0.349 C  
BRANCH   4   5
HETATM    5  C   UNL     1     -11.559  13.708  67.441  1.00  0.00    -0.356 C  
BRANCH   5   6
HETATM    6  O   UNL     1     -12.137  14.653  68.356  1.00  0.00    -0.284 OA 
BRANCH   6   7
HETATM    7  C   UNL     1     -11.320  14.831  69.542  1.00  0.00    -0.283 C  
BRANCH   7   8
HETATM    8  C   UNL     1     -10.224  15.857  69.253  1.00  0.00    -0.250 A  
HETATM    9  C   UNL     1      -8.875  15.493  69.418  1.00  0.00    -0.257 A  
HETATM   10  C   UNL     1     -10.524  17.091  68.651  1.00  0.00    -0.363 A  
HETATM   11 CL   UNL     1      -6.922  18.484  67.630  1.00  0.00    -0.208 Cl 
HETATM   12  C   UNL     1      -7.856  16.313  68.930  1.00  0.00    -0.224 A  
HETATM   13  C   UNL     1      -9.502  17.916  68.178  1.00  0.00    -0.288 A  
HETATM   14  C   UNL     1      -8.174  17.513  68.301  1.00  0.00    -0.263 A  
ENDBRANCH   7   8
BRANCH   7  15
HETATM   15  C   UNL     1     -12.177  15.188  70.759  1.00  0.00    -0.340 A  
HETATM   16  C   UNL     1     -14.290  15.321  71.712  1.00  0.00    -0.574 A  
HETATM   17  C   UNL     1     -12.412  15.890  73.050  1.00  0.00    -0.599 A  
HETATM   18  C   UNL     1     -11.595  15.618  71.954  1.00  0.00    -0.547 A  
HETATM   19  N   UNL     1     -13.525  15.040  70.632  1.00  0.00    -0.249 NA 
HETATM   20  C   UNL     1     -13.785  15.738  72.931  1.00  0.00    -0.631 A  
ENDBRANCH   7  15
ENDBRANCH   6   7
ENDBRANCH   5   6
ENDBRANCH   4   5
ENDBRANCH   2   4
TORSDOF 6
ENDMDL
MODEL       27
REMARK 921   NORMALIZED FREE ENERGY PREDICTED BY IDOCK:   -5.32 KCAL/MOL
REMARK 922        TOTAL FREE ENERGY PREDICTED BY IDOCK:   -7.84 KCAL/MOL
REMARK 923 INTER-LIGAND FREE ENERGY PREDICTED BY IDOCK:   -7.22 KCAL/MOL
REMARK 924 INTRA-LIGAND FREE ENERGY PREDICTED BY IDOCK:   -0.62 KCAL/MOL
REMARK 927      BINDING AFFINITY PREDICTED BY RF-SCORE:    0.00 PKD
ROOT
HETATM    1  C   UNL     1     -11.445   6.265  72.022  1.00  0.00    -0.310 C  
HETATM    2  N   UNL     1     -11.372   7.480  72.838  1.00  0.00    -0.332 NA 
HETATM    3  C   UNL     1      -9.970   7.765  73.163  1.00  0.00    -0.311 C  
ENDROOT
BRANCH   2   4
HETATM    4  C   UNL     1     -12.027   8.599  72.129  1.00  0.00    -0.379 C  
BRANCH   4   5
HETATM    5  C   UNL     1     -11.378   8.939  70.780  1.00  0.00    -0.278 C  
BRANCH   5   6
HETATM    6  O   UNL     1     -11.061  10.339  70.706  1.00  0.00    -0.326 OA 
BRANCH   6   7
HETATM    7  C   UNL     1     -11.935  11.045  69.787  1.00  0.00    -0.356 C  
BRANCH   7   8
HETATM    8  C   UNL     1     -12.528  12.266  70.488  1.00  0.00    -0.272 A  
HETATM    9  C   UNL     1     -13.204  12.101  71.711  1.00  0.00    -0.423 A  
HETATM   10  C   UNL     1     -12.255  13.569  70.037  1.00  0.00    -0.381 A  
HETATM   11 CL   UNL     1     -13.559  15.849  73.046  1.00  0.00    -0.665 Cl 
HETATM   12  C   UNL     1     -13.536  13.209  72.493  1.00  0.00    -0.595 A  
HETATM   13  C   UNL     1     -12.602  14.675  70.813  1.00  0.00    -0.415 A  
HETATM   14  C   UNL     1     -13.221  14.490  72.046  1.00  0.00    -0.362 A  
ENDBRANCH   7   8
BRANCH   7  15
HETATM   15  C   UNL     1     -11.209  11.389  68.484  1.00  0.00    -0.250 A  
HETATM   16  C   UNL     1     -11.351  11.910  66.225  1.00  0.00    -0.334 A  
HETATM   17  C   UNL     1      -9.207  11.894  67.246  1.00  0.00    -0.179 A  
HETATM   18  C   UNL     1      -9.821  11.537  68.446  1.00  0.00    -0.204 A  
HETATM   19  N   UNL     1     -11.979  11.573  67.375  1.00  0.00    -0.597 NA 
HETATM   20  C   UNL     1      -9.983  12.087  66.114  1.00  0.00    -0.254 A  
ENDBRANCH   7  15
ENDBRANCH   6   7
ENDBRANCH   5   6
ENDBRANCH   4   5
ENDBRANCH   2   4
TORSDOF 6
ENDMDL
MODEL       28
REMARK 921   NORMALIZED FREE ENERGY PREDICTED BY IDOCK:   -5.31 KCAL/MOL
REMARK 922        TOTAL FREE ENERGY PREDICTED BY IDOCK:   -7.82 KCAL/MOL
REMARK 923 INTER-LIGAND FREE ENERGY PREDICTED BY IDOCK:   -7.07 KCAL/MOL
REMARK 924 INTRA-LIGAND FREE ENERGY PREDICTED BY IDOCK:   -0.76 KCAL/MOL
REMARK 927      BINDING AFFINITY PREDICTED BY RF-SCORE:    0.00 PKD
ROOT
HETATM    1  C   UNL     1     -10.192  11.139  63.500  1.00  0.00    -0.390 C  
HETATM    2  N   UNL     1     -10.989  12.367  63.578  1.00  0.00    -0.460 NA 
HETATM    3  C   UNL     1     -12.405  12.042  63.372  1.00  0.00    -0.523 C  
ENDROOT
BRANCH   2   4
HETATM    4  C   UNL     1     -10.745  13.040  64.871  1.00  0.00    -0.332 C  
BRANCH   4   5
HETATM    5  C   UNL     1     -11.915  12.926  65.857  1.00  0.00    -0.448 C  
BRANCH   5   6
HETATM    6  O   UNL     1     -11.555  12.112  66.984  1.00  0.00    -0.376 OA 
BRANCH   6   7
HETATM    7  C   UNL     1     -11.904  12.743  68.244  1.00  0.00    -0.312 C  
BRANCH   7   8
HETATM    8  C   UNL     1     -11.717  11.740  69.382  1.00  0.00    -0.405 A  
HETATM    9  C   UNL     1     -12.516  11.845  70.535  1.00  0.00    -0.301 A  
HETATM   10  C   UNL     1     -10.898  10.608  69.227  1.00  0.00    -0.282 A  
HETATM   11 CL   UNL     1     -11.853   8.373  72.397  1.00  0.00    -0.453 Cl 
HETATM   12  C   UNL     1     -12.545  10.811  71.474  1.00  0.00    -0.500 A  
HETATM   13  C   UNL     1     -10.917   9.584  70.174  1.00  0.00    -0.302 A  
HETATM   14  C   UNL     1     -11.757   9.680  71.282  1.00  0.00    -0.382 A  
ENDBRANCH   7   8
BRANCH   7  15
HETATM   15  C   UNL     1     -11.123  14.043  68.449  1.00  0.00    -0.253 A  
HETATM   16  C   UNL     1     -11.171  16.336  68.811  1.00  0.00    -0.343 A  
HETATM   17  C   UNL     1      -9.060  15.249  68.743  1.00  0.00    -0.200 A  
HETATM   18  C   UNL     1      -9.728  14.048  68.512  1.00  0.00    -0.215 A  
HETATM   19  N   UNL     1     -11.850  15.186  68.596  1.00  0.00    -0.329 NA 
HETATM   20  C   UNL     1      -9.792  16.417  68.899  1.00  0.00    -0.260 A  
ENDBRANCH   7  15
ENDBRANCH   6   7
ENDBRANCH   5   6
ENDBRANCH   4   5
ENDBRANCH   2   4
TORSDOF 6
ENDMDL
MODEL       29
REMARK 921   NORMALIZED FREE ENERGY PREDICTED BY IDOCK:   -5.25 KCAL/MOL
REMARK 922        TOTAL FREE ENERGY PREDICTED BY IDOCK:   -7.75 KCAL/MOL
REMARK 923 INTER-LIGAND FREE ENERGY PREDICTED BY IDOCK:   -7.25 KCAL/MOL
REMARK 924 INTRA-LIGAND FREE ENERGY PREDICTED BY IDOCK:   -0.50 KCAL/MOL
REMARK 927      BINDING AFFINITY PREDICTED BY RF-SCORE:    0.00 PKD
ROOT
HETATM    1  C   UNL     1     -12.222   9.654  71.574  1.00  0.00    -0.399 C  
HETATM    2  N   UNL     1     -12.806  10.810  70.888  1.00  0.00    -0.360 NA 
HETATM    3  C   UNL     1     -13.005  11.898  71.851  1.00  0.00    -0.329 C  
ENDROOT
BRANCH   2   4
HETATM    4  C   UNL     1     -11.942  11.207  69.756  1.00  0.00    -0.357 C  
BRANCH   4   5
HETATM    5  C   UNL     1     -12.143  12.661  69.306  1.00  0.00    -0.166 C  
BRANCH   5   6
HETATM    6  O   UNL     1     -11.129  13.048  68.365  1.00  0.00    -0.236 OA 
BRANCH   6   7
HETATM    7  C   UNL     1     -11.677  13.809  67.257  1.00  0.00    -0.382 C  
BRANCH   7   8
HETATM    8  C   UNL     1     -11.070  15.211  67.255  1.00  0.00    -0.332 A  
HETATM    9  C   UNL     1     -10.761  15.829  66.030  1.00  0.00    -0.311 A  
HETATM   10  C   UNL     1     -10.986  15.969  68.436  1.00  0.00    -0.331 A  
HETATM   11 CL   UNL     1     -10.089  19.622  67.092  1.00  0.00    -0.496 Cl 
HETATM   12  C   UNL     1     -10.442  17.188  65.983  1.00  0.00    -0.271 A  
HETATM   13  C   UNL     1     -10.653  17.323  68.388  1.00  0.00    -0.368 A  
HETATM   14  C   UNL     1     -10.403  17.931  67.160  1.00  0.00    -0.367 A  
ENDBRANCH   7   8
BRANCH   7  15
HETATM   15  C   UNL     1     -11.494  13.068  65.931  1.00  0.00    -0.337 A  
HETATM   16  C   UNL     1     -10.146  11.744  64.580  1.00  0.00    -0.272 A  
HETATM   17  C   UNL     1     -12.320  12.303  63.802  1.00  0.00    -0.637 A  
HETATM   18  C   UNL     1     -12.515  13.027  64.977  1.00  0.00    -0.534 A  
HETATM   19  N   UNL     1     -10.307  12.429  65.736  1.00  0.00    -0.257 NA 
HETATM   20  C   UNL     1     -11.115  11.646  63.598  1.00  0.00    -0.506 A  
ENDBRANCH   7  15
ENDBRANCH   6   7
ENDBRANCH   5   6
ENDBRANCH   4   5
ENDBRANCH   2   4
TORSDOF 6
ENDMDL
MODEL       30
REMARK 921   NORMALIZED FREE ENERGY PREDICTED BY IDOCK:   -5.25 KCAL/MOL
REMARK 922        TOTAL FREE ENERGY PREDICTED BY IDOCK:   -7.74 KCAL/MOL
REMARK 923 INTER-LIGAND FREE ENERGY PREDICTED BY IDOCK:   -7.05 KCAL/MOL
REMARK 924 INTRA-LIGAND FREE ENERGY PREDICTED BY IDOCK:   -0.70 KCAL/MOL
REMARK 927      BINDING AFFINITY PREDICTED BY RF-SCORE:    0.00 PKD
ROOT
HETATM    1  C   UNL     1      -9.087  16.323  68.718  1.00  0.00    -0.245 C  
HETATM    2  N   UNL     1     -10.369  17.034  68.735  1.00  0.00    -0.316 NA 
HETATM    3  C   UNL     1     -10.425  17.963  67.602  1.00  0.00    -0.397 C  
ENDROOT
BRANCH   2   4
HETATM    4  C   UNL     1     -11.481  16.061  68.726  1.00  0.00    -0.375 C  
BRANCH   4   5
HETATM    5  C   UNL     1     -11.112  14.696  69.323  1.00  0.00    -0.269 C  
BRANCH   5   6
HETATM    6  O   UNL     1     -11.841  13.642  68.674  1.00  0.00    -0.337 OA 
BRANCH   6   7
HETATM    7  C   UNL     1     -10.967  12.574  68.224  1.00  0.00    -0.240 C  
BRANCH   7   8
HETATM    8  C   UNL     1     -11.177  11.343  69.104  1.00  0.00    -0.335 A  
HETATM    9  C   UNL     1     -10.075  10.536  69.439  1.00  0.00    -0.233 A  
HETATM   10  C   UNL     1     -12.409  11.103  69.738  1.00  0.00    -0.315 A  
HETATM   11 CL   UNL     1     -11.522   8.217  72.353  1.00  0.00    -0.447 Cl 
HETATM   12  C   UNL     1     -10.187   9.560  70.431  1.00  0.00    -0.337 A  
HETATM   13  C   UNL     1     -12.522  10.117  70.719  1.00  0.00    -0.417 A  
HETATM   14  C   UNL     1     -11.405   9.365  71.076  1.00  0.00    -0.337 A  
ENDBRANCH   7   8
BRANCH   7  15
HETATM   15  C   UNL     1     -11.158  12.291  66.732  1.00  0.00    -0.296 A  
HETATM   16  C   UNL     1     -12.365  12.686  64.788  1.00  0.00    -0.489 A  
HETATM   17  C   UNL     1     -10.463  11.270  64.666  1.00  0.00    -0.387 A  
HETATM   18  C   UNL     1     -10.275  11.464  66.033  1.00  0.00    -0.289 A  
HETATM   19  N   UNL     1     -12.206  12.904  66.114  1.00  0.00    -0.508 NA 
HETATM   20  C   UNL     1     -11.525  11.893  64.028  1.00  0.00    -0.480 A  
ENDBRANCH   7  15
ENDBRANCH   6   7
ENDBRANCH   5   6
ENDBRANCH   4   5
ENDBRANCH   2   4
TORSDOF 6
ENDMDL
MODEL       31
REMARK 921   NORMALIZED FREE ENERGY PREDICTED BY IDOCK:   -5.24 KCAL/MOL
REMARK 922        TOTAL FREE ENERGY PREDICTED BY IDOCK:   -7.72 KCAL/MOL
REMARK 923 INTER-LIGAND FREE ENERGY PREDICTED BY IDOCK:   -6.97 KCAL/MOL
REMARK 924 INTRA-LIGAND FREE ENERGY PREDICTED BY IDOCK:   -0.75 KCAL/MOL
REMARK 927      BINDING AFFINITY PREDICTED BY RF-SCORE:    0.00 PKD
ROOT
HETATM    1  C   UNL     1     -12.646  12.089  63.374  1.00  0.00    -0.469 C  
HETATM    2  N   UNL     1     -11.470  12.469  64.163  1.00  0.00    -0.355 NA 
HETATM    3  C   UNL     1     -10.256  12.021  63.474  1.00  0.00    -0.450 C  
ENDROOT
BRANCH   2   4
HETATM    4  C   UNL     1     -11.480  13.927  64.402  1.00  0.00    -0.361 C  
BRANCH   4   5
HETATM    5  C   UNL     1     -12.174  14.335  65.709  1.00  0.00    -0.403 C  
BRANCH   5   6
HETATM    6  O   UNL     1     -11.839  13.426  66.769  1.00  0.00    -0.365 OA 
BRANCH   6   7
HETATM    7  C   UNL     1     -11.959  14.047  68.076  1.00  0.00    -0.350 C  
BRANCH   7   8
HETATM    8  C   UNL     1     -12.035  12.961  69.148  1.00  0.00    -0.308 A  
HETATM    9  C   UNL     1     -12.509  13.288  70.431  1.00  0.00    -0.295 A  
HETATM   10  C   UNL     1     -11.819  11.609  68.831  1.00  0.00    -0.392 A  
HETATM   11 CL   UNL     1     -13.101   9.708  72.101  1.00  0.00    -0.516 Cl 
HETATM   12  C   UNL     1     -12.823  12.283  71.349  1.00  0.00    -0.373 A  
HETATM   13  C   UNL     1     -12.119  10.607  69.754  1.00  0.00    -0.343 A  
HETATM   14  C   UNL     1     -12.640  10.948  71.001  1.00  0.00    -0.417 A  
ENDBRANCH   7   8
BRANCH   7  15
HETATM   15  C   UNL     1     -10.834  15.057  68.316  1.00  0.00    -0.259 A  
HETATM   16  C   UNL     1      -8.554  15.485  68.409  1.00  0.00    -0.168 A  
HETATM   17  C   UNL     1     -10.055  17.294  68.749  1.00  0.00    -0.337 A  
HETATM   18  C   UNL     1     -11.112  16.400  68.580  1.00  0.00    -0.352 A  
HETATM   19  N   UNL     1      -9.556  14.594  68.231  1.00  0.00    -0.202 NA 
HETATM   20  C   UNL     1      -8.751  16.831  68.660  1.00  0.00    -0.255 A  
ENDBRANCH   7  15
ENDBRANCH   6   7
ENDBRANCH   5   6
ENDBRANCH   4   5
ENDBRANCH   2   4
TORSDOF 6
ENDMDL
MODEL       32
REMARK 921   NORMALIZED FREE ENERGY PREDICTED BY IDOCK:   -5.21 KCAL/MOL
REMARK 922        TOTAL FREE ENERGY PREDICTED BY IDOCK:   -7.69 KCAL/MOL
REMARK 923 INTER-LIGAND FREE ENERGY PREDICTED BY IDOCK:   -6.95 KCAL/MOL
REMARK 924 INTRA-LIGAND FREE ENERGY PREDICTED BY IDOCK:   -0.74 KCAL/MOL
REMARK 927      BINDING AFFINITY PREDICTED BY RF-SCORE:    0.00 PKD
ROOT
HETATM    1  C   UNL     1     -10.163  11.727  63.330  1.00  0.00    -0.449 C  
HETATM    2  N   UNL     1     -11.238  12.694  63.572  1.00  0.00    -0.464 NA 
HETATM    3  C   UNL     1     -12.536  12.033  63.397  1.00  0.00    -0.509 C  
ENDROOT
BRANCH   2   4
HETATM    4  C   UNL     1     -11.082  13.288  64.916  1.00  0.00    -0.328 C  
BRANCH   4   5
HETATM    5  C   UNL     1     -12.061  14.435  65.201  1.00  0.00    -0.395 C  
BRANCH   5   6
HETATM    6  O   UNL     1     -12.267  14.590  66.614  1.00  0.00    -0.379 OA 
BRANCH   6   7
HETATM    7  C   UNL     1     -11.117  14.149  67.383  1.00  0.00    -0.306 C  
BRANCH   7   8
HETATM    8  C   UNL     1     -10.383  15.367  67.940  1.00  0.00    -0.247 A  
HETATM    9  C   UNL     1      -9.047  15.237  68.360  1.00  0.00    -0.189 A  
HETATM   10  C   UNL     1     -10.949  16.652  67.872  1.00  0.00    -0.276 A  
HETATM   11 CL   UNL     1      -7.875  19.032  68.788  1.00  0.00    -0.385 Cl 
HETATM   12  C   UNL     1      -8.277  16.369  68.637  1.00  0.00    -0.223 A  
HETATM   13  C   UNL     1     -10.183  17.781  68.163  1.00  0.00    -0.383 A  
HETATM   14  C   UNL     1      -8.845  17.635  68.524  1.00  0.00    -0.285 A  
ENDBRANCH   7   8
BRANCH   7  15
HETATM   15  C   UNL     1     -11.523  13.141  68.461  1.00  0.00    -0.303 A  
HETATM   16  C   UNL     1     -11.690  10.921  69.124  1.00  0.00    -0.326 A  
HETATM   17  C   UNL     1     -12.322  12.611  70.669  1.00  0.00    -0.375 A  
HETATM   18  C   UNL     1     -12.006  13.563  69.702  1.00  0.00    -0.397 A  
HETATM   19  N   UNL     1     -11.365  11.820  68.166  1.00  0.00    -0.259 NA 
HETATM   20  C   UNL     1     -12.160  11.264  70.379  1.00  0.00    -0.474 A  
ENDBRANCH   7  15
ENDBRANCH   6   7
ENDBRANCH   5   6
ENDBRANCH   4   5
ENDBRANCH   2   4
TORSDOF 6
ENDMDL
MODEL       33
REMARK 921   NORMALIZED FREE ENERGY PREDICTED BY IDOCK:   -5.19 KCAL/MOL
REMARK 922        TOTAL FREE ENERGY PREDICTED BY IDOCK:   -7.67 KCAL/MOL
REMARK 923 INTER-LIGAND FREE ENERGY PREDICTED BY IDOCK:   -6.76 KCAL/MOL
REMARK 924 INTRA-LIGAND FREE ENERGY PREDICTED BY IDOCK:   -0.91 KCAL/MOL
REMARK 927      BINDING AFFINITY PREDICTED BY RF-SCORE:    0.00 PKD
ROOT
HETATM    1  C   UNL     1     -12.670  14.166  65.395  1.00  0.00    -0.431 C  
HETATM    2  N   UNL     1     -11.340  14.270  64.787  1.00  0.00    -0.368 NA 
HETATM    3  C   UNL     1     -10.671  15.478  65.282  1.00  0.00    -0.422 C  
ENDROOT
BRANCH   2   4
HETATM    4  C   UNL     1     -10.567  13.041  65.063  1.00  0.00    -0.319 C  
BRANCH   4   5
HETATM    5  C   UNL     1     -11.350  11.983  65.851  1.00  0.00    -0.337 C  
BRANCH   5   6
HETATM    6  O   UNL     1     -10.708  11.701  67.104  1.00  0.00    -0.225 OA 
BRANCH   6   7
HETATM    7  C   UNL     1     -11.582  11.961  68.234  1.00  0.00    -0.327 C  
BRANCH   7   8
HETATM    8  C   UNL     1     -11.412  10.853  69.272  1.00  0.00    -0.372 A  
HETATM    9  C   UNL     1     -10.176  10.189  69.380  1.00  0.00    -0.246 A  
HETATM   10  C   UNL     1     -12.399  10.609  70.243  1.00  0.00    -0.406 A  
HETATM   11 CL   UNL     1     -10.535   8.196  72.823  1.00  0.00    -0.404 Cl 
HETATM   12  C   UNL     1      -9.912   9.356  70.469  1.00  0.00    -0.328 A  
HETATM   13  C   UNL     1     -12.138   9.764  71.322  1.00  0.00    -0.470 A  
HETATM   14  C   UNL     1     -10.889   9.159  71.442  1.00  0.00    -0.349 A  
ENDBRANCH   7   8
BRANCH   7  15
HETATM   15  C   UNL     1     -11.352  13.364  68.803  1.00  0.00    -0.292 A  
HETATM   16  C   UNL     1      -9.936  15.189  69.038  1.00  0.00    -0.239 A  
HETATM   17  C   UNL     1     -12.118  15.327  69.966  1.00  0.00    -0.386 A  
HETATM   18  C   UNL     1     -12.357  14.034  69.504  1.00  0.00    -0.275 A  
HETATM   19  N   UNL     1     -10.138  13.936  68.568  1.00  0.00    -0.236 NA 
HETATM   20  C   UNL     1     -10.887  15.920  69.728  1.00  0.00    -0.328 A  
ENDBRANCH   7  15
ENDBRANCH   6   7
ENDBRANCH   5   6
ENDBRANCH   4   5
ENDBRANCH   2   4
TORSDOF 6
ENDMDL
MODEL       34
REMARK 921   NORMALIZED FREE ENERGY PREDICTED BY IDOCK:   -5.17 KCAL/MOL
REMARK 922        TOTAL FREE ENERGY PREDICTED BY IDOCK:   -7.63 KCAL/MOL
REMARK 923 INTER-LIGAND FREE ENERGY PREDICTED BY IDOCK:   -6.95 KCAL/MOL
REMARK 924 INTRA-LIGAND FREE ENERGY PREDICTED BY IDOCK:   -0.69 KCAL/MOL
REMARK 927      BINDING AFFINITY PREDICTED BY RF-SCORE:    0.00 PKD
ROOT
HETATM    1  C   UNL     1     -11.717  15.967  71.552  1.00  0.00    -0.475 C  
HETATM    2  N   UNL     1     -12.357  14.648  71.537  1.00  0.00    -0.335 NA 
HETATM    3  C   UNL     1     -13.770  14.787  71.904  1.00  0.00    -0.419 C  
ENDROOT
BRANCH   2   4
HETATM    4  C   UNL     1     -12.175  14.020  70.211  1.00  0.00    -0.361 C  
BRANCH   4   5
HETATM    5  C   UNL     1     -11.723  15.000  69.120  1.00  0.00    -0.319 C  
BRANCH   5   6
HETATM    6  O   UNL     1     -11.017  14.310  68.076  1.00  0.00    -0.241 OA 
BRANCH   6   7
HETATM    7  C   UNL     1     -11.237  14.919  66.777  1.00  0.00    -0.338 C  
BRANCH   7   8
HETATM    8  C   UNL     1     -10.152  15.963  66.515  1.00  0.00    -0.293 A  
HETATM    9  C   UNL     1     -10.513  17.314  66.368  1.00  0.00    -0.263 A  
HETATM   10  C   UNL     1      -8.789  15.632  66.603  1.00  0.00    -0.327 A  
HETATM   11 CL   UNL     1      -7.001  19.204  66.597  1.00  0.00    -0.209 Cl 
HETATM   12  C   UNL     1      -9.538  18.313  66.377  1.00  0.00    -0.307 A  
HETATM   13  C   UNL     1      -7.815  16.631  66.597  1.00  0.00    -0.316 A  
HETATM   14  C   UNL     1      -8.195  17.968  66.505  1.00  0.00    -0.271 A  
ENDBRANCH   7   8
BRANCH   7  15
HETATM   15  C   UNL     1     -11.336  13.860  65.677  1.00  0.00    -0.309 A  
HETATM   16  C   UNL     1     -10.846  11.705  64.963  1.00  0.00    -0.288 A  
HETATM   17  C   UNL     1     -12.139  13.098  63.539  1.00  0.00    -0.585 A  
HETATM   18  C   UNL     1     -12.038  14.107  64.494  1.00  0.00    -0.489 A  
HETATM   19  N   UNL     1     -10.737  12.660  65.916  1.00  0.00    -0.262 NA 
HETATM   20  C   UNL     1     -11.535  11.872  63.775  1.00  0.00    -0.542 A  
ENDBRANCH   7  15
ENDBRANCH   6   7
ENDBRANCH   5   6
ENDBRANCH   4   5
ENDBRANCH   2   4
TORSDOF 6
ENDMDL
MODEL       35
REMARK 921   NORMALIZED FREE ENERGY PREDICTED BY IDOCK:   -5.16 KCAL/MOL
REMARK 922        TOTAL FREE ENERGY PREDICTED BY IDOCK:   -7.62 KCAL/MOL
REMARK 923 INTER-LIGAND FREE ENERGY PREDICTED BY IDOCK:   -6.99 KCAL/MOL
REMARK 924 INTRA-LIGAND FREE ENERGY PREDICTED BY IDOCK:   -0.64 KCAL/MOL
REMARK 927      BINDING AFFINITY PREDICTED BY RF-SCORE:    0.00 PKD
ROOT
HETATM    1  C   UNL     1     -13.142   9.847  71.582  1.00  0.00    -0.437 C  
HETATM    2  N   UNL     1     -11.684   9.723  71.666  1.00  0.00    -0.373 NA 
HETATM    3  C   UNL     1     -11.340   8.448  72.304  1.00  0.00    -0.378 C  
ENDROOT
BRANCH   2   4
HETATM    4  C   UNL     1     -11.092   9.859  70.319  1.00  0.00    -0.308 C  
BRANCH   4   5
HETATM    5  C   UNL     1     -11.844  10.841  69.410  1.00  0.00    -0.298 C  
BRANCH   5   6
HETATM    6  O   UNL     1     -10.944  11.473  68.486  1.00  0.00    -0.194 OA 
BRANCH   6   7
HETATM    7  C   UNL     1     -11.597  12.519  67.721  1.00  0.00    -0.343 C  
BRANCH   7   8
HETATM    8  C   UNL     1     -11.081  13.882  68.182  1.00  0.00    -0.278 A  
HETATM    9  C   UNL     1      -9.892  14.394  67.632  1.00  0.00    -0.224 A  
HETATM   10  C   UNL     1     -11.861  14.715  69.003  1.00  0.00    -0.346 A  
HETATM   11 CL   UNL     1      -9.932  18.208  68.820  1.00  0.00    -0.387 Cl 
HETATM   12  C   UNL     1      -9.530  15.726  67.843  1.00  0.00    -0.212 A  
HETATM   13  C   UNL     1     -11.489  16.041  69.224  1.00  0.00    -0.350 A  
HETATM   14  C   UNL     1     -10.337  16.546  68.626  1.00  0.00    -0.287 A  
ENDBRANCH   7   8
BRANCH   7  15
HETATM   15  C   UNL     1     -11.437  12.289  66.216  1.00  0.00    -0.380 A  
HETATM   16  C   UNL     1     -10.243  11.299  64.488  1.00  0.00    -0.314 A  
HETATM   17  C   UNL     1     -12.197  12.534  63.945  1.00  0.00    -0.590 A  
HETATM   18  C   UNL     1     -12.359  12.806  65.303  1.00  0.00    -0.546 A  
HETATM   19  N   UNL     1     -10.376  11.536  65.814  1.00  0.00    -0.240 NA 
HETATM   20  C   UNL     1     -11.122  11.765  63.527  1.00  0.00    -0.503 A  
ENDBRANCH   7  15
ENDBRANCH   6   7
ENDBRANCH   5   6
ENDBRANCH   4   5
ENDBRANCH   2   4
TORSDOF 6
ENDMDL
MODEL       36
REMARK 921   NORMALIZED FREE ENERGY PREDICTED BY IDOCK:   -5.15 KCAL/MOL
REMARK 922        TOTAL FREE ENERGY PREDICTED BY IDOCK:   -7.60 KCAL/MOL
REMARK 923 INTER-LIGAND FREE ENERGY PREDICTED BY IDOCK:   -6.98 KCAL/MOL
REMARK 924 INTRA-LIGAND FREE ENERGY PREDICTED BY IDOCK:   -0.62 KCAL/MOL
REMARK 927      BINDING AFFINITY PREDICTED BY RF-SCORE:    0.00 PKD
ROOT
HETATM    1  C   UNL     1     -10.128  11.767  63.417  1.00  0.00    -0.446 C  
HETATM    2  N   UNL     1     -11.090  12.871  63.469  1.00  0.00    -0.337 NA 
HETATM    3  C   UNL     1     -12.450  12.328  63.554  1.00  0.00    -0.534 C  
ENDROOT
BRANCH   2   4
HETATM    4  C   UNL     1     -10.766  13.763  64.601  1.00  0.00    -0.414 C  
BRANCH   4   5
HETATM    5  C   UNL     1     -11.999  14.272  65.360  1.00  0.00    -0.383 C  
BRANCH   5   6
HETATM    6  O   UNL     1     -12.212  13.507  66.558  1.00  0.00    -0.407 OA 
BRANCH   6   7
HETATM    7  C   UNL     1     -11.081  13.592  67.465  1.00  0.00    -0.274 C  
BRANCH   7   8
HETATM    8  C   UNL     1     -11.499  14.343  68.728  1.00  0.00    -0.319 A  
HETATM    9  C   UNL     1     -12.147  13.646  69.764  1.00  0.00    -0.396 A  
HETATM   10  C   UNL     1     -11.087  15.667  68.957  1.00  0.00    -0.279 A  
HETATM   11 CL   UNL     1     -12.004  16.236  72.803  1.00  0.00    -0.637 Cl 
HETATM   12  C   UNL     1     -12.317  14.238  71.018  1.00  0.00    -0.431 A  
HETATM   13  C   UNL     1     -11.271  16.261  70.205  1.00  0.00    -0.343 A  
HETATM   14  C   UNL     1     -11.866  15.537  71.236  1.00  0.00    -0.399 A  
ENDBRANCH   7   8
BRANCH   7  15
HETATM   15  C   UNL     1     -10.493  12.208  67.750  1.00  0.00    -0.205 A  
HETATM   16  C   UNL     1      -8.742  10.947  68.608  1.00  0.00    -0.154 A  
HETATM   17  C   UNL     1     -10.653   9.806  67.779  1.00  0.00    -0.320 A  
HETATM   18  C   UNL     1     -11.210  11.043  67.462  1.00  0.00    -0.372 A  
HETATM   19  N   UNL     1      -9.258  12.165  68.322  1.00  0.00    -0.198 NA 
HETATM   20  C   UNL     1      -9.397   9.753  68.365  1.00  0.00    -0.135 A  
ENDBRANCH   7  15
ENDBRANCH   6   7
ENDBRANCH   5   6
ENDBRANCH   4   5
ENDBRANCH   2   4
TORSDOF 6
ENDMDL
MODEL       37
REMARK 921   NORMALIZED FREE ENERGY PREDICTED BY IDOCK:   -5.12 KCAL/MOL
REMARK 922        TOTAL FREE ENERGY PREDICTED BY IDOCK:   -7.57 KCAL/MOL
REMARK 923 INTER-LIGAND FREE ENERGY PREDICTED BY IDOCK:   -6.75 KCAL/MOL
REMARK 924 INTRA-LIGAND FREE ENERGY PREDICTED BY IDOCK:   -0.82 KCAL/MOL
REMARK 927      BINDING AFFINITY PREDICTED BY RF-SCORE:    0.00 PKD
ROOT
HETATM    1  C   UNL     1      -9.252  12.386  66.967  1.00  0.00    -0.208 C  
HETATM    2  N   UNL     1      -9.963  11.303  67.654  1.00  0.00    -0.177 NA 
HETATM    3  C   UNL     1      -9.091  10.720  68.678  1.00  0.00    -0.173 C  
ENDROOT
BRANCH   2   4
HETATM    4  C   UNL     1     -11.231  11.816  68.214  1.00  0.00    -0.255 C  
BRANCH   4   5
HETATM    5  C   UNL     1     -11.669  13.162  67.622  1.00  0.00    -0.369 C  
BRANCH   5   6
HETATM    6  O   UNL     1     -12.325  13.966  68.615  1.00  0.00    -0.278 OA 
BRANCH   6   7
HETATM    7  C   UNL     1     -11.403  14.429  69.637  1.00  0.00    -0.263 C  
BRANCH   7   8
HETATM    8  C   UNL     1     -10.473  15.484  69.040  1.00  0.00    -0.231 A  
HETATM    9  C   UNL     1     -11.023  16.636  68.450  1.00  0.00    -0.345 A  
HETATM   10  C   UNL     1      -9.082  15.419  69.231  1.00  0.00    -0.260 A  
HETATM   11 CL   UNL     1      -7.846  19.022  68.029  1.00  0.00    -0.306 Cl 
HETATM   12  C   UNL     1     -10.208  17.722  68.123  1.00  0.00    -0.383 A  
HETATM   13  C   UNL     1      -8.268  16.500  68.890  1.00  0.00    -0.241 A  
HETATM   14  C   UNL     1      -8.837  17.654  68.357  1.00  0.00    -0.281 A  
ENDBRANCH   7   8
BRANCH   7  15
HETATM   15  C   UNL     1     -12.151  14.914  70.881  1.00  0.00    -0.317 A  
HETATM   16  C   UNL     1     -12.070  16.001  72.932  1.00  0.00    -0.520 A  
HETATM   17  C   UNL     1     -14.177  15.248  72.137  1.00  0.00    -0.667 A  
HETATM   18  C   UNL     1     -13.532  14.750  71.006  1.00  0.00    -0.401 A  
HETATM   19  N   UNL     1     -11.414  15.538  71.842  1.00  0.00    -0.423 NA 
HETATM   20  C   UNL     1     -13.436  15.887  73.118  1.00  0.00    -0.650 A  
ENDBRANCH   7  15
ENDBRANCH   6   7
ENDBRANCH   5   6
ENDBRANCH   4   5
ENDBRANCH   2   4
TORSDOF 6
ENDMDL
MODEL       38
REMARK 921   NORMALIZED FREE ENERGY PREDICTED BY IDOCK:   -5.11 KCAL/MOL
REMARK 922        TOTAL FREE ENERGY PREDICTED BY IDOCK:   -7.55 KCAL/MOL
REMARK 923 INTER-LIGAND FREE ENERGY PREDICTED BY IDOCK:   -6.83 KCAL/MOL
REMARK 924 INTRA-LIGAND FREE ENERGY PREDICTED BY IDOCK:   -0.73 KCAL/MOL
REMARK 927      BINDING AFFINITY PREDICTED BY RF-SCORE:    0.00 PKD
ROOT
HETATM    1  C   UNL     1     -11.419   8.886  70.888  1.00  0.00    -0.288 C  
HETATM    2  N   UNL     1     -10.440   9.696  70.157  1.00  0.00    -0.252 NA 
HETATM    3  C   UNL     1      -9.103   9.119  70.332  1.00  0.00    -0.233 C  
ENDROOT
BRANCH   2   4
HETATM    4  C   UNL     1     -10.834   9.793  68.736  1.00  0.00    -0.188 C  
BRANCH   4   5
HETATM    5  C   UNL     1      -9.974  10.769  67.922  1.00  0.00    -0.174 C  
BRANCH   5   6
HETATM    6  O   UNL     1     -10.026  12.088  68.487  1.00  0.00    -0.209 OA 
BRANCH   6   7
HETATM    7  C   UNL     1     -11.291  12.747  68.215  1.00  0.00    -0.296 C  
BRANCH   7   8
HETATM    8  C   UNL     1     -11.765  13.473  69.473  1.00  0.00    -0.382 A  
HETATM    9  C   UNL     1     -11.761  14.879  69.503  1.00  0.00    -0.353 A  
HETATM   10  C   UNL     1     -12.379  12.775  70.528  1.00  0.00    -0.355 A  
HETATM   11 CL   UNL     1     -13.920  15.706  72.761  1.00  0.00    -0.623 Cl 
HETATM   12  C   UNL     1     -12.413  15.568  70.528  1.00  0.00    -0.472 A  
HETATM   13  C   UNL     1     -13.017  13.466  71.558  1.00  0.00    -0.429 A  
HETATM   14  C   UNL     1     -13.050  14.858  71.543  1.00  0.00    -0.356 A  
ENDBRANCH   7   8
BRANCH   7  15
HETATM   15  C   UNL     1     -11.189  13.660  66.991  1.00  0.00    -0.312 A  
HETATM   16  C   UNL     1      -9.909  15.124  65.723  1.00  0.00    -0.351 A  
HETATM   17  C   UNL     1     -12.087  14.574  64.953  1.00  0.00    -0.421 A  
HETATM   18  C   UNL     1     -12.240  13.764  66.077  1.00  0.00    -0.495 A  
HETATM   19  N   UNL     1     -10.021  14.339  66.819  1.00  0.00    -0.258 NA 
HETATM   20  C   UNL     1     -10.900  15.266  64.768  1.00  0.00    -0.379 A  
ENDBRANCH   7  15
ENDBRANCH   6   7
ENDBRANCH   5   6
ENDBRANCH   4   5
ENDBRANCH   2   4
TORSDOF 6
ENDMDL
MODEL       39
REMARK 921   NORMALIZED FREE ENERGY PREDICTED BY IDOCK:   -5.11 KCAL/MOL
REMARK 922        TOTAL FREE ENERGY PREDICTED BY IDOCK:   -7.55 KCAL/MOL
REMARK 923 INTER-LIGAND FREE ENERGY PREDICTED BY IDOCK:   -6.89 KCAL/MOL
REMARK 924 INTRA-LIGAND FREE ENERGY PREDICTED BY IDOCK:   -0.66 KCAL/MOL
REMARK 927      BINDING AFFINITY PREDICTED BY RF-SCORE:    0.00 PKD
ROOT
HETATM    1  C   UNL     1     -10.240  18.982  66.215  1.00  0.00    -0.446 C  
HETATM    2  N   UNL     1      -9.890  18.173  67.386  1.00  0.00    -0.302 NA 
HETATM    3  C   UNL     1      -9.955  19.006  68.591  1.00  0.00    -0.418 C  
ENDROOT
BRANCH   2   4
HETATM    4  C   UNL     1     -10.780  16.995  67.463  1.00  0.00    -0.266 C  
BRANCH   4   5
HETATM    5  C   UNL     1     -10.051  15.657  67.287  1.00  0.00    -0.255 C  
BRANCH   5   6
HETATM    6  O   UNL     1     -10.863  14.568  67.754  1.00  0.00    -0.256 OA 
BRANCH   6   7
HETATM    7  C   UNL     1     -10.304  13.278  67.391  1.00  0.00    -0.243 C  
BRANCH   7   8
HETATM    8  C   UNL     1     -10.557  12.280  68.520  1.00  0.00    -0.254 A  
HETATM    9  C   UNL     1     -11.720  12.401  69.303  1.00  0.00    -0.386 A  
HETATM   10  C   UNL     1      -9.753  11.137  68.674  1.00  0.00    -0.202 A  
HETATM   11 CL   UNL     1     -11.826   8.932  71.281  1.00  0.00    -0.351 Cl 
HETATM   12  C   UNL     1     -12.102  11.373  70.167  1.00  0.00    -0.439 A  
HETATM   13  C   UNL     1     -10.130  10.119  69.550  1.00  0.00    -0.258 A  
HETATM   14  C   UNL     1     -11.313  10.232  70.276  1.00  0.00    -0.323 A  
ENDBRANCH   7   8
BRANCH   7  15
HETATM   15  C   UNL     1     -10.833  12.806  66.035  1.00  0.00    -0.276 A  
HETATM   16  C   UNL     1     -10.413  11.733  64.019  1.00  0.00    -0.368 A  
HETATM   17  C   UNL     1     -12.620  12.495  64.452  1.00  0.00    -0.497 A  
HETATM   18  C   UNL     1     -12.173  12.980  65.680  1.00  0.00    -0.521 A  
HETATM   19  N   UNL     1      -9.948  12.184  65.207  1.00  0.00    -0.253 NA 
HETATM   20  C   UNL     1     -11.727  11.857  63.605  1.00  0.00    -0.572 A  
ENDBRANCH   7  15
ENDBRANCH   6   7
ENDBRANCH   5   6
ENDBRANCH   4   5
ENDBRANCH   2   4
TORSDOF 6
ENDMDL
MODEL       40
REMARK 921   NORMALIZED FREE ENERGY PREDICTED BY IDOCK:   -5.10 KCAL/MOL
REMARK 922        TOTAL FREE ENERGY PREDICTED BY IDOCK:   -7.54 KCAL/MOL
REMARK 923 INTER-LIGAND FREE ENERGY PREDICTED BY IDOCK:   -7.04 KCAL/MOL
REMARK 924 INTRA-LIGAND FREE ENERGY PREDICTED BY IDOCK:   -0.50 KCAL/MOL
REMARK 927      BINDING AFFINITY PREDICTED BY RF-SCORE:    0.00 PKD
ROOT
HETATM    1  C   UNL     1      -9.563   7.705  70.095  1.00  0.00    -0.168 C  
HETATM    2  N   UNL     1     -10.898   8.265  70.328  1.00  0.00    -0.240 NA 
HETATM    3  C   UNL     1     -11.610   7.436  71.306  1.00  0.00    -0.280 C  
ENDROOT
BRANCH   2   4
HETATM    4  C   UNL     1     -10.780   9.674  70.759  1.00  0.00    -0.331 C  
BRANCH   4   5
HETATM    5  C   UNL     1     -12.086  10.261  71.313  1.00  0.00    -0.382 C  
BRANCH   5   6
HETATM    6  O   UNL     1     -12.674  11.173  70.372  1.00  0.00    -0.250 OA 
BRANCH   6   7
HETATM    7  C   UNL     1     -11.876  12.375  70.209  1.00  0.00    -0.232 C  
BRANCH   7   8
HETATM    8  C   UNL     1     -11.729  12.688  68.721  1.00  0.00    -0.364 A  
HETATM    9  C   UNL     1     -11.391  11.656  67.827  1.00  0.00    -0.356 A  
HETATM   10  C   UNL     1     -12.103  13.939  68.200  1.00  0.00    -0.317 A  
HETATM   11 CL   UNL     1     -12.103  13.301  64.257  1.00  0.00    -0.457 Cl 
HETATM   12  C   UNL     1     -11.491  11.851  66.448  1.00  0.00    -0.371 A  
HETATM   13  C   UNL     1     -12.189  14.136  66.822  1.00  0.00    -0.429 A  
HETATM   14  C   UNL     1     -11.903  13.086  65.953  1.00  0.00    -0.416 A  
ENDBRANCH   7   8
BRANCH   7  15
HETATM   15  C   UNL     1     -12.454  13.539  71.018  1.00  0.00    -0.369 A  
HETATM   16  C   UNL     1     -12.138  15.642  71.951  1.00  0.00    -0.432 A  
HETATM   17  C   UNL     1     -14.278  14.630  72.151  1.00  0.00    -0.608 A  
HETATM   18  C   UNL     1     -13.781  13.528  71.455  1.00  0.00    -0.172 A  
HETATM   19  N   UNL     1     -11.628  14.593  71.265  1.00  0.00    -0.263 NA 
HETATM   20  C   UNL     1     -13.444  15.709  72.403  1.00  0.00    -0.604 A  
ENDBRANCH   7  15
ENDBRANCH   6   7
ENDBRANCH   5   6
ENDBRANCH   4   5
ENDBRANCH   2   4
TORSDOF 6
ENDMDL
MODEL       41
REMARK 921   NORMALIZED FREE ENERGY PREDICTED BY IDOCK:   -5.09 KCAL/MOL
REMARK 922        TOTAL FREE ENERGY PREDICTED BY IDOCK:   -7.53 KCAL/MOL
REMARK 923 INTER-LIGAND FREE ENERGY PREDICTED BY IDOCK:   -6.88 KCAL/MOL
REMARK 924 INTRA-LIGAND FREE ENERGY PREDICTED BY IDOCK:   -0.65 KCAL/MOL
REMARK 927      BINDING AFFINITY PREDICTED BY RF-SCORE:    0.00 PKD
ROOT
HETATM    1  C   UNL     1      -8.186  15.935  68.218  1.00  0.00    -0.152 C  
HETATM    2  N   UNL     1      -9.039  17.081  68.548  1.00  0.00    -0.253 NA 
HETATM    3  C   UNL     1      -8.275  18.321  68.382  1.00  0.00    -0.311 C  
ENDROOT
BRANCH   2   4
HETATM    4  C   UNL     1     -10.259  17.051  67.715  1.00  0.00    -0.312 C  
BRANCH   4   5
HETATM    5  C   UNL     1     -10.325  15.853  66.758  1.00  0.00    -0.298 C  
BRANCH   5   6
HETATM    6  O   UNL     1     -11.405  14.975  67.113  1.00  0.00    -0.338 OA 
BRANCH   6   7
HETATM    7  C   UNL     1     -11.008  13.580  67.071  1.00  0.00    -0.288 C  
BRANCH   7   8
HETATM    8  C   UNL     1     -11.634  12.838  68.252  1.00  0.00    -0.375 A  
HETATM    9  C   UNL     1     -11.725  11.435  68.218  1.00  0.00    -0.359 A  
HETATM   10  C   UNL     1     -11.951  13.509  69.446  1.00  0.00    -0.383 A  
HETATM   11 CL   UNL     1     -12.662  10.512  71.990  1.00  0.00    -0.421 Cl 
HETATM   12  C   UNL     1     -12.059  10.718  69.369  1.00  0.00    -0.315 A  
HETATM   13  C   UNL     1     -12.298  12.791  70.591  1.00  0.00    -0.381 A  
HETATM   14  C   UNL     1     -12.329  11.399  70.553  1.00  0.00    -0.349 A  
ENDBRANCH   7   8
BRANCH   7  15
HETATM   15  C   UNL     1     -11.338  12.949  65.716  1.00  0.00    -0.315 A  
HETATM   16  C   UNL     1     -12.954  12.358  64.157  1.00  0.00    -0.163 A  
HETATM   17  C   UNL     1     -10.674  11.962  63.623  1.00  0.00    -0.502 A  
HETATM   18  C   UNL     1     -10.329  12.489  64.867  1.00  0.00    -0.323 A  
HETATM   19  N   UNL     1     -12.653  12.884  65.367  1.00  0.00    -0.597 NA 
HETATM   20  C   UNL     1     -12.010  11.896  63.258  1.00  0.00    -0.441 A  
ENDBRANCH   7  15
ENDBRANCH   6   7
ENDBRANCH   5   6
ENDBRANCH   4   5
ENDBRANCH   2   4
TORSDOF 6
ENDMDL
MODEL       42
REMARK 921   NORMALIZED FREE ENERGY PREDICTED BY IDOCK:   -5.05 KCAL/MOL
REMARK 922        TOTAL FREE ENERGY PREDICTED BY IDOCK:   -7.48 KCAL/MOL
REMARK 923 INTER-LIGAND FREE ENERGY PREDICTED BY IDOCK:   -6.63 KCAL/MOL
REMARK 924 INTRA-LIGAND FREE ENERGY PREDICTED BY IDOCK:   -0.84 KCAL/MOL
REMARK 927      BINDING AFFINITY PREDICTED BY RF-SCORE:    0.00 PKD
ROOT
HETATM    1  C   UNL     1     -10.036  10.186  65.838  1.00  0.00    -0.267 C  
HETATM    2  N   UNL     1     -10.271   9.354  67.021  1.00  0.00    -0.240 NA 
HETATM    3  C   UNL     1      -8.993   8.817  67.501  1.00  0.00    -0.134 C  
ENDROOT
BRANCH   2   4
HETATM    4  C   UNL     1     -10.978  10.141  68.053  1.00  0.00    -0.270 C  
BRANCH   4   5
HETATM    5  C   UNL     1     -10.039  10.893  69.007  1.00  0.00    -0.196 C  
BRANCH   5   6
HETATM    6  O   UNL     1     -10.041  12.300  68.719  1.00  0.00    -0.175 OA 
BRANCH   6   7
HETATM    7  C   UNL     1     -11.361  12.777  68.348  1.00  0.00    -0.295 C  
BRANCH   7   8
HETATM    8  C   UNL     1     -11.941  13.609  69.491  1.00  0.00    -0.397 A  
HETATM    9  C   UNL     1     -12.526  12.959  70.592  1.00  0.00    -0.333 A  
HETATM   10  C   UNL     1     -11.737  14.998  69.555  1.00  0.00    -0.350 A  
HETATM   11 CL   UNL     1     -12.897  15.901  73.269  1.00  0.00    -0.605 Cl 
HETATM   12  C   UNL     1     -12.836  13.670  71.753  1.00  0.00    -0.407 A  
HETATM   13  C   UNL     1     -12.061  15.710  70.710  1.00  0.00    -0.454 A  
HETATM   14  C   UNL     1     -12.589  15.039  71.812  1.00  0.00    -0.341 A  
ENDBRANCH   7   8
BRANCH   7  15
HETATM   15  C   UNL     1     -11.326  13.524  67.013  1.00  0.00    -0.324 A  
HETATM   16  C   UNL     1     -10.074  14.656  65.418  1.00  0.00    -0.372 A  
HETATM   17  C   UNL     1     -12.386  14.311  64.999  1.00  0.00    -0.434 A  
HETATM   18  C   UNL     1     -12.475  13.661  66.229  1.00  0.00    -0.420 A  
HETATM   19  N   UNL     1     -10.123  14.022  66.612  1.00  0.00    -0.270 NA 
HETATM   20  C   UNL     1     -11.165  14.818  64.582  1.00  0.00    -0.350 A  
ENDBRANCH   7  15
ENDBRANCH   6   7
ENDBRANCH   5   6
ENDBRANCH   4   5
ENDBRANCH   2   4
TORSDOF 6
ENDMDL
MODEL       43
REMARK 921   NORMALIZED FREE ENERGY PREDICTED BY IDOCK:   -5.05 KCAL/MOL
REMARK 922        TOTAL FREE ENERGY PREDICTED BY IDOCK:   -7.47 KCAL/MOL
REMARK 923 INTER-LIGAND FREE ENERGY PREDICTED BY IDOCK:   -6.52 KCAL/MOL
REMARK 924 INTRA-LIGAND FREE ENERGY PREDICTED BY IDOCK:   -0.95 KCAL/MOL
REMARK 927      BINDING AFFINITY PREDICTED BY RF-SCORE:    0.00 PKD
ROOT
HETATM    1  C   UNL     1      -9.796  19.656  68.686  1.00  0.00    -0.427 C  
HETATM    2  N   UNL     1      -8.972  20.229  67.618  1.00  0.00    -0.319 NA 
HETATM    3  C   UNL     1      -7.563  19.901  67.861  1.00  0.00    -0.301 C  
ENDROOT
BRANCH   2   4
HETATM    4  C   UNL     1      -9.448  19.744  66.305  1.00  0.00    -0.406 C  
BRANCH   4   5
HETATM    5  C   UNL     1     -10.613  18.750  66.399  1.00  0.00    -0.368 C  
BRANCH   5   6
HETATM    6  O   UNL     1     -10.248  17.481  65.834  1.00  0.00    -0.509 OA 
BRANCH   6   7
HETATM    7  C   UNL     1     -10.317  16.410  66.813  1.00  0.00    -0.293 C  
BRANCH   7   8
HETATM    8  C   UNL     1     -10.818  15.136  66.135  1.00  0.00    -0.330 A  
HETATM    9  C   UNL     1     -12.012  14.539  66.581  1.00  0.00    -0.358 A  
HETATM   10  C   UNL     1     -10.216  14.651  64.961  1.00  0.00    -0.395 A  
HETATM   11 CL   UNL     1     -12.823  11.905  63.689  1.00  0.00    -0.552 Cl 
HETATM   12  C   UNL     1     -12.622  13.530  65.833  1.00  0.00    -0.454 A  
HETATM   13  C   UNL     1     -10.820  13.633  64.223  1.00  0.00    -0.297 A  
HETATM   14  C   UNL     1     -12.030  13.091  64.651  1.00  0.00    -0.392 A  
ENDBRANCH   7   8
BRANCH   7  15
HETATM   15  C   UNL     1      -8.978  16.228  67.531  1.00  0.00    -0.187 A  
HETATM   16  C   UNL     1      -6.659  16.301  67.430  1.00  0.00    -0.179 A  
HETATM   17  C   UNL     1      -7.681  15.787  69.511  1.00  0.00    -0.166 A  
HETATM   18  C   UNL     1      -8.923  15.900  68.888  1.00  0.00    -0.228 A  
HETATM   19  N   UNL     1      -7.848  16.428  66.797  1.00  0.00    -0.237 NA 
HETATM   20  C   UNL     1      -6.526  15.992  68.772  1.00  0.00    -0.119 A  
ENDBRANCH   7  15
ENDBRANCH   6   7
ENDBRANCH   5   6
ENDBRANCH   4   5
ENDBRANCH   2   4
TORSDOF 6
ENDMDL
MODEL       44
REMARK 921   NORMALIZED FREE ENERGY PREDICTED BY IDOCK:   -4.96 KCAL/MOL
REMARK 922        TOTAL FREE ENERGY PREDICTED BY IDOCK:   -7.35 KCAL/MOL
REMARK 923 INTER-LIGAND FREE ENERGY PREDICTED BY IDOCK:   -6.81 KCAL/MOL
REMARK 924 INTRA-LIGAND FREE ENERGY PREDICTED BY IDOCK:   -0.54 KCAL/MOL
REMARK 927      BINDING AFFINITY PREDICTED BY RF-SCORE:    0.00 PKD
ROOT
HETATM    1  C   UNL     1     -12.251  12.269  63.484  1.00  0.00    -0.568 C  
HETATM    2  N   UNL     1     -10.956  12.018  64.124  1.00  0.00    -0.329 NA 
HETATM    3  C   UNL     1     -10.007  11.518  63.123  1.00  0.00    -0.377 C  
ENDROOT
BRANCH   2   4
HETATM    4  C   UNL     1     -10.481  13.249  64.790  1.00  0.00    -0.384 C  
BRANCH   4   5
HETATM    5  C   UNL     1     -11.319  14.492  64.460  1.00  0.00    -0.316 C  
BRANCH   5   6
HETATM    6  O   UNL     1     -11.709  15.176  65.662  1.00  0.00    -0.203 OA 
BRANCH   6   7
HETATM    7  C   UNL     1     -10.622  15.252  66.621  1.00  0.00    -0.304 C  
BRANCH   7   8
HETATM    8  C   UNL     1      -9.813  16.524  66.372  1.00  0.00    -0.311 A  
HETATM    9  C   UNL     1     -10.465  17.770  66.373  1.00  0.00    -0.297 A  
HETATM   10  C   UNL     1      -8.409  16.494  66.325  1.00  0.00    -0.364 A  
HETATM   11 CL   UNL     1      -7.428  20.363  66.500  1.00  0.00    -0.292 Cl 
HETATM   12  C   UNL     1      -9.727  18.956  66.397  1.00  0.00    -0.395 A  
HETATM   13  C   UNL     1      -7.674  17.681  66.333  1.00  0.00    -0.325 A  
HETATM   14  C   UNL     1      -8.336  18.905  66.391  1.00  0.00    -0.296 A  
ENDBRANCH   7   8
BRANCH   7  15
HETATM   15  C   UNL     1     -11.141  15.136  68.057  1.00  0.00    -0.308 A  
HETATM   16  C   UNL     1     -12.260  13.877  69.654  1.00  0.00    -0.321 A  
HETATM   17  C   UNL     1     -11.345  15.969  70.306  1.00  0.00    -0.391 A  
HETATM   18  C   UNL     1     -10.892  16.137  68.999  1.00  0.00    -0.299 A  
HETATM   19  N   UNL     1     -11.826  14.004  68.379  1.00  0.00    -0.351 NA 
HETATM   20  C   UNL     1     -12.041  14.818  70.644  1.00  0.00    -0.374 A  
ENDBRANCH   7  15
ENDBRANCH   6   7
ENDBRANCH   5   6
ENDBRANCH   4   5
ENDBRANCH   2   4
TORSDOF 6
ENDMDL
MODEL       45
REMARK 921   NORMALIZED FREE ENERGY PREDICTED BY IDOCK:   -4.95 KCAL/MOL
REMARK 922        TOTAL FREE ENERGY PREDICTED BY IDOCK:   -7.34 KCAL/MOL
REMARK 923 INTER-LIGAND FREE ENERGY PREDICTED BY IDOCK:   -6.31 KCAL/MOL
REMARK 924 INTRA-LIGAND FREE ENERGY PREDICTED BY IDOCK:   -1.04 KCAL/MOL
REMARK 927      BINDING AFFINITY PREDICTED BY RF-SCORE:    0.00 PKD
ROOT
HETATM    1  C   UNL     1     -12.710  11.998  63.246  1.00  0.00    -0.303 C  
HETATM    2  N   UNL     1     -11.662  12.398  64.189  1.00  0.00    -0.369 NA 
HETATM    3  C   UNL     1     -10.348  12.086  63.617  1.00  0.00    -0.450 C  
ENDROOT
BRANCH   2   4
HETATM    4  C   UNL     1     -11.809  13.830  64.522  1.00  0.00    -0.417 C  
BRANCH   4   5
HETATM    5  C   UNL     1     -12.718  14.093  65.730  1.00  0.00    -0.413 C  
BRANCH   5   6
HETATM    6  O   UNL     1     -11.943  14.476  66.878  1.00  0.00    -0.403 OA 
BRANCH   6   7
HETATM    7  C   UNL     1     -11.940  13.444  67.900  1.00  0.00    -0.323 C  
BRANCH   7   8
HETATM    8  C   UNL     1     -10.751  12.512  67.676  1.00  0.00    -0.242 A  
HETATM    9  C   UNL     1     -10.966  11.125  67.585  1.00  0.00    -0.323 A  
HETATM   10  C   UNL     1      -9.475  13.020  67.374  1.00  0.00    -0.210 A  
HETATM   11 CL   UNL     1      -7.480   9.773  66.179  1.00  0.00    -0.099 Cl 
HETATM   12  C   UNL     1      -9.950  10.278  67.138  1.00  0.00    -0.243 A  
HETATM   13  C   UNL     1      -8.457  12.170  66.941  1.00  0.00    -0.173 A  
HETATM   14  C   UNL     1      -8.706  10.806  66.805  1.00  0.00    -0.143 A  
ENDBRANCH   7   8
BRANCH   7  15
HETATM   15  C   UNL     1     -11.976  14.053  69.303  1.00  0.00    -0.353 A  
HETATM   16  C   UNL     1     -11.675  15.920  70.652  1.00  0.00    -0.384 A  
HETATM   17  C   UNL     1     -12.449  13.913  71.660  1.00  0.00    -0.337 A  
HETATM   18  C   UNL     1     -12.390  13.304  70.407  1.00  0.00    -0.365 A  
HETATM   19  N   UNL     1     -11.616  15.362  69.421  1.00  0.00    -0.317 NA 
HETATM   20  C   UNL     1     -12.088  15.246  71.788  1.00  0.00    -0.439 A  
ENDBRANCH   7  15
ENDBRANCH   6   7
ENDBRANCH   5   6
ENDBRANCH   4   5
ENDBRANCH   2   4
TORSDOF 6
ENDMDL
MODEL       46
REMARK 921   NORMALIZED FREE ENERGY PREDICTED BY IDOCK:   -4.95 KCAL/MOL
REMARK 922        TOTAL FREE ENERGY PREDICTED BY IDOCK:   -7.34 KCAL/MOL
REMARK 923 INTER-LIGAND FREE ENERGY PREDICTED BY IDOCK:   -6.53 KCAL/MOL
REMARK 924 INTRA-LIGAND FREE ENERGY PREDICTED BY IDOCK:   -0.81 KCAL/MOL
REMARK 927      BINDING AFFINITY PREDICTED BY RF-SCORE:    0.00 PKD
ROOT
HETATM    1  C   UNL     1     -10.464  11.046  64.901  1.00  0.00    -0.303 C  
HETATM    2  N   UNL     1     -10.582  11.553  66.272  1.00  0.00    -0.255 NA 
HETATM    3  C   UNL     1     -11.423  12.754  66.276  1.00  0.00    -0.354 C  
ENDROOT
BRANCH   2   4
HETATM    4  C   UNL     1     -11.107  10.491  67.154  1.00  0.00    -0.160 C  
BRANCH   4   5
HETATM    5  C   UNL     1     -10.081   9.964  68.166  1.00  0.00    -0.165 C  
BRANCH   5   6
HETATM    6  O   UNL     1     -10.244  10.607  69.440  1.00  0.00    -0.220 OA 
BRANCH   6   7
HETATM    7  C   UNL     1     -11.581  10.419  69.976  1.00  0.00    -0.301 C  
BRANCH   7   8
HETATM    8  C   UNL     1     -11.571   9.254  70.964  1.00  0.00    -0.380 A  
HETATM    9  C   UNL     1     -12.645   8.345  70.972  1.00  0.00    -0.058 A  
HETATM   10  C   UNL     1     -10.433   8.964  71.736  1.00  0.00    -0.431 A  
HETATM   11 CL   UNL     1     -11.252   5.344  73.212  1.00  0.00    -0.345 Cl 
HETATM   12  C   UNL     1     -12.552   7.145  71.680  1.00  0.00    -0.410 A  
HETATM   13  C   UNL     1     -10.348   7.771  72.454  1.00  0.00    -0.311 A  
HETATM   14  C   UNL     1     -11.399   6.858  72.406  1.00  0.00    -0.271 A  
ENDBRANCH   7   8
BRANCH   7  15
HETATM   15  C   UNL     1     -12.126  11.718  70.575  1.00  0.00    -0.347 A  
HETATM   16  C   UNL     1     -12.328  14.026  70.427  1.00  0.00    -0.359 A  
HETATM   17  C   UNL     1     -13.435  12.909  72.207  1.00  0.00    -0.631 A  
HETATM   18  C   UNL     1     -12.924  11.707  71.722  1.00  0.00    -0.483 A  
HETATM   19  N   UNL     1     -11.824  12.876  69.925  1.00  0.00    -0.325 NA 
HETATM   20  C   UNL     1     -13.135  14.092  71.549  1.00  0.00    -0.424 A  
ENDBRANCH   7  15
ENDBRANCH   6   7
ENDBRANCH   5   6
ENDBRANCH   4   5
ENDBRANCH   2   4
TORSDOF 6
ENDMDL
MODEL       47
REMARK 921   NORMALIZED FREE ENERGY PREDICTED BY IDOCK:   -4.92 KCAL/MOL
REMARK 922        TOTAL FREE ENERGY PREDICTED BY IDOCK:   -7.30 KCAL/MOL
REMARK 923 INTER-LIGAND FREE ENERGY PREDICTED BY IDOCK:   -7.10 KCAL/MOL
REMARK 924 INTRA-LIGAND FREE ENERGY PREDICTED BY IDOCK:   -0.20 KCAL/MOL
REMARK 927      BINDING AFFINITY PREDICTED BY RF-SCORE:    0.00 PKD
ROOT
HETATM    1  C   UNL     1     -13.373  15.792  72.975  1.00  0.00    -0.583 C  
HETATM    2  N   UNL     1     -13.298  15.773  71.511  1.00  0.00    -0.467 NA 
HETATM    3  C   UNL     1     -11.926  16.074  71.090  1.00  0.00    -0.398 C  
ENDROOT
BRANCH   2   4
HETATM    4  C   UNL     1     -13.773  14.469  71.004  1.00  0.00    -0.184 C  
BRANCH   4   5
HETATM    5  C   UNL     1     -13.152  13.263  71.722  1.00  0.00    -0.379 C  
BRANCH   5   6
HETATM    6  O   UNL     1     -12.064  12.720  70.958  1.00  0.00    -0.221 OA 
BRANCH   6   7
HETATM    7  C   UNL     1     -12.457  11.534  70.218  1.00  0.00    -0.205 C  
BRANCH   7   8
HETATM    8  C   UNL     1     -11.796  11.553  68.841  1.00  0.00    -0.406 A  
HETATM    9  C   UNL     1     -11.286  10.358  68.302  1.00  0.00    -0.330 A  
HETATM   10  C   UNL     1     -11.850  12.695  68.023  1.00  0.00    -0.376 A  
HETATM   11 CL   UNL     1     -10.610  11.320  64.484  1.00  0.00    -0.392 Cl 
HETATM   12  C   UNL     1     -10.905  10.291  66.961  1.00  0.00    -0.248 A  
HETATM   13  C   UNL     1     -11.455  12.630  66.687  1.00  0.00    -0.409 A  
HETATM   14  C   UNL     1     -11.004  11.423  66.156  1.00  0.00    -0.236 A  
ENDBRANCH   7   8
BRANCH   7  15
HETATM   15  C   UNL     1     -12.164  10.261  71.014  1.00  0.00    -0.384 A  
HETATM   16  C   UNL     1     -10.584   8.781  71.857  1.00  0.00    -0.354 A  
HETATM   17  C   UNL     1     -12.872   8.403  72.372  1.00  0.00    -0.323 A  
HETATM   18  C   UNL     1     -13.190   9.532  71.620  1.00  0.00    -0.486 A  
HETATM   19  N   UNL     1     -10.859   9.888  71.128  1.00  0.00    -0.258 NA 
HETATM   20  C   UNL     1     -11.545   8.019  72.496  1.00  0.00    -0.464 A  
ENDBRANCH   7  15
ENDBRANCH   6   7
ENDBRANCH   5   6
ENDBRANCH   4   5
ENDBRANCH   2   4
TORSDOF 6
ENDMDL
MODEL       48
REMARK 921   NORMALIZED FREE ENERGY PREDICTED BY IDOCK:   -4.88 KCAL/MOL
REMARK 922        TOTAL FREE ENERGY PREDICTED BY IDOCK:   -7.24 KCAL/MOL
REMARK 923 INTER-LIGAND FREE ENERGY PREDICTED BY IDOCK:   -6.72 KCAL/MOL
REMARK 924 INTRA-LIGAND FREE ENERGY PREDICTED BY IDOCK:   -0.53 KCAL/MOL
REMARK 927      BINDING AFFINITY PREDICTED BY RF-SCORE:    0.00 PKD
ROOT
HETATM    1  C   UNL     1     -13.041  10.818  71.580  1.00  0.00    -0.446 C  
HETATM    2  N   UNL     1     -11.796  11.037  70.839  1.00  0.00    -0.275 NA 
HETATM    3  C   UNL     1     -11.303   9.755  70.325  1.00  0.00    -0.272 C  
ENDROOT
BRANCH   2   4
HETATM    4  C   UNL     1     -12.022  12.028  69.766  1.00  0.00    -0.300 C  
BRANCH   4   5
HETATM    5  C   UNL     1     -12.197  13.464  70.278  1.00  0.00    -0.335 C  
BRANCH   5   6
HETATM    6  O   UNL     1     -12.156  14.402  69.190  1.00  0.00    -0.318 OA 
BRANCH   6   7
HETATM    7  C   UNL     1     -10.925  14.296  68.428  1.00  0.00    -0.253 C  
BRANCH   7   8
HETATM    8  C   UNL     1     -11.241  13.800  67.019  1.00  0.00    -0.326 A  
HETATM    9  C   UNL     1     -10.523  12.712  66.491  1.00  0.00    -0.264 A  
HETATM   10  C   UNL     1     -12.356  14.282  66.310  1.00  0.00    -0.399 A  
HETATM   11 CL   UNL     1     -12.652  11.724  63.258  1.00  0.00    -0.578 Cl 
HETATM   12  C   UNL     1     -10.950  12.081  65.320  1.00  0.00    -0.356 A  
HETATM   13  C   UNL     1     -12.772  13.660  65.133  1.00  0.00    -0.443 A  
HETATM   14  C   UNL     1     -12.080  12.549  64.655  1.00  0.00    -0.428 A  
ENDBRANCH   7   8
BRANCH   7  15
HETATM   15  C   UNL     1     -10.147  15.614  68.445  1.00  0.00    -0.214 A  
HETATM   16  C   UNL     1     -10.196  17.935  68.373  1.00  0.00    -0.394 A  
HETATM   17  C   UNL     1      -8.098  16.860  68.659  1.00  0.00    -0.253 A  
HETATM   18  C   UNL     1      -8.759  15.634  68.605  1.00  0.00    -0.193 A  
HETATM   19  N   UNL     1     -10.870  16.763  68.326  1.00  0.00    -0.366 NA 
HETATM   20  C   UNL     1      -8.827  18.034  68.543  1.00  0.00    -0.304 A  
ENDBRANCH   7  15
ENDBRANCH   6   7
ENDBRANCH   5   6
ENDBRANCH   4   5
ENDBRANCH   2   4
TORSDOF 6
ENDMDL
MODEL       49
REMARK 921   NORMALIZED FREE ENERGY PREDICTED BY IDOCK:   -4.85 KCAL/MOL
REMARK 922        TOTAL FREE ENERGY PREDICTED BY IDOCK:   -7.21 KCAL/MOL
REMARK 923 INTER-LIGAND FREE ENERGY PREDICTED BY IDOCK:   -6.58 KCAL/MOL
REMARK 924 INTRA-LIGAND FREE ENERGY PREDICTED BY IDOCK:   -0.63 KCAL/MOL
REMARK 927      BINDING AFFINITY PREDICTED BY RF-SCORE:    0.00 PKD
ROOT
HETATM    1  C   UNL     1      -5.506  13.910  69.059  1.00  0.00    -0.080 C  
HETATM    2  N   UNL     1      -6.001  13.881  67.679  1.00  0.00    -0.319 NA 
HETATM    3  C   UNL     1      -6.342  12.502  67.313  1.00  0.00    -0.123 C  
ENDROOT
BRANCH   2   4
HETATM    4  C   UNL     1      -7.147  14.804  67.540  1.00  0.00    -0.184 C  
BRANCH   4   5
HETATM    5  C   UNL     1      -8.410  14.335  68.275  1.00  0.00    -0.165 C  
BRANCH   5   6
HETATM    6  O   UNL     1      -9.570  14.479  67.439  1.00  0.00    -0.206 OA 
BRANCH   6   7
HETATM    7  C   UNL     1     -10.330  13.246  67.346  1.00  0.00    -0.243 C  
BRANCH   7   8
HETATM    8  C   UNL     1     -11.321  13.172  68.507  1.00  0.00    -0.321 A  
HETATM    9  C   UNL     1     -11.558  11.937  69.137  1.00  0.00    -0.373 A  
HETATM   10  C   UNL     1     -11.859  14.338  69.079  1.00  0.00    -0.370 A  
HETATM   11 CL   UNL     1     -13.540  12.990  72.442  1.00  0.00    -0.677 Cl 
HETATM   12  C   UNL     1     -12.257  11.880  70.344  1.00  0.00    -0.399 A  
HETATM   13  C   UNL     1     -12.571  14.277  70.277  1.00  0.00    -0.378 A  
HETATM   14  C   UNL     1     -12.748  13.051  70.915  1.00  0.00    -0.217 A  
ENDBRANCH   7   8
BRANCH   7  15
HETATM   15  C   UNL     1     -10.993  13.104  65.974  1.00  0.00    -0.279 A  
HETATM   16  C   UNL     1     -12.265  14.072  64.289  1.00  0.00    -0.418 A  
HETATM   17  C   UNL     1     -11.436  11.871  63.954  1.00  0.00    -0.511 A  
HETATM   18  C   UNL     1     -10.850  11.939  65.218  1.00  0.00    -0.347 A  
HETATM   19  N   UNL     1     -11.702  14.173  65.515  1.00  0.00    -0.334 NA 
HETATM   20  C   UNL     1     -12.155  12.956  63.477  1.00  0.00    -0.633 A  
ENDBRANCH   7  15
ENDBRANCH   6   7
ENDBRANCH   5   6
ENDBRANCH   4   5
ENDBRANCH   2   4
TORSDOF 6
ENDMDL
MODEL       50
REMARK 921   NORMALIZED FREE ENERGY PREDICTED BY IDOCK:   -4.85 KCAL/MOL
REMARK 922        TOTAL FREE ENERGY PREDICTED BY IDOCK:   -7.20 KCAL/MOL
REMARK 923 INTER-LIGAND FREE ENERGY PREDICTED BY IDOCK:   -6.61 KCAL/MOL
REMARK 924 INTRA-LIGAND FREE ENERGY PREDICTED BY IDOCK:   -0.59 KCAL/MOL
REMARK 927      BINDING AFFINITY PREDICTED BY RF-SCORE:    0.00 PKD
ROOT
HETATM    1  C   UNL     1     -14.181  14.526  72.133  1.00  0.00    -0.531 C  
HETATM    2  N   UNL     1     -13.103  14.863  71.198  1.00  0.00    -0.370 NA 
HETATM    3  C   UNL     1     -12.213  15.850  71.817  1.00  0.00    -0.481 C  
ENDROOT
BRANCH   2   4
HETATM    4  C   UNL     1     -12.390  13.633  70.793  1.00  0.00    -0.371 C  
BRANCH   4   5
HETATM    5  C   UNL     1     -12.902  12.365  71.489  1.00  0.00    -0.274 C  
BRANCH   5   6
HETATM    6  O   UNL     1     -12.896  11.249  70.584  1.00  0.00    -0.242 OA 
BRANCH   6   7
HETATM    7  C   UNL     1     -11.586  10.628  70.496  1.00  0.00    -0.350 C  
BRANCH   7   8
HETATM    8  C   UNL     1     -11.582   9.337  71.312  1.00  0.00    -0.419 A  
HETATM    9  C   UNL     1     -12.705   8.491  71.276  1.00  0.00    -0.221 A  
HETATM   10  C   UNL     1     -10.413   8.883  71.949  1.00  0.00    -0.415 A  
HETATM   11 CL   UNL     1     -11.351   5.138  72.973  1.00  0.00    -0.385 Cl 
HETATM   12  C   UNL     1     -12.638   7.200  71.804  1.00  0.00    -0.381 A  
HETATM   13  C   UNL     1     -10.353   7.598  72.489  1.00  0.00    -0.310 A  
HETATM   14  C   UNL     1     -11.458   6.755  72.395  1.00  0.00    -0.264 A  
ENDBRANCH   7   8
BRANCH   7  15
HETATM   15  C   UNL     1     -11.165  10.425  69.039  1.00  0.00    -0.234 A  
HETATM   16  C   UNL     1     -10.967  11.310  66.901  1.00  0.00    -0.290 A  
HETATM   17  C   UNL     1     -10.167   9.108  67.289  1.00  0.00    -0.319 A  
HETATM   18  C   UNL     1     -10.574   9.232  68.615  1.00  0.00    -0.219 A  
HETATM   19  N   UNL     1     -11.365  11.467  68.185  1.00  0.00    -0.277 NA 
HETATM   20  C   UNL     1     -10.363  10.165  66.413  1.00  0.00    -0.258 A  
ENDBRANCH   7  15
ENDBRANCH   6   7
ENDBRANCH   5   6
ENDBRANCH   4   5
ENDBRANCH   2   4
TORSDOF 6
ENDMDL
MODEL       51
REMARK 921   NORMALIZED FREE ENERGY PREDICTED BY IDOCK:   -4.77 KCAL/MOL
REMARK 922        TOTAL FREE ENERGY PREDICTED BY IDOCK:   -7.10 KCAL/MOL
REMARK 923 INTER-LIGAND FREE ENERGY PREDICTED BY IDOCK:   -6.46 KCAL/MOL
REMARK 924 INTRA-LIGAND FREE ENERGY PREDICTED BY IDOCK:   -0.64 KCAL/MOL
REMARK 927      BINDING AFFINITY PREDICTED BY RF-SCORE:    0.00 PKD
ROOT
HETATM    1  C   UNL     1      -8.973   7.871  68.481  1.00  0.00    -0.133 C  
HETATM    2  N   UNL     1      -9.420   8.201  69.838  1.00  0.00    -0.160 NA 
HETATM    3  C   UNL     1      -8.342   8.895  70.550  1.00  0.00    -0.159 C  
ENDROOT
BRANCH   2   4
HETATM    4  C   UNL     1     -10.662   8.999  69.774  1.00  0.00    -0.225 C  
BRANCH   4   5
HETATM    5  C   UNL     1     -10.849   9.747  68.447  1.00  0.00    -0.201 C  
BRANCH   5   6
HETATM    6  O   UNL     1     -11.840  10.778  68.578  1.00  0.00    -0.444 OA 
BRANCH   6   7
HETATM    7  C   UNL     1     -11.257  12.044  68.985  1.00  0.00    -0.258 C  
BRANCH   7   8
HETATM    8  C   UNL     1     -11.109  12.949  67.763  1.00  0.00    -0.291 A  
HETATM    9  C   UNL     1     -12.134  12.987  66.801  1.00  0.00    -0.366 A  
HETATM   10  C   UNL     1     -10.060  13.881  67.671  1.00  0.00    -0.241 A  
HETATM   11 CL   UNL     1     -11.173  16.178  64.599  1.00  0.00    -0.411 Cl 
HETATM   12  C   UNL     1     -12.145  13.975  65.815  1.00  0.00    -0.445 A  
HETATM   13  C   UNL     1     -10.065  14.858  66.676  1.00  0.00    -0.264 A  
HETATM   14  C   UNL     1     -11.118  14.914  65.765  1.00  0.00    -0.342 A  
ENDBRANCH   7   8
BRANCH   7  15
HETATM   15  C   UNL     1     -12.058  12.685  70.120  1.00  0.00    -0.294 A  
HETATM   16  C   UNL     1     -13.287  12.405  72.071  1.00  0.00    -0.407 A  
HETATM   17  C   UNL     1     -12.895  14.614  71.292  1.00  0.00    -0.405 A  
HETATM   18  C   UNL     1     -12.194  14.072  70.217  1.00  0.00    -0.430 A  
HETATM   19  N   UNL     1     -12.604  11.847  71.044  1.00  0.00    -0.340 NA 
HETATM   20  C   UNL     1     -13.451  13.768  72.240  1.00  0.00    -0.638 A  
ENDBRANCH   7  15
ENDBRANCH   6   7
ENDBRANCH   5   6
ENDBRANCH   4   5
ENDBRANCH   2   4
TORSDOF 6
ENDMDL
MODEL       52
REMARK 921   NORMALIZED FREE ENERGY PREDICTED BY IDOCK:   -4.76 KCAL/MOL
REMARK 922        TOTAL FREE ENERGY PREDICTED BY IDOCK:   -7.08 KCAL/MOL
REMARK 923 INTER-LIGAND FREE ENERGY PREDICTED BY IDOCK:   -6.42 KCAL/MOL
REMARK 924 INTRA-LIGAND FREE ENERGY PREDICTED BY IDOCK:   -0.67 KCAL/MOL
REMARK 927      BINDING AFFINITY PREDICTED BY RF-SCORE:    0.00 PKD
ROOT
HETATM    1  C   UNL     1      -5.270  13.744  68.250  1.00  0.00    -0.109 C  
HETATM    2  N   UNL     1      -6.220  13.122  67.324  1.00  0.00    -0.290 NA 
HETATM    3  C   UNL     1      -5.819  11.733  67.074  1.00  0.00    -0.145 C  
ENDROOT
BRANCH   2   4
HETATM    4  C   UNL     1      -7.590  13.226  67.869  1.00  0.00    -0.152 C  
BRANCH   4   5
HETATM    5  C   UNL     1      -8.384  14.419  67.320  1.00  0.00    -0.209 C  
BRANCH   5   6
HETATM    6  O   UNL     1      -8.768  15.308  68.381  1.00  0.00    -0.160 OA 
BRANCH   6   7
HETATM    7  C   UNL     1     -10.039  15.956  68.114  1.00  0.00    -0.229 C  
BRANCH   7   8
HETATM    8  C   UNL     1     -11.033  15.597  69.217  1.00  0.00    -0.267 A  
HETATM    9  C   UNL     1     -11.766  14.400  69.125  1.00  0.00    -0.354 A  
HETATM   10  C   UNL     1     -11.097  16.339  70.409  1.00  0.00    -0.322 A  
HETATM   11 CL   UNL     1     -13.330  14.030  72.783  1.00  0.00    -0.631 Cl 
HETATM   12  C   UNL     1     -12.488  13.924  70.222  1.00  0.00    -0.380 A  
HETATM   13  C   UNL     1     -11.831  15.870  71.499  1.00  0.00    -0.536 A  
HETATM   14  C   UNL     1     -12.506  14.655  71.407  1.00  0.00    -0.344 A  
ENDBRANCH   7   8
BRANCH   7  15
HETATM   15  C   UNL     1      -9.864  17.465  67.925  1.00  0.00    -0.287 A  
HETATM   16  C   UNL     1     -10.736  19.468  67.138  1.00  0.00    -0.482 A  
HETATM   17  C   UNL     1      -8.644  19.513  68.261  1.00  0.00    -0.380 A  
HETATM   18  C   UNL     1      -8.740  18.131  68.418  1.00  0.00    -0.302 A  
HETATM   19  N   UNL     1     -10.865  18.129  67.282  1.00  0.00    -0.302 NA 
HETATM   20  C   UNL     1      -9.660  20.197  67.612  1.00  0.00    -0.534 A  
ENDBRANCH   7  15
ENDBRANCH   6   7
ENDBRANCH   5   6
ENDBRANCH   4   5
ENDBRANCH   2   4
TORSDOF 6
ENDMDL
MODEL       53
REMARK 921   NORMALIZED FREE ENERGY PREDICTED BY IDOCK:   -4.74 KCAL/MOL
REMARK 922        TOTAL FREE ENERGY PREDICTED BY IDOCK:   -7.06 KCAL/MOL
REMARK 923 INTER-LIGAND FREE ENERGY PREDICTED BY IDOCK:   -6.43 KCAL/MOL
REMARK 924 INTRA-LIGAND FREE ENERGY PREDICTED BY IDOCK:   -0.62 KCAL/MOL
REMARK 927      BINDING AFFINITY PREDICTED BY RF-SCORE:    0.00 PKD
ROOT
HETATM    1  C   UNL     1     -13.154  11.729  71.821  1.00  0.00    -0.375 C  
HETATM    2  N   UNL     1     -12.626  10.363  71.761  1.00  0.00    -0.404 NA 
HETATM    3  C   UNL     1     -13.681   9.416  72.136  1.00  0.00    -0.420 C  
ENDROOT
BRANCH   2   4
HETATM    4  C   UNL     1     -12.080  10.098  70.414  1.00  0.00    -0.246 C  
BRANCH   4   5
HETATM    5  C   UNL     1     -11.803  11.368  69.598  1.00  0.00    -0.362 C  
BRANCH   5   6
HETATM    6  O   UNL     1     -12.040  11.138  68.200  1.00  0.00    -0.633 OA 
BRANCH   6   7
HETATM    7  C   UNL     1     -10.831  11.294  67.411  1.00  0.00    -0.262 C  
BRANCH   7   8
HETATM    8  C   UNL     1     -10.079   9.965  67.367  1.00  0.00    -0.254 A  
HETATM    9  C   UNL     1      -8.729   9.921  67.760  1.00  0.00    -0.129 A  
HETATM   10  C   UNL     1     -10.753   8.756  67.123  1.00  0.00    -0.204 A  
HETATM   11 CL   UNL     1      -8.026   6.002  68.091  1.00  0.00    -0.109 Cl 
HETATM   12  C   UNL     1      -8.091   8.696  67.967  1.00  0.00    -0.111 A  
HETATM   13  C   UNL     1     -10.109   7.533  67.317  1.00  0.00    -0.300 A  
HETATM   14  C   UNL     1      -8.788   7.509  67.759  1.00  0.00    -0.132 A  
ENDBRANCH   7   8
BRANCH   7  15
HETATM   15  C   UNL     1     -11.143  11.859  66.023  1.00  0.00    -0.322 A  
HETATM   16  C   UNL     1     -10.705  11.843  63.743  1.00  0.00    -0.418 A  
HETATM   17  C   UNL     1     -12.430  13.262  64.550  1.00  0.00    -0.381 A  
HETATM   18  C   UNL     1     -12.151  12.808  65.837  1.00  0.00    -0.485 A  
HETATM   19  N   UNL     1     -10.416  11.374  64.979  1.00  0.00    -0.290 NA 
HETATM   20  C   UNL     1     -11.697  12.771  63.480  1.00  0.00    -0.597 A  
ENDBRANCH   7  15
ENDBRANCH   6   7
ENDBRANCH   5   6
ENDBRANCH   4   5
ENDBRANCH   2   4
TORSDOF 6
ENDMDL
MODEL       54
REMARK 921   NORMALIZED FREE ENERGY PREDICTED BY IDOCK:   -4.74 KCAL/MOL
REMARK 922        TOTAL FREE ENERGY PREDICTED BY IDOCK:   -7.05 KCAL/MOL
REMARK 923 INTER-LIGAND FREE ENERGY PREDICTED BY IDOCK:   -6.30 KCAL/MOL
REMARK 924 INTRA-LIGAND FREE ENERGY PREDICTED BY IDOCK:   -0.75 KCAL/MOL
REMARK 927      BINDING AFFINITY PREDICTED BY RF-SCORE:    0.00 PKD
ROOT
HETATM    1  C   UNL     1      -8.678  10.401  63.806  1.00  0.00    -0.193 C  
HETATM    2  N   UNL     1      -8.860   9.639  65.045  1.00  0.00    -0.173 NA 
HETATM    3  C   UNL     1      -8.284   8.300  64.882  1.00  0.00    -0.151 C  
ENDROOT
BRANCH   2   4
HETATM    4  C   UNL     1      -8.263  10.378  66.178  1.00  0.00    -0.144 C  
BRANCH   4   5
HETATM    5  C   UNL     1      -9.074  10.276  67.477  1.00  0.00    -0.137 C  
BRANCH   5   6
HETATM    6  O   UNL     1      -9.611  11.556  67.845  1.00  0.00    -0.167 OA 
BRANCH   6   7
HETATM    7  C   UNL     1     -11.017  11.675  67.503  1.00  0.00    -0.259 C  
BRANCH   7   8
HETATM    8  C   UNL     1     -11.790  12.196  68.714  1.00  0.00    -0.356 A  
HETATM    9  C   UNL     1     -12.160  11.302  69.735  1.00  0.00    -0.394 A  
HETATM   10  C   UNL     1     -11.978  13.573  68.919  1.00  0.00    -0.378 A  
HETATM   11 CL   UNL     1     -13.300  13.744  72.684  1.00  0.00    -0.639 Cl 
HETATM   12  C   UNL     1     -12.642  11.781  70.955  1.00  0.00    -0.409 A  
HETATM   13  C   UNL     1     -12.473  14.049  70.133  1.00  0.00    -0.380 A  
HETATM   14  C   UNL     1     -12.783  13.151  71.153  1.00  0.00    -0.300 A  
ENDBRANCH   7   8
BRANCH   7  15
HETATM   15  C   UNL     1     -11.213  12.526  66.247  1.00  0.00    -0.315 A  
HETATM   16  C   UNL     1     -12.580  13.136  64.471  1.00  0.00    -0.278 A  
HETATM   17  C   UNL     1     -10.489  14.235  64.713  1.00  0.00    -0.421 A  
HETATM   18  C   UNL     1     -10.247  13.449  65.839  1.00  0.00    -0.302 A  
HETATM   19  N   UNL     1     -12.381  12.364  65.565  1.00  0.00    -0.624 NA 
HETATM   20  C   UNL     1     -11.677  14.079  64.015  1.00  0.00    -0.276 A  
ENDBRANCH   7  15
ENDBRANCH   6   7
ENDBRANCH   5   6
ENDBRANCH   4   5
ENDBRANCH   2   4
TORSDOF 6
ENDMDL
MODEL       55
REMARK 921   NORMALIZED FREE ENERGY PREDICTED BY IDOCK:   -4.72 KCAL/MOL
REMARK 922        TOTAL FREE ENERGY PREDICTED BY IDOCK:   -7.03 KCAL/MOL
REMARK 923 INTER-LIGAND FREE ENERGY PREDICTED BY IDOCK:   -6.41 KCAL/MOL
REMARK 924 INTRA-LIGAND FREE ENERGY PREDICTED BY IDOCK:   -0.61 KCAL/MOL
REMARK 927      BINDING AFFINITY PREDICTED BY RF-SCORE:    0.00 PKD
ROOT
HETATM    1  C   UNL     1     -13.334   8.780  71.826  1.00  0.00    -0.378 C  
HETATM    2  N   UNL     1     -11.955   9.271  71.895  1.00  0.00    -0.371 NA 
HETATM    3  C   UNL     1     -11.077   8.192  72.360  1.00  0.00    -0.369 C  
ENDROOT
BRANCH   2   4
HETATM    4  C   UNL     1     -11.548   9.805  70.579  1.00  0.00    -0.292 C  
BRANCH   4   5
HETATM    5  C   UNL     1     -12.181  11.161  70.240  1.00  0.00    -0.352 C  
BRANCH   5   6
HETATM    6  O   UNL     1     -12.220  11.365  68.818  1.00  0.00    -0.502 OA 
BRANCH   6   7
HETATM    7  C   UNL     1     -10.934  11.792  68.296  1.00  0.00    -0.229 C  
BRANCH   7   8
HETATM    8  C   UNL     1     -10.746  11.229  66.888  1.00  0.00    -0.319 A  
HETATM    9  C   UNL     1     -11.242  11.945  65.784  1.00  0.00    -0.365 A  
HETATM   10  C   UNL     1      -9.930  10.108  66.657  1.00  0.00    -0.272 A  
HETATM   11 CL   UNL     1      -9.515  10.110  62.684  1.00  0.00    -0.309 Cl 
HETATM   12  C   UNL     1     -10.874  11.589  64.485  1.00  0.00    -0.390 A  
HETATM   13  C   UNL     1      -9.575   9.745  65.357  1.00  0.00    -0.359 A  
HETATM   14  C   UNL     1     -10.032  10.500  64.279  1.00  0.00    -0.331 A  
ENDBRANCH   7   8
BRANCH   7  15
HETATM   15  C   UNL     1     -10.786  13.314  68.364  1.00  0.00    -0.257 A  
HETATM   16  C   UNL     1     -11.809  15.389  68.567  1.00  0.00    -0.272 A  
HETATM   17  C   UNL     1      -9.438  15.307  68.452  1.00  0.00    -0.206 A  
HETATM   18  C   UNL     1      -9.527  13.920  68.344  1.00  0.00    -0.211 A  
HETATM   19  N   UNL     1     -11.930  14.044  68.473  1.00  0.00    -0.359 NA 
HETATM   20  C   UNL     1     -10.598  16.058  68.568  1.00  0.00    -0.268 A  
ENDBRANCH   7  15
ENDBRANCH   6   7
ENDBRANCH   5   6
ENDBRANCH   4   5
ENDBRANCH   2   4
TORSDOF 6
ENDMDL
MODEL       56
REMARK 921   NORMALIZED FREE ENERGY PREDICTED BY IDOCK:   -4.70 KCAL/MOL
REMARK 922        TOTAL FREE ENERGY PREDICTED BY IDOCK:   -7.00 KCAL/MOL
REMARK 923 INTER-LIGAND FREE ENERGY PREDICTED BY IDOCK:   -6.17 KCAL/MOL
REMARK 924 INTRA-LIGAND FREE ENERGY PREDICTED BY IDOCK:   -0.83 KCAL/MOL
REMARK 927      BINDING AFFINITY PREDICTED BY RF-SCORE:    0.00 PKD
ROOT
HETATM    1  C   UNL     1     -10.466  12.054  63.395  1.00  0.00    -0.433 C  
HETATM    2  N   UNL     1     -11.768  12.724  63.320  1.00  0.00    -0.481 NA 
HETATM    3  C   UNL     1     -12.835  11.738  63.521  1.00  0.00    -0.220 C  
ENDROOT
BRANCH   2   4
HETATM    4  C   UNL     1     -11.821  13.825  64.304  1.00  0.00    -0.417 C  
BRANCH   4   5
HETATM    5  C   UNL     1     -12.842  13.600  65.428  1.00  0.00    -0.389 C  
BRANCH   5   6
HETATM    6  O   UNL     1     -12.335  14.083  66.682  1.00  0.00    -0.451 OA 
BRANCH   6   7
HETATM    7  C   UNL     1     -10.884  14.110  66.707  1.00  0.00    -0.296 C  
BRANCH   7   8
HETATM    8  C   UNL     1     -10.412  15.435  67.304  1.00  0.00    -0.282 A  
HETATM    9  C   UNL     1      -9.795  16.387  66.473  1.00  0.00    -0.290 A  
HETATM   10  C   UNL     1     -10.744  15.799  68.620  1.00  0.00    -0.263 A  
HETATM   11 CL   UNL     1      -9.762  19.668  68.751  1.00  0.00    -0.488 Cl 
HETATM   12  C   UNL     1      -9.580  17.690  66.926  1.00  0.00    -0.286 A  
HETATM   13  C   UNL     1     -10.515  17.098  69.076  1.00  0.00    -0.321 A  
HETATM   14  C   UNL     1      -9.954  18.043  68.220  1.00  0.00    -0.371 A  
ENDBRANCH   7   8
BRANCH   7  15
HETATM   15  C   UNL     1     -10.318  12.885  67.429  1.00  0.00    -0.233 A  
HETATM   16  C   UNL     1     -10.648  11.171  68.961  1.00  0.00    -0.218 A  
HETATM   17  C   UNL     1      -8.583  11.255  67.791  1.00  0.00    -0.126 A  
HETATM   18  C   UNL     1      -9.040  12.400  67.141  1.00  0.00    -0.199 A  
HETATM   19  N   UNL     1     -11.126  12.274  68.341  1.00  0.00    -0.225 NA 
HETATM   20  C   UNL     1      -9.400  10.625  68.717  1.00  0.00    -0.183 A  
ENDBRANCH   7  15
ENDBRANCH   6   7
ENDBRANCH   5   6
ENDBRANCH   4   5
ENDBRANCH   2   4
TORSDOF 6
ENDMDL
MODEL       57
REMARK 921   NORMALIZED FREE ENERGY PREDICTED BY IDOCK:   -4.68 KCAL/MOL
REMARK 922        TOTAL FREE ENERGY PREDICTED BY IDOCK:   -6.97 KCAL/MOL
REMARK 923 INTER-LIGAND FREE ENERGY PREDICTED BY IDOCK:   -6.33 KCAL/MOL
REMARK 924 INTRA-LIGAND FREE ENERGY PREDICTED BY IDOCK:   -0.64 KCAL/MOL
REMARK 927      BINDING AFFINITY PREDICTED BY RF-SCORE:    0.00 PKD
ROOT
HETATM    1  C   UNL     1     -14.145  15.225  71.913  1.00  0.00    -0.557 C  
HETATM    2  N   UNL     1     -12.850  15.886  71.725  1.00  0.00    -0.444 NA 
HETATM    3  C   UNL     1     -12.032  15.705  72.929  1.00  0.00    -0.479 C  
ENDROOT
BRANCH   2   4
HETATM    4  C   UNL     1     -12.192  15.361  70.510  1.00  0.00    -0.394 C  
BRANCH   4   5
HETATM    5  C   UNL     1     -12.121  13.829  70.459  1.00  0.00    -0.345 C  
BRANCH   5   6
HETATM    6  O   UNL     1     -12.324  13.353  69.119  1.00  0.00    -0.224 OA 
BRANCH   6   7
HETATM    7  C   UNL     1     -11.084  13.306  68.366  1.00  0.00    -0.270 C  
BRANCH   7   8
HETATM    8  C   UNL     1     -10.663  11.849  68.173  1.00  0.00    -0.246 A  
HETATM    9  C   UNL     1      -9.530  11.554  67.394  1.00  0.00    -0.171 A  
HETATM   10  C   UNL     1     -11.270  10.814  68.905  1.00  0.00    -0.328 A  
HETATM   11 CL   UNL     1      -8.848   7.709  68.238  1.00  0.00    -0.126 Cl 
HETATM   12  C   UNL     1      -8.979  10.270  67.402  1.00  0.00    -0.141 A  
HETATM   13  C   UNL     1     -10.727   9.529  68.900  1.00  0.00    -0.220 A  
HETATM   14  C   UNL     1      -9.572   9.268  68.166  1.00  0.00    -0.143 A  
ENDBRANCH   7   8
BRANCH   7  15
HETATM   15  C   UNL     1     -11.202  14.081  67.052  1.00  0.00    -0.313 A  
HETATM   16  C   UNL     1     -10.501  15.868  65.745  1.00  0.00    -0.370 A  
HETATM   17  C   UNL     1     -12.088  14.357  64.830  1.00  0.00    -0.442 A  
HETATM   18  C   UNL     1     -12.045  13.644  66.027  1.00  0.00    -0.480 A  
HETATM   19  N   UNL     1     -10.429  15.193  66.916  1.00  0.00    -0.277 NA 
HETATM   20  C   UNL     1     -11.301  15.489  64.682  1.00  0.00    -0.363 A  
ENDBRANCH   7  15
ENDBRANCH   6   7
ENDBRANCH   5   6
ENDBRANCH   4   5
ENDBRANCH   2   4
TORSDOF 6
ENDMDL
MODEL       58
REMARK 921   NORMALIZED FREE ENERGY PREDICTED BY IDOCK:   -4.66 KCAL/MOL
REMARK 922        TOTAL FREE ENERGY PREDICTED BY IDOCK:   -6.94 KCAL/MOL
REMARK 923 INTER-LIGAND FREE ENERGY PREDICTED BY IDOCK:   -6.16 KCAL/MOL
REMARK 924 INTRA-LIGAND FREE ENERGY PREDICTED BY IDOCK:   -0.78 KCAL/MOL
REMARK 927      BINDING AFFINITY PREDICTED BY RF-SCORE:    0.00 PKD
ROOT
HETATM    1  C   UNL     1     -11.551  12.659  63.483  1.00  0.00    -0.514 C  
HETATM    2  N   UNL     1     -11.885  13.816  64.319  1.00  0.00    -0.415 NA 
HETATM    3  C   UNL     1     -12.760  13.388  65.415  1.00  0.00    -0.426 C  
ENDROOT
BRANCH   2   4
HETATM    4  C   UNL     1     -10.645  14.458  64.801  1.00  0.00    -0.393 C  
BRANCH   4   5
HETATM    5  C   UNL     1     -10.788  15.965  65.054  1.00  0.00    -0.426 C  
BRANCH   5   6
HETATM    6  O   UNL     1     -11.029  16.229  66.445  1.00  0.00    -0.168 OA 
BRANCH   6   7
HETATM    7  C   UNL     1     -10.240  15.367  67.306  1.00  0.00    -0.254 C  
BRANCH   7   8
HETATM    8  C   UNL     1      -8.995  16.120  67.774  1.00  0.00    -0.192 A  
HETATM    9  C   UNL     1      -7.725  15.555  67.564  1.00  0.00    -0.195 A  
HETATM   10  C   UNL     1      -9.079  17.444  68.241  1.00  0.00    -0.272 A  
HETATM   11 CL   UNL     1      -5.258  18.604  68.328  1.00  0.00    -0.175 Cl 
HETATM   12  C   UNL     1      -6.570  16.318  67.751  1.00  0.00    -0.162 A  
HETATM   13  C   UNL     1      -7.924  18.200  68.441  1.00  0.00    -0.312 A  
HETATM   14  C   UNL     1      -6.676  17.640  68.175  1.00  0.00    -0.205 A  
ENDBRANCH   7   8
BRANCH   7  15
HETATM   15  C   UNL     1     -11.080  14.812  68.458  1.00  0.00    -0.264 A  
HETATM   16  C   UNL     1     -11.803  12.961  69.660  1.00  0.00    -0.320 A  
HETATM   17  C   UNL     1     -12.500  15.115  70.379  1.00  0.00    -0.416 A  
HETATM   18  C   UNL     1     -11.782  15.662  69.317  1.00  0.00    -0.388 A  
HETATM   19  N   UNL     1     -11.089  13.460  68.625  1.00  0.00    -0.252 NA 
HETATM   20  C   UNL     1     -12.510  13.740  70.559  1.00  0.00    -0.409 A  
ENDBRANCH   7  15
ENDBRANCH   6   7
ENDBRANCH   5   6
ENDBRANCH   4   5
ENDBRANCH   2   4
TORSDOF 6
ENDMDL
MODEL       59
REMARK 921   NORMALIZED FREE ENERGY PREDICTED BY IDOCK:   -4.65 KCAL/MOL
REMARK 922        TOTAL FREE ENERGY PREDICTED BY IDOCK:   -6.93 KCAL/MOL
REMARK 923 INTER-LIGAND FREE ENERGY PREDICTED BY IDOCK:   -6.16 KCAL/MOL
REMARK 924 INTRA-LIGAND FREE ENERGY PREDICTED BY IDOCK:   -0.78 KCAL/MOL
REMARK 927      BINDING AFFINITY PREDICTED BY RF-SCORE:    0.00 PKD
ROOT
HETATM    1  C   UNL     1     -12.387  14.059  66.178  1.00  0.00    -0.458 C  
HETATM    2  N   UNL     1     -12.298  12.783  65.462  1.00  0.00    -0.582 NA 
HETATM    3  C   UNL     1     -12.053  13.039  64.039  1.00  0.00    -0.450 C  
ENDROOT
BRANCH   2   4
HETATM    4  C   UNL     1     -11.250  11.939  66.074  1.00  0.00    -0.324 C  
BRANCH   4   5
HETATM    5  C   UNL     1     -10.099  12.740  66.697  1.00  0.00    -0.243 C  
BRANCH   5   6
HETATM    6  O   UNL     1      -9.864  12.323  68.052  1.00  0.00    -0.192 OA 
BRANCH   6   7
HETATM    7  C   UNL     1     -10.883  11.403  68.522  1.00  0.00    -0.211 C  
BRANCH   7   8
HETATM    8  C   UNL     1     -10.240  10.054  68.843  1.00  0.00    -0.206 A  
HETATM    9  C   UNL     1     -10.649   8.908  68.138  1.00  0.00    -0.211 A  
HETATM   10  C   UNL     1      -9.123   9.964  69.691  1.00  0.00    -0.245 A  
HETATM   11 CL   UNL     1      -7.844   6.228  69.092  1.00  0.00    -0.103 Cl 
HETATM   12  C   UNL     1      -9.918   7.722  68.228  1.00  0.00    -0.201 A  
HETATM   13  C   UNL     1      -8.403   8.774  69.791  1.00  0.00    -0.127 A  
HETATM   14  C   UNL     1      -8.791   7.665  69.043  1.00  0.00    -0.135 A  
ENDBRANCH   7   8
BRANCH   7  15
HETATM   15  C   UNL     1     -11.666  11.994  69.697  1.00  0.00    -0.335 A  
HETATM   16  C   UNL     1     -12.513  13.882  70.753  1.00  0.00    -0.375 A  
HETATM   17  C   UNL     1     -12.988  11.754  71.695  1.00  0.00    -0.467 A  
HETATM   18  C   UNL     1     -12.247  11.174  70.667  1.00  0.00    -0.492 A  
HETATM   19  N   UNL     1     -11.795  13.350  69.736  1.00  0.00    -0.320 NA 
HETATM   20  C   UNL     1     -13.128  13.133  71.740  1.00  0.00    -0.478 A  
ENDBRANCH   7  15
ENDBRANCH   6   7
ENDBRANCH   5   6
ENDBRANCH   4   5
ENDBRANCH   2   4
TORSDOF 6
ENDMDL
MODEL       60
REMARK 921   NORMALIZED FREE ENERGY PREDICTED BY IDOCK:   -4.65 KCAL/MOL
REMARK 922        TOTAL FREE ENERGY PREDICTED BY IDOCK:   -6.93 KCAL/MOL
REMARK 923 INTER-LIGAND FREE ENERGY PREDICTED BY IDOCK:   -6.15 KCAL/MOL
REMARK 924 INTRA-LIGAND FREE ENERGY PREDICTED BY IDOCK:   -0.78 KCAL/MOL
REMARK 927      BINDING AFFINITY PREDICTED BY RF-SCORE:    0.00 PKD
ROOT
HETATM    1  C   UNL     1      -9.031   6.650  68.558  1.00  0.00    -0.120 C  
HETATM    2  N   UNL     1     -10.373   6.215  68.162  1.00  0.00    -0.175 NA 
HETATM    3  C   UNL     1     -11.245   6.190  69.341  1.00  0.00    -0.396 C  
ENDROOT
BRANCH   2   4
HETATM    4  C   UNL     1     -10.890   7.096  67.094  1.00  0.00    -0.333 C  
BRANCH   4   5
HETATM    5  C   UNL     1     -10.056   8.368  66.886  1.00  0.00    -0.294 C  
BRANCH   5   6
HETATM    6  O   UNL     1     -10.896   9.533  66.884  1.00  0.00    -0.161 OA 
BRANCH   6   7
HETATM    7  C   UNL     1     -10.435  10.537  67.826  1.00  0.00    -0.224 C  
BRANCH   7   8
HETATM    8  C   UNL     1     -10.735  11.929  67.272  1.00  0.00    -0.276 A  
HETATM    9  C   UNL     1      -9.921  13.013  67.647  1.00  0.00    -0.215 A  
HETATM   10  C   UNL     1     -11.687  12.117  66.255  1.00  0.00    -0.389 A  
HETATM   11 CL   UNL     1     -10.991  15.864  65.061  1.00  0.00    -0.442 Cl 
HETATM   12  C   UNL     1     -10.012  14.233  66.974  1.00  0.00    -0.258 A  
HETATM   13  C   UNL     1     -11.786  13.341  65.594  1.00  0.00    -0.419 A  
HETATM   14  C   UNL     1     -10.934  14.387  65.942  1.00  0.00    -0.312 A  
ENDBRANCH   7   8
BRANCH   7  15
HETATM   15  C   UNL     1     -11.021  10.301  69.220  1.00  0.00    -0.241 A  
HETATM   16  C   UNL     1     -12.835  10.497  70.656  1.00  0.00    -0.325 A  
HETATM   17  C   UNL     1     -10.877   9.415  71.454  1.00  0.00    -0.430 A  
HETATM   18  C   UNL     1     -10.287   9.647  70.213  1.00  0.00    -0.336 A  
HETATM   19  N   UNL     1     -12.295  10.730  69.437  1.00  0.00    -0.320 NA 
HETATM   20  C   UNL     1     -12.176   9.845  71.683  1.00  0.00    -0.482 A  
ENDBRANCH   7  15
ENDBRANCH   6   7
ENDBRANCH   5   6
ENDBRANCH   4   5
ENDBRANCH   2   4
TORSDOF 6
ENDMDL
MODEL       61
REMARK 921   NORMALIZED FREE ENERGY PREDICTED BY IDOCK:   -4.65 KCAL/MOL
REMARK 922        TOTAL FREE ENERGY PREDICTED BY IDOCK:   -6.92 KCAL/MOL
REMARK 923 INTER-LIGAND FREE ENERGY PREDICTED BY IDOCK:   -5.95 KCAL/MOL
REMARK 924 INTRA-LIGAND FREE ENERGY PREDICTED BY IDOCK:   -0.97 KCAL/MOL
REMARK 927      BINDING AFFINITY PREDICTED BY RF-SCORE:    0.00 PKD
ROOT
HETATM    1  C   UNL     1     -10.242  19.931  68.231  1.00  0.00    -0.434 C  
HETATM    2  N   UNL     1      -9.606  20.646  67.121  1.00  0.00    -0.430 NA 
HETATM    3  C   UNL     1      -8.156  20.692  67.338  1.00  0.00    -0.243 C  
ENDROOT
BRANCH   2   4
HETATM    4  C   UNL     1      -9.967  20.004  65.841  1.00  0.00    -0.368 C  
BRANCH   4   5
HETATM    5  C   UNL     1     -10.657  18.642  66.005  1.00  0.00    -0.365 C  
BRANCH   5   6
HETATM    6  O   UNL     1      -9.825  17.585  65.501  1.00  0.00    -0.508 OA 
BRANCH   6   7
HETATM    7  C   UNL     1      -9.260  16.781  66.570  1.00  0.00    -0.268 C  
BRANCH   7   8
HETATM    8  C   UNL     1      -9.358  15.303  66.198  1.00  0.00    -0.360 A  
HETATM    9  C   UNL     1      -8.797  14.336  67.052  1.00  0.00    -0.243 A  
HETATM   10  C   UNL     1     -10.154  14.875  65.121  1.00  0.00    -0.354 A  
HETATM   11 CL   UNL     1     -10.320  10.919  65.650  1.00  0.00    -0.313 Cl 
HETATM   12  C   UNL     1      -9.081  12.980  66.872  1.00  0.00    -0.227 A  
HETATM   13  C   UNL     1     -10.425  13.519  64.935  1.00  0.00    -0.417 A  
HETATM   14  C   UNL     1      -9.905  12.580  65.823  1.00  0.00    -0.234 A  
ENDBRANCH   7   8
BRANCH   7  15
HETATM   15  C   UNL     1      -7.836  17.228  66.908  1.00  0.00    -0.218 A  
HETATM   16  C   UNL     1      -6.234  17.646  68.537  1.00  0.00    -0.182 A  
HETATM   17  C   UNL     1      -5.616  17.893  66.257  1.00  0.00    -0.222 A  
HETATM   18  C   UNL     1      -6.915  17.533  65.903  1.00  0.00    -0.216 A  
HETATM   19  N   UNL     1      -7.501  17.284  68.227  1.00  0.00    -0.215 NA 
HETATM   20  C   UNL     1      -5.265  17.949  67.597  1.00  0.00    -0.135 A  
ENDBRANCH   7  15
ENDBRANCH   6   7
ENDBRANCH   5   6
ENDBRANCH   4   5
ENDBRANCH   2   4
TORSDOF 6
ENDMDL
MODEL       62
REMARK 921   NORMALIZED FREE ENERGY PREDICTED BY IDOCK:   -4.61 KCAL/MOL
REMARK 922        TOTAL FREE ENERGY PREDICTED BY IDOCK:   -6.87 KCAL/MOL
REMARK 923 INTER-LIGAND FREE ENERGY PREDICTED BY IDOCK:   -6.24 KCAL/MOL
REMARK 924 INTRA-LIGAND FREE ENERGY PREDICTED BY IDOCK:   -0.63 KCAL/MOL
REMARK 927      BINDING AFFINITY PREDICTED BY RF-SCORE:    0.00 PKD
ROOT
HETATM    1  C   UNL     1      -9.019  16.536  68.015  1.00  0.00    -0.204 C  
HETATM    2  N   UNL     1      -9.693  15.237  68.090  1.00  0.00    -0.210 NA 
HETATM    3  C   UNL     1     -11.139  15.428  67.933  1.00  0.00    -0.323 C  
ENDROOT
BRANCH   2   4
HETATM    4  C   UNL     1      -9.130  14.322  67.076  1.00  0.00    -0.233 C  
BRANCH   4   5
HETATM    5  C   UNL     1      -8.635  12.989  67.653  1.00  0.00    -0.190 C  
BRANCH   5   6
HETATM    6  O   UNL     1      -9.734  12.092  67.880  1.00  0.00    -0.183 OA 
BRANCH   6   7
HETATM    7  C   UNL     1      -9.805  11.053  66.868  1.00  0.00    -0.191 C  
BRANCH   7   8
HETATM    8  C   UNL     1     -10.252   9.744  67.516  1.00  0.00    -0.271 A  
HETATM    9  C   UNL     1     -10.475   8.613  66.709  1.00  0.00    -0.298 A  
HETATM   10  C   UNL     1     -10.267   9.592  68.914  1.00  0.00    -0.213 A  
HETATM   11 CL   UNL     1     -10.735   5.652  69.379  1.00  0.00    -0.378 Cl 
HETATM   12  C   UNL     1     -10.640   7.352  67.286  1.00  0.00    -0.393 A  
HETATM   13  C   UNL     1     -10.447   8.333  69.488  1.00  0.00    -0.228 A  
HETATM   14  C   UNL     1     -10.611   7.216  68.672  1.00  0.00    -0.189 A  
ENDBRANCH   7   8
BRANCH   7  15
HETATM   15  C   UNL     1     -10.689  11.481  65.694  1.00  0.00    -0.267 A  
HETATM   16  C   UNL     1     -12.566  12.631  64.955  1.00  0.00    -0.450 A  
HETATM   17  C   UNL     1     -11.166  11.599  63.337  1.00  0.00    -0.401 A  
HETATM   18  C   UNL     1     -10.355  11.150  64.378  1.00  0.00    -0.407 A  
HETATM   19  N   UNL     1     -11.794  12.220  65.988  1.00  0.00    -0.562 NA 
HETATM   20  C   UNL     1     -12.292  12.355  63.627  1.00  0.00    -0.647 A  
ENDBRANCH   7  15
ENDBRANCH   6   7
ENDBRANCH   5   6
ENDBRANCH   4   5
ENDBRANCH   2   4
TORSDOF 6
ENDMDL
MODEL       63
REMARK 921   NORMALIZED FREE ENERGY PREDICTED BY IDOCK:   -4.60 KCAL/MOL
REMARK 922        TOTAL FREE ENERGY PREDICTED BY IDOCK:   -6.86 KCAL/MOL
REMARK 923 INTER-LIGAND FREE ENERGY PREDICTED BY IDOCK:   -6.20 KCAL/MOL
REMARK 924 INTRA-LIGAND FREE ENERGY PREDICTED BY IDOCK:   -0.66 KCAL/MOL
REMARK 927      BINDING AFFINITY PREDICTED BY RF-SCORE:    0.00 PKD
ROOT
HETATM    1  C   UNL     1      -6.142  12.933  69.635  1.00  0.00    -0.124 C  
HETATM    2  N   UNL     1      -6.679  11.740  68.973  1.00  0.00    -0.094 NA 
HETATM    3  C   UNL     1      -6.825  10.662  69.957  1.00  0.00    -0.148 C  
ENDROOT
BRANCH   2   4
HETATM    4  C   UNL     1      -7.954  12.072  68.304  1.00  0.00    -0.149 C  
BRANCH   4   5
HETATM    5  C   UNL     1      -8.162  13.576  68.081  1.00  0.00    -0.162 C  
BRANCH   5   6
HETATM    6  O   UNL     1      -8.726  13.826  66.784  1.00  0.00    -0.190 OA 
BRANCH   6   7
HETATM    7  C   UNL     1     -10.158  14.056  66.849  1.00  0.00    -0.259 C  
BRANCH   7   8
HETATM    8  C   UNL     1     -10.428  15.559  66.900  1.00  0.00    -0.301 A  
HETATM    9  C   UNL     1     -10.606  16.189  68.145  1.00  0.00    -0.290 A  
HETATM   10  C   UNL     1     -10.319  16.357  65.747  1.00  0.00    -0.388 A  
HETATM   11 CL   UNL     1     -10.376  20.069  67.221  1.00  0.00    -0.560 Cl 
HETATM   12  C   UNL     1     -10.606  17.582  68.241  1.00  0.00    -0.354 A  
HETATM   13  C   UNL     1     -10.334  17.749  65.844  1.00  0.00    -0.257 A  
HETATM   14  C   UNL     1     -10.456  18.355  67.093  1.00  0.00    -0.404 A  
ENDBRANCH   7   8
BRANCH   7  15
HETATM   15  C   UNL     1     -10.887  13.348  65.705  1.00  0.00    -0.283 A  
HETATM   16  C   UNL     1     -12.904  12.771  64.709  1.00  0.00    -0.293 A  
HETATM   17  C   UNL     1     -10.888  12.144  63.620  1.00  0.00    -0.523 A  
HETATM   18  C   UNL     1     -10.182  12.739  64.664  1.00  0.00    -0.321 A  
HETATM   19  N   UNL     1     -12.249  13.366  65.733  1.00  0.00    -0.437 NA 
HETATM   20  C   UNL     1     -12.275  12.161  63.638  1.00  0.00    -0.663 A  
ENDBRANCH   7  15
ENDBRANCH   6   7
ENDBRANCH   5   6
ENDBRANCH   4   5
ENDBRANCH   2   4
TORSDOF 6
ENDMDL
MODEL       64
REMARK 921   NORMALIZED FREE ENERGY PREDICTED BY IDOCK:   -4.59 KCAL/MOL
REMARK 922        TOTAL FREE ENERGY PREDICTED BY IDOCK:   -6.85 KCAL/MOL
REMARK 923 INTER-LIGAND FREE ENERGY PREDICTED BY IDOCK:   -6.12 KCAL/MOL
REMARK 924 INTRA-LIGAND FREE ENERGY PREDICTED BY IDOCK:   -0.74 KCAL/MOL
REMARK 927      BINDING AFFINITY PREDICTED BY RF-SCORE:    0.00 PKD
ROOT
HETATM    1  C   UNL     1      -7.170  12.955  67.481  1.00  0.00    -0.148 C  
HETATM    2  N   UNL     1      -6.923  13.934  68.544  1.00  0.00    -0.093 NA 
HETATM    3  C   UNL     1      -5.539  14.413  68.453  1.00  0.00    -0.107 C  
ENDROOT
BRANCH   2   4
HETATM    4  C   UNL     1      -7.908  15.031  68.451  1.00  0.00    -0.125 C  
BRANCH   4   5
HETATM    5  C   UNL     1      -9.257  14.707  69.108  1.00  0.00    -0.037 C  
BRANCH   5   6
HETATM    6  O   UNL     1     -10.313  15.475  68.509  1.00  0.00    -0.219 OA 
BRANCH   6   7
HETATM    7  C   UNL     1      -9.982  15.894  67.159  1.00  0.00    -0.240 C  
BRANCH   7   8
HETATM    8  C   UNL     1     -10.774  15.052  66.159  1.00  0.00    -0.328 A  
HETATM    9  C   UNL     1     -10.108  14.467  65.067  1.00  0.00    -0.325 A  
HETATM   10  C   UNL     1     -12.112  14.698  66.405  1.00  0.00    -0.229 A  
HETATM   11 CL   UNL     1     -12.811  11.887  63.654  1.00  0.00    -0.552 Cl 
HETATM   12  C   UNL     1     -10.743  13.501  64.284  1.00  0.00    -0.324 A  
HETATM   13  C   UNL     1     -12.749  13.743  65.612  1.00  0.00    -0.523 A  
HETATM   14  C   UNL     1     -12.056  13.134  64.569  1.00  0.00    -0.404 A  
ENDBRANCH   7   8
BRANCH   7  15
HETATM   15  C   UNL     1     -10.187  17.400  66.980  1.00  0.00    -0.323 A  
HETATM   16  C   UNL     1     -10.778  19.157  65.581  1.00  0.00    -0.220 A  
HETATM   17  C   UNL     1     -10.264  19.644  67.848  1.00  0.00    -0.574 A  
HETATM   18  C   UNL     1     -10.024  18.285  68.047  1.00  0.00    -0.362 A  
HETATM   19  N   UNL     1     -10.563  17.831  65.743  1.00  0.00    -0.523 NA 
HETATM   20  C   UNL     1     -10.650  20.091  66.594  1.00  0.00    -0.461 A  
ENDBRANCH   7  15
ENDBRANCH   6   7
ENDBRANCH   5   6
ENDBRANCH   4   5
ENDBRANCH   2   4
TORSDOF 6
ENDMDL
MODEL       65
REMARK 921   NORMALIZED FREE ENERGY PREDICTED BY IDOCK:   -4.57 KCAL/MOL
REMARK 922        TOTAL FREE ENERGY PREDICTED BY IDOCK:   -6.82 KCAL/MOL
REMARK 923 INTER-LIGAND FREE ENERGY PREDICTED BY IDOCK:   -6.01 KCAL/MOL
REMARK 924 INTRA-LIGAND FREE ENERGY PREDICTED BY IDOCK:   -0.81 KCAL/MOL
REMARK 927      BINDING AFFINITY PREDICTED BY RF-SCORE:    0.00 PKD
ROOT
HETATM    1  C   UNL     1      -9.487   9.720  64.765  1.00  0.00    -0.251 C  
HETATM    2  N   UNL     1      -9.552  10.834  63.816  1.00  0.00    -0.267 NA 
HETATM    3  C   UNL     1      -9.203  10.353  62.475  1.00  0.00    -0.296 C  
ENDROOT
BRANCH   2   4
HETATM    4  C   UNL     1     -10.894  11.453  63.864  1.00  0.00    -0.393 C  
BRANCH   4   5
HETATM    5  C   UNL     1     -10.865  12.986  63.922  1.00  0.00    -0.313 C  
BRANCH   5   6
HETATM    6  O   UNL     1     -11.310  13.456  65.204  1.00  0.00    -0.293 OA 
BRANCH   6   7
HETATM    7  C   UNL     1     -10.220  13.545  66.159  1.00  0.00    -0.302 C  
BRANCH   7   8
HETATM    8  C   UNL     1     -10.163  14.960  66.733  1.00  0.00    -0.259 A  
HETATM    9  C   UNL     1      -9.375  15.935  66.093  1.00  0.00    -0.385 A  
HETATM   10  C   UNL     1     -11.020  15.358  67.773  1.00  0.00    -0.311 A  
HETATM   11 CL   UNL     1     -10.585  19.329  67.819  1.00  0.00    -0.521 Cl 
HETATM   12  C   UNL     1      -9.495  17.282  66.441  1.00  0.00    -0.282 A  
HETATM   13  C   UNL     1     -11.127  16.703  68.128  1.00  0.00    -0.285 A  
HETATM   14  C   UNL     1     -10.380  17.661  67.446  1.00  0.00    -0.360 A  
ENDBRANCH   7   8
BRANCH   7  15
HETATM   15  C   UNL     1     -10.332  12.460  67.232  1.00  0.00    -0.215 A  
HETATM   16  C   UNL     1      -9.288  11.197  68.878  1.00  0.00    -0.106 A  
HETATM   17  C   UNL     1     -11.621  10.907  68.544  1.00  0.00    -0.360 A  
HETATM   18  C   UNL     1     -11.558  11.858  67.528  1.00  0.00    -0.374 A  
HETATM   19  N   UNL     1      -9.193  12.132  67.904  1.00  0.00    -0.182 NA 
HETATM   20  C   UNL     1     -10.467  10.569  69.235  1.00  0.00    -0.258 A  
ENDBRANCH   7  15
ENDBRANCH   6   7
ENDBRANCH   5   6
ENDBRANCH   4   5
ENDBRANCH   2   4
TORSDOF 6
ENDMDL
MODEL       66
REMARK 921   NORMALIZED FREE ENERGY PREDICTED BY IDOCK:   -4.57 KCAL/MOL
REMARK 922        TOTAL FREE ENERGY PREDICTED BY IDOCK:   -6.82 KCAL/MOL
REMARK 923 INTER-LIGAND FREE ENERGY PREDICTED BY IDOCK:   -6.11 KCAL/MOL
REMARK 924 INTRA-LIGAND FREE ENERGY PREDICTED BY IDOCK:   -0.71 KCAL/MOL
REMARK 927      BINDING AFFINITY PREDICTED BY RF-SCORE:    0.00 PKD
ROOT
HETATM    1  C   UNL     1     -12.180  13.630  63.665  1.00  0.00    -0.317 C  
HETATM    2  N   UNL     1     -12.038  12.320  64.307  1.00  0.00    -0.407 NA 
HETATM    3  C   UNL     1     -10.914  11.599  63.700  1.00  0.00    -0.431 C  
ENDROOT
BRANCH   2   4
HETATM    4  C   UNL     1     -11.878  12.493  65.766  1.00  0.00    -0.437 C  
BRANCH   4   5
HETATM    5  C   UNL     1     -12.338  13.864  66.279  1.00  0.00    -0.449 C  
BRANCH   5   6
HETATM    6  O   UNL     1     -11.487  14.322  67.343  1.00  0.00    -0.312 OA 
BRANCH   6   7
HETATM    7  C   UNL     1     -10.289  14.969  66.840  1.00  0.00    -0.266 C  
BRANCH   7   8
HETATM    8  C   UNL     1     -10.412  16.480  67.029  1.00  0.00    -0.289 A  
HETATM    9  C   UNL     1     -10.420  17.017  68.329  1.00  0.00    -0.363 A  
HETATM   10  C   UNL     1     -10.330  17.359  65.934  1.00  0.00    -0.276 A  
HETATM   11 CL   UNL     1      -9.910  20.926  67.682  1.00  0.00    -0.408 Cl 
HETATM   12  C   UNL     1     -10.281  18.392  68.529  1.00  0.00    -0.394 A  
HETATM   13  C   UNL     1     -10.206  18.734  66.136  1.00  0.00    -0.462 A  
HETATM   14  C   UNL     1     -10.161  19.242  67.433  1.00  0.00    -0.389 A  
ENDBRANCH   7   8
BRANCH   7  15
HETATM   15  C   UNL     1      -9.030  14.380  67.480  1.00  0.00    -0.190 A  
HETATM   16  C   UNL     1      -7.999  12.564  68.499  1.00  0.00    -0.097 A  
HETATM   17  C   UNL     1      -6.705  14.514  68.092  1.00  0.00    -0.129 A  
HETATM   18  C   UNL     1      -7.839  15.107  67.540  1.00  0.00    -0.203 A  
HETATM   19  N   UNL     1      -9.116  13.108  67.960  1.00  0.00    -0.200 NA 
HETATM   20  C   UNL     1      -6.783  13.218  68.579  1.00  0.00    -0.092 A  
ENDBRANCH   7  15
ENDBRANCH   6   7
ENDBRANCH   5   6
ENDBRANCH   4   5
ENDBRANCH   2   4
TORSDOF 6
ENDMDL
MODEL       67
REMARK 921   NORMALIZED FREE ENERGY PREDICTED BY IDOCK:   -4.56 KCAL/MOL
REMARK 922        TOTAL FREE ENERGY PREDICTED BY IDOCK:   -6.81 KCAL/MOL
REMARK 923 INTER-LIGAND FREE ENERGY PREDICTED BY IDOCK:   -6.17 KCAL/MOL
REMARK 924 INTRA-LIGAND FREE ENERGY PREDICTED BY IDOCK:   -0.64 KCAL/MOL
REMARK 927      BINDING AFFINITY PREDICTED BY RF-SCORE:    0.00 PKD
ROOT
HETATM    1  C   UNL     1      -9.100   6.791  66.079  1.00  0.00    -0.072 C  
HETATM    2  N   UNL     1      -8.632   8.170  65.907  1.00  0.00    -0.144 NA 
HETATM    3  C   UNL     1      -7.935   8.291  64.622  1.00  0.00    -0.145 C  
ENDROOT
BRANCH   2   4
HETATM    4  C   UNL     1      -9.772   9.103  66.023  1.00  0.00    -0.287 C  
BRANCH   4   5
HETATM    5  C   UNL     1     -10.406   9.133  67.420  1.00  0.00    -0.264 C  
BRANCH   5   6
HETATM    6  O   UNL     1     -11.439  10.129  67.490  1.00  0.00    -0.249 OA 
BRANCH   6   7
HETATM    7  C   UNL     1     -10.944  11.389  68.014  1.00  0.00    -0.237 C  
BRANCH   7   8
HETATM    8  C   UNL     1     -10.977  12.445  66.911  1.00  0.00    -0.307 A  
HETATM    9  C   UNL     1     -12.142  12.602  66.138  1.00  0.00    -0.399 A  
HETATM   10  C   UNL     1      -9.942  13.386  66.773  1.00  0.00    -0.264 A  
HETATM   11 CL   UNL     1     -11.491  16.055  64.237  1.00  0.00    -0.336 Cl 
HETATM   12  C   UNL     1     -12.293  13.709  65.300  1.00  0.00    -0.498 A  
HETATM   13  C   UNL     1     -10.089  14.484  65.924  1.00  0.00    -0.346 A  
HETATM   14  C   UNL     1     -11.272  14.651  65.208  1.00  0.00    -0.358 A  
ENDBRANCH   7   8
BRANCH   7  15
HETATM   15  C   UNL     1     -11.708  11.805  69.273  1.00  0.00    -0.335 A  
HETATM   16  C   UNL     1     -12.901  11.162  71.159  1.00  0.00    -0.374 A  
HETATM   17  C   UNL     1     -12.482  13.476  70.824  1.00  0.00    -0.428 A  
HETATM   18  C   UNL     1     -11.814  13.147  69.646  1.00  0.00    -0.390 A  
HETATM   19  N   UNL     1     -12.252  10.808  70.026  1.00  0.00    -0.331 NA 
HETATM   20  C   UNL     1     -13.035  12.467  71.599  1.00  0.00    -0.405 A  
ENDBRANCH   7  15
ENDBRANCH   6   7
ENDBRANCH   5   6
ENDBRANCH   4   5
ENDBRANCH   2   4
TORSDOF 6
ENDMDL
MODEL       68
REMARK 921   NORMALIZED FREE ENERGY PREDICTED BY IDOCK:   -4.55 KCAL/MOL
REMARK 922        TOTAL FREE ENERGY PREDICTED BY IDOCK:   -6.80 KCAL/MOL
REMARK 923 INTER-LIGAND FREE ENERGY PREDICTED BY IDOCK:   -6.12 KCAL/MOL
REMARK 924 INTRA-LIGAND FREE ENERGY PREDICTED BY IDOCK:   -0.68 KCAL/MOL
REMARK 927      BINDING AFFINITY PREDICTED BY RF-SCORE:    0.00 PKD
ROOT
HETATM    1  C   UNL     1      -9.278   9.929  64.347  1.00  0.00    -0.264 C  
HETATM    2  N   UNL     1     -10.354  10.384  65.233  1.00  0.00    -0.255 NA 
HETATM    3  C   UNL     1     -10.159   9.812  66.569  1.00  0.00    -0.239 C  
ENDROOT
BRANCH   2   4
HETATM    4  C   UNL     1     -10.395  11.861  65.250  1.00  0.00    -0.276 C  
BRANCH   4   5
HETATM    5  C   UNL     1     -11.815  12.440  65.212  1.00  0.00    -0.399 C  
BRANCH   5   6
HETATM    6  O   UNL     1     -11.963  13.493  66.178  1.00  0.00    -0.368 OA 
BRANCH   6   7
HETATM    7  C   UNL     1     -10.927  13.448  67.194  1.00  0.00    -0.280 C  
BRANCH   7   8
HETATM    8  C   UNL     1     -10.010  14.660  67.039  1.00  0.00    -0.246 A  
HETATM    9  C   UNL     1      -8.722  14.630  67.603  1.00  0.00    -0.181 A  
HETATM   10  C   UNL     1     -10.353  15.727  66.191  1.00  0.00    -0.333 A  
HETATM   11 CL   UNL     1      -6.943  17.791  65.928  1.00  0.00    -0.330 Cl 
HETATM   12  C   UNL     1      -7.780  15.606  67.272  1.00  0.00    -0.239 A  
HETATM   13  C   UNL     1      -9.415  16.710  65.873  1.00  0.00    -0.218 A  
HETATM   14  C   UNL     1      -8.127  16.633  66.398  1.00  0.00    -0.324 A  
ENDBRANCH   7   8
BRANCH   7  15
HETATM   15  C   UNL     1     -11.530  13.320  68.595  1.00  0.00    -0.304 A  
HETATM   16  C   UNL     1     -12.498  14.365  70.429  1.00  0.00    -0.357 A  
HETATM   17  C   UNL     1     -12.278  12.001  70.465  1.00  0.00    -0.414 A  
HETATM   18  C   UNL     1     -11.684  12.073  69.206  1.00  0.00    -0.389 A  
HETATM   19  N   UNL     1     -11.934  14.470  69.204  1.00  0.00    -0.319 NA 
HETATM   20  C   UNL     1     -12.696  13.166  71.090  1.00  0.00    -0.386 A  
ENDBRANCH   7  15
ENDBRANCH   6   7
ENDBRANCH   5   6
ENDBRANCH   4   5
ENDBRANCH   2   4
TORSDOF 6
ENDMDL
MODEL       69
REMARK 921   NORMALIZED FREE ENERGY PREDICTED BY IDOCK:   -4.54 KCAL/MOL
REMARK 922        TOTAL FREE ENERGY PREDICTED BY IDOCK:   -6.78 KCAL/MOL
REMARK 923 INTER-LIGAND FREE ENERGY PREDICTED BY IDOCK:   -6.25 KCAL/MOL
REMARK 924 INTRA-LIGAND FREE ENERGY PREDICTED BY IDOCK:   -0.53 KCAL/MOL
REMARK 927      BINDING AFFINITY PREDICTED BY RF-SCORE:    0.00 PKD
ROOT
HETATM    1  C   UNL     1     -12.095   8.247  72.413  1.00  0.00    -0.369 C  
HETATM    2  N   UNL     1     -13.004   8.862  71.441  1.00  0.00    -0.307 NA 
HETATM    3  C   UNL     1     -14.390   8.556  71.810  1.00  0.00    -0.437 C  
ENDROOT
BRANCH   2   4
HETATM    4  C   UNL     1     -12.746  10.314  71.364  1.00  0.00    -0.442 C  
BRANCH   4   5
HETATM    5  C   UNL     1     -12.014  10.745  70.085  1.00  0.00    -0.349 C  
BRANCH   5   6
HETATM    6  O   UNL     1     -11.844  12.171  70.050  1.00  0.00    -0.328 OA 
BRANCH   6   7
HETATM    7  C   UNL     1     -11.834  12.684  68.692  1.00  0.00    -0.302 C  
BRANCH   7   8
HETATM    8  C   UNL     1     -11.609  14.195  68.723  1.00  0.00    -0.362 A  
HETATM    9  C   UNL     1     -11.546  14.860  69.961  1.00  0.00    -0.331 A  
HETATM   10  C   UNL     1     -11.280  14.905  67.555  1.00  0.00    -0.334 A  
HETATM   11 CL   UNL     1     -10.113  18.455  68.967  1.00  0.00    -0.363 Cl 
HETATM   12  C   UNL     1     -11.099  16.181  70.033  1.00  0.00    -0.363 A  
HETATM   13  C   UNL     1     -10.848  16.230  67.629  1.00  0.00    -0.293 A  
HETATM   14  C   UNL     1     -10.739  16.855  68.869  1.00  0.00    -0.321 A  
ENDBRANCH   7   8
BRANCH   7  15
HETATM   15  C   UNL     1     -10.818  11.938  67.824  1.00  0.00    -0.211 A  
HETATM   16  C   UNL     1     -10.393  10.709  65.900  1.00  0.00    -0.224 A  
HETATM   17  C   UNL     1      -8.568  11.244  67.324  1.00  0.00    -0.143 A  
HETATM   18  C   UNL     1      -9.465  11.897  68.167  1.00  0.00    -0.195 A  
HETATM   19  N   UNL     1     -11.288  11.344  66.692  1.00  0.00    -0.387 NA 
HETATM   20  C   UNL     1      -9.037  10.639  66.167  1.00  0.00    -0.190 A  
ENDBRANCH   7  15
ENDBRANCH   6   7
ENDBRANCH   5   6
ENDBRANCH   4   5
ENDBRANCH   2   4
TORSDOF 6
ENDMDL
MODEL       70
REMARK 921   NORMALIZED FREE ENERGY PREDICTED BY IDOCK:   -4.53 KCAL/MOL
REMARK 922        TOTAL FREE ENERGY PREDICTED BY IDOCK:   -6.76 KCAL/MOL
REMARK 923 INTER-LIGAND FREE ENERGY PREDICTED BY IDOCK:   -6.01 KCAL/MOL
REMARK 924 INTRA-LIGAND FREE ENERGY PREDICTED BY IDOCK:   -0.75 KCAL/MOL
REMARK 927      BINDING AFFINITY PREDICTED BY RF-SCORE:    0.00 PKD
ROOT
HETATM    1  C   UNL     1      -8.551   8.518  66.357  1.00  0.00    -0.125 C  
HETATM    2  N   UNL     1      -8.790   7.366  67.232  1.00  0.00    -0.123 NA 
HETATM    3  C   UNL     1      -7.716   7.281  68.228  1.00  0.00    -0.120 C  
ENDROOT
BRANCH   2   4
HETATM    4  C   UNL     1     -10.127   7.477  67.850  1.00  0.00    -0.182 C  
BRANCH   4   5
HETATM    5  C   UNL     1     -10.418   6.391  68.894  1.00  0.00    -0.223 C  
BRANCH   5   6
HETATM    6  O   UNL     1     -11.392   6.846  69.847  1.00  0.00    -0.294 OA 
BRANCH   6   7
HETATM    7  C   UNL     1     -10.803   7.705  70.859  1.00  0.00    -0.241 C  
BRANCH   7   8
HETATM    8  C   UNL     1     -11.658   8.961  71.017  1.00  0.00    -0.347 A  
HETATM    9  C   UNL     1     -12.688   8.981  71.975  1.00  0.00    -0.467 A  
HETATM   10  C   UNL     1     -11.321  10.158  70.360  1.00  0.00    -0.401 A  
HETATM   11 CL   UNL     1     -13.659  12.852  72.157  1.00  0.00    -0.626 Cl 
HETATM   12  C   UNL     1     -13.316  10.181  72.315  1.00  0.00    -0.337 A  
HETATM   13  C   UNL     1     -11.961  11.353  70.691  1.00  0.00    -0.413 A  
HETATM   14  C   UNL     1     -12.940  11.363  71.682  1.00  0.00    -0.418 A  
ENDBRANCH   7   8
BRANCH   7  15
HETATM   15  C   UNL     1     -10.589   6.949  72.172  1.00  0.00    -0.213 A  
HETATM   16  C   UNL     1     -11.013   5.057  73.451  1.00  0.00    -0.327 A  
HETATM   17  C   UNL     1      -9.556   6.712  74.334  1.00  0.00    -0.304 A  
HETATM   18  C   UNL     1      -9.756   7.456  73.172  1.00  0.00    -0.281 A  
HETATM   19  N   UNL     1     -11.221   5.750  72.307  1.00  0.00    -0.275 NA 
HETATM   20  C   UNL     1     -10.192   5.489  74.478  1.00  0.00    -0.291 A  
ENDBRANCH   7  15
ENDBRANCH   6   7
ENDBRANCH   5   6
ENDBRANCH   4   5
ENDBRANCH   2   4
TORSDOF 6
ENDMDL
MODEL       71
REMARK 921   NORMALIZED FREE ENERGY PREDICTED BY IDOCK:   -4.51 KCAL/MOL
REMARK 922        TOTAL FREE ENERGY PREDICTED BY IDOCK:   -6.74 KCAL/MOL
REMARK 923 INTER-LIGAND FREE ENERGY PREDICTED BY IDOCK:   -6.10 KCAL/MOL
REMARK 924 INTRA-LIGAND FREE ENERGY PREDICTED BY IDOCK:   -0.64 KCAL/MOL
REMARK 927      BINDING AFFINITY PREDICTED BY RF-SCORE:    0.00 PKD
ROOT
HETATM    1  C   UNL     1      -6.312  10.260  70.419  1.00  0.00    -0.127 C  
HETATM    2  N   UNL     1      -6.789  11.563  69.945  1.00  0.00    -0.006 NA 
HETATM    3  C   UNL     1      -5.892  12.616  70.432  1.00  0.00    -0.155 C  
ENDROOT
BRANCH   2   4
HETATM    4  C   UNL     1      -6.899  11.549  68.472  1.00  0.00    -0.074 C  
BRANCH   4   5
HETATM    5  C   UNL     1      -8.338  11.396  67.961  1.00  0.00    -0.143 C  
BRANCH   5   6
HETATM    6  O   UNL     1      -9.085  12.605  68.172  1.00  0.00    -0.196 OA 
BRANCH   6   7
HETATM    7  C   UNL     1     -10.512  12.400  67.997  1.00  0.00    -0.217 C  
BRANCH   7   8
HETATM    8  C   UNL     1     -11.263  13.042  69.163  1.00  0.00    -0.297 A  
HETATM    9  C   UNL     1     -11.370  14.443  69.229  1.00  0.00    -0.319 A  
HETATM   10  C   UNL     1     -12.006  12.263  70.067  1.00  0.00    -0.379 A  
HETATM   11 CL   UNL     1     -14.147  14.992  72.047  1.00  0.00    -0.573 Cl 
HETATM   12  C   UNL     1     -12.249  15.045  70.131  1.00  0.00    -0.392 A  
HETATM   13  C   UNL     1     -12.873  12.868  70.978  1.00  0.00    -0.268 A  
HETATM   14  C   UNL     1     -13.006  14.254  70.991  1.00  0.00    -0.342 A  
ENDBRANCH   7   8
BRANCH   7  15
HETATM   15  C   UNL     1     -10.981  12.896  66.628  1.00  0.00    -0.276 A  
HETATM   16  C   UNL     1     -12.563  12.802  64.931  1.00  0.00    -0.470 A  
HETATM   17  C   UNL     1     -10.770  14.344  64.716  1.00  0.00    -0.423 A  
HETATM   18  C   UNL     1     -10.282  13.892  65.940  1.00  0.00    -0.326 A  
HETATM   19  N   UNL     1     -12.122  12.347  66.126  1.00  0.00    -0.641 NA 
HETATM   20  C   UNL     1     -11.933  13.793  64.200  1.00  0.00    -0.473 A  
ENDBRANCH   7  15
ENDBRANCH   6   7
ENDBRANCH   5   6
ENDBRANCH   4   5
ENDBRANCH   2   4
TORSDOF 6
ENDMDL
MODEL       72
REMARK 921   NORMALIZED FREE ENERGY PREDICTED BY IDOCK:   -4.47 KCAL/MOL
REMARK 922        TOTAL FREE ENERGY PREDICTED BY IDOCK:   -6.69 KCAL/MOL
REMARK 923 INTER-LIGAND FREE ENERGY PREDICTED BY IDOCK:   -5.84 KCAL/MOL
REMARK 924 INTRA-LIGAND FREE ENERGY PREDICTED BY IDOCK:   -0.85 KCAL/MOL
REMARK 927      BINDING AFFINITY PREDICTED BY RF-SCORE:    0.00 PKD
ROOT
HETATM    1  C   UNL     1     -11.407   7.698  70.509  1.00  0.00    -0.250 C  
HETATM    2  N   UNL     1     -12.044   8.327  71.670  1.00  0.00    -0.292 NA 
HETATM    3  C   UNL     1     -11.559   7.687  72.898  1.00  0.00    -0.228 C  
ENDROOT
BRANCH   2   4
HETATM    4  C   UNL     1     -11.789   9.782  71.652  1.00  0.00    -0.354 C  
BRANCH   4   5
HETATM    5  C   UNL     1     -12.640  10.546  70.628  1.00  0.00    -0.369 C  
BRANCH   5   6
HETATM    6  O   UNL     1     -11.849  11.525  69.937  1.00  0.00    -0.302 OA 
BRANCH   6   7
HETATM    7  C   UNL     1     -11.750  11.240  68.517  1.00  0.00    -0.308 C  
BRANCH   7   8
HETATM    8  C   UNL     1     -11.719  12.554  67.737  1.00  0.00    -0.419 A  
HETATM    9  C   UNL     1     -11.312  13.734  68.385  1.00  0.00    -0.326 A  
HETATM   10  C   UNL     1     -11.908  12.577  66.344  1.00  0.00    -0.445 A  
HETATM   11 CL   UNL     1     -10.775  16.277  65.351  1.00  0.00    -0.381 Cl 
HETATM   12  C   UNL     1     -11.036  14.888  67.649  1.00  0.00    -0.315 A  
HETATM   13  C   UNL     1     -11.646  13.736  65.612  1.00  0.00    -0.339 A  
HETATM   14  C   UNL     1     -11.191  14.879  66.265  1.00  0.00    -0.331 A  
ENDBRANCH   7   8
BRANCH   7  15
HETATM   15  C   UNL     1     -10.558  10.329  68.215  1.00  0.00    -0.221 A  
HETATM   16  C   UNL     1      -8.393   9.673  68.742  1.00  0.00    -0.111 A  
HETATM   17  C   UNL     1      -9.533   8.514  67.010  1.00  0.00    -0.223 A  
HETATM   18  C   UNL     1     -10.627   9.350  67.221  1.00  0.00    -0.314 A  
HETATM   19  N   UNL     1      -9.442  10.495  68.978  1.00  0.00    -0.196 NA 
HETATM   20  C   UNL     1      -8.394   8.674  67.785  1.00  0.00    -0.118 A  
ENDBRANCH   7  15
ENDBRANCH   6   7
ENDBRANCH   5   6
ENDBRANCH   4   5
ENDBRANCH   2   4
TORSDOF 6
ENDMDL
MODEL       73
REMARK 921   NORMALIZED FREE ENERGY PREDICTED BY IDOCK:   -4.45 KCAL/MOL
REMARK 922        TOTAL FREE ENERGY PREDICTED BY IDOCK:   -6.66 KCAL/MOL
REMARK 923 INTER-LIGAND FREE ENERGY PREDICTED BY IDOCK:   -5.98 KCAL/MOL
REMARK 924 INTRA-LIGAND FREE ENERGY PREDICTED BY IDOCK:   -0.68 KCAL/MOL
REMARK 927      BINDING AFFINITY PREDICTED BY RF-SCORE:    0.00 PKD
ROOT
HETATM    1  C   UNL     1      -9.361  10.278  62.338  1.00  0.00    -0.271 C  
HETATM    2  N   UNL     1     -10.091  10.615  63.563  1.00  0.00    -0.292 NA 
HETATM    3  C   UNL     1      -9.299  10.208  64.729  1.00  0.00    -0.268 C  
ENDROOT
BRANCH   2   4
HETATM    4  C   UNL     1     -10.412  12.057  63.572  1.00  0.00    -0.464 C  
BRANCH   4   5
HETATM    5  C   UNL     1     -11.419  12.459  64.659  1.00  0.00    -0.331 C  
BRANCH   5   6
HETATM    6  O   UNL     1     -10.948  13.600  65.393  1.00  0.00    -0.288 OA 
BRANCH   6   7
HETATM    7  C   UNL     1     -11.474  13.631  66.746  1.00  0.00    -0.346 C  
BRANCH   7   8
HETATM    8  C   UNL     1     -10.973  12.407  67.512  1.00  0.00    -0.293 A  
HETATM    9  C   UNL     1      -9.590  12.202  67.661  1.00  0.00    -0.190 A  
HETATM   10  C   UNL     1     -11.860  11.584  68.227  1.00  0.00    -0.327 A  
HETATM   11 CL   UNL     1      -9.408   9.342  70.444  1.00  0.00    -0.269 Cl 
HETATM   12  C   UNL     1      -9.107  11.244  68.555  1.00  0.00    -0.173 A  
HETATM   13  C   UNL     1     -11.376  10.617  69.109  1.00  0.00    -0.338 A  
HETATM   14  C   UNL     1     -10.002  10.466  69.285  1.00  0.00    -0.228 A  
ENDBRANCH   7   8
BRANCH   7  15
HETATM   15  C   UNL     1     -11.145  14.955  67.440  1.00  0.00    -0.325 A  
HETATM   16  C   UNL     1     -11.171  16.222  69.386  1.00  0.00    -0.311 A  
HETATM   17  C   UNL     1     -10.179  17.160  67.442  1.00  0.00    -0.321 A  
HETATM   18  C   UNL     1     -10.497  15.988  66.758  1.00  0.00    -0.308 A  
HETATM   19  N   UNL     1     -11.486  15.068  68.753  1.00  0.00    -0.302 NA 
HETATM   20  C   UNL     1     -10.519  17.282  68.781  1.00  0.00    -0.340 A  
ENDBRANCH   7  15
ENDBRANCH   6   7
ENDBRANCH   5   6
ENDBRANCH   4   5
ENDBRANCH   2   4
TORSDOF 6
ENDMDL
MODEL       74
REMARK 921   NORMALIZED FREE ENERGY PREDICTED BY IDOCK:   -4.45 KCAL/MOL
REMARK 922        TOTAL FREE ENERGY PREDICTED BY IDOCK:   -6.66 KCAL/MOL
REMARK 923 INTER-LIGAND FREE ENERGY PREDICTED BY IDOCK:   -6.05 KCAL/MOL
REMARK 924 INTRA-LIGAND FREE ENERGY PREDICTED BY IDOCK:   -0.60 KCAL/MOL
REMARK 927      BINDING AFFINITY PREDICTED BY RF-SCORE:    0.00 PKD
ROOT
HETATM    1  C   UNL     1     -10.291  19.755  65.949  1.00  0.00    -0.483 C  
HETATM    2  N   UNL     1      -9.245  18.738  66.097  1.00  0.00    -0.472 NA 
HETATM    3  C   UNL     1      -7.930  19.365  65.928  1.00  0.00    -0.184 C  
ENDROOT
BRANCH   2   4
HETATM    4  C   UNL     1      -9.386  18.064  67.404  1.00  0.00    -0.254 C  
BRANCH   4   5
HETATM    5  C   UNL     1     -10.842  17.777  67.798  1.00  0.00    -0.228 C  
BRANCH   5   6
HETATM    6  O   UNL     1     -10.903  17.070  69.047  1.00  0.00    -0.304 OA 
BRANCH   6   7
HETATM    7  C   UNL     1     -11.294  15.684  68.869  1.00  0.00    -0.339 C  
BRANCH   7   8
HETATM    8  C   UNL     1     -10.117  14.894  68.299  1.00  0.00    -0.221 A  
HETATM    9  C   UNL     1      -8.894  14.877  68.994  1.00  0.00    -0.179 A  
HETATM   10  C   UNL     1     -10.281  14.037  67.197  1.00  0.00    -0.258 A  
HETATM   11 CL   UNL     1      -6.880  11.943  67.178  1.00  0.00    -0.144 Cl 
HETATM   12  C   UNL     1      -7.889  13.976  68.637  1.00  0.00    -0.130 A  
HETATM   13  C   UNL     1      -9.270  13.148  66.833  1.00  0.00    -0.236 A  
HETATM   14  C   UNL     1      -8.087  13.107  67.568  1.00  0.00    -0.181 A  
ENDBRANCH   7   8
BRANCH   7  15
HETATM   15  C   UNL     1     -11.849  15.092  70.167  1.00  0.00    -0.313 A  
HETATM   16  C   UNL     1     -12.557  15.443  72.350  1.00  0.00    -0.376 A  
HETATM   17  C   UNL     1     -12.718  13.251  71.451  1.00  0.00    -0.401 A  
HETATM   18  C   UNL     1     -12.175  13.737  70.264  1.00  0.00    -0.429 A  
HETATM   19  N   UNL     1     -12.036  15.949  71.208  1.00  0.00    -0.425 NA 
HETATM   20  C   UNL     1     -12.916  14.117  72.515  1.00  0.00    -0.498 A  
ENDBRANCH   7  15
ENDBRANCH   6   7
ENDBRANCH   5   6
ENDBRANCH   4   5
ENDBRANCH   2   4
TORSDOF 6
ENDMDL
MODEL       75
REMARK 921   NORMALIZED FREE ENERGY PREDICTED BY IDOCK:   -4.42 KCAL/MOL
REMARK 922        TOTAL FREE ENERGY PREDICTED BY IDOCK:   -6.62 KCAL/MOL
REMARK 923 INTER-LIGAND FREE ENERGY PREDICTED BY IDOCK:   -5.59 KCAL/MOL
REMARK 924 INTRA-LIGAND FREE ENERGY PREDICTED BY IDOCK:   -1.03 KCAL/MOL
REMARK 927      BINDING AFFINITY PREDICTED BY RF-SCORE:    0.00 PKD
ROOT
HETATM    1  C   UNL     1     -12.041   8.194  72.210  1.00  0.00    -0.364 C  
HETATM    2  N   UNL     1     -13.080   8.882  71.437  1.00  0.00    -0.302 NA 
HETATM    3  C   UNL     1     -14.321   8.102  71.486  1.00  0.00    -0.430 C  
ENDROOT
BRANCH   2   4
HETATM    4  C   UNL     1     -13.255  10.257  71.949  1.00  0.00    -0.445 C  
BRANCH   4   5
HETATM    5  C   UNL     1     -12.474  11.315  71.158  1.00  0.00    -0.373 C  
BRANCH   5   6
HETATM    6  O   UNL     1     -12.267  10.888  69.802  1.00  0.00    -0.326 OA 
BRANCH   6   7
HETATM    7  C   UNL     1     -10.886  11.053  69.385  1.00  0.00    -0.231 C  
BRANCH   7   8
HETATM    8  C   UNL     1     -10.180   9.698  69.423  1.00  0.00    -0.220 A  
HETATM    9  C   UNL     1     -10.608   8.671  68.561  1.00  0.00    -0.162 A  
HETATM   10  C   UNL     1      -8.999   9.512  70.162  1.00  0.00    -0.269 A  
HETATM   11 CL   UNL     1      -7.661   5.989  68.840  1.00  0.00    -0.089 Cl 
HETATM   12  C   UNL     1      -9.837   7.519  68.394  1.00  0.00    -0.173 A  
HETATM   13  C   UNL     1      -8.238   8.354  70.004  1.00  0.00    -0.121 A  
HETATM   14  C   UNL     1      -8.650   7.372  69.106  1.00  0.00    -0.136 A  
ENDBRANCH   7   8
BRANCH   7  15
HETATM   15  C   UNL     1     -10.795  11.745  68.024  1.00  0.00    -0.213 A  
HETATM   16  C   UNL     1     -11.882  12.477  66.106  1.00  0.00    -0.397 A  
HETATM   17  C   UNL     1      -9.565  12.944  66.337  1.00  0.00    -0.252 A  
HETATM   18  C   UNL     1      -9.591  12.283  67.564  1.00  0.00    -0.184 A  
HETATM   19  N   UNL     1     -11.944  11.838  67.298  1.00  0.00    -0.607 NA 
HETATM   20  C   UNL     1     -10.731  13.046  65.593  1.00  0.00    -0.293 A  
ENDBRANCH   7  15
ENDBRANCH   6   7
ENDBRANCH   5   6
ENDBRANCH   4   5
ENDBRANCH   2   4
TORSDOF 6
ENDMDL
MODEL       76
REMARK 921   NORMALIZED FREE ENERGY PREDICTED BY IDOCK:   -4.42 KCAL/MOL
REMARK 922        TOTAL FREE ENERGY PREDICTED BY IDOCK:   -6.62 KCAL/MOL
REMARK 923 INTER-LIGAND FREE ENERGY PREDICTED BY IDOCK:   -6.13 KCAL/MOL
REMARK 924 INTRA-LIGAND FREE ENERGY PREDICTED BY IDOCK:   -0.49 KCAL/MOL
REMARK 927      BINDING AFFINITY PREDICTED BY RF-SCORE:    0.00 PKD
ROOT
HETATM    1  C   UNL     1      -9.489  18.032  67.300  1.00  0.00    -0.260 C  
HETATM    2  N   UNL     1      -9.037  17.369  66.074  1.00  0.00    -0.516 NA 
HETATM    3  C   UNL     1      -7.724  16.756  66.307  1.00  0.00    -0.275 C  
ENDROOT
BRANCH   2   4
HETATM    4  C   UNL     1     -10.050  16.387  65.634  1.00  0.00    -0.286 C  
BRANCH   4   5
HETATM    5  C   UNL     1     -10.990  15.925  66.756  1.00  0.00    -0.151 C  
BRANCH   5   6
HETATM    6  O   UNL     1     -10.549  14.674  67.308  1.00  0.00    -0.277 OA 
BRANCH   6   7
HETATM    7  C   UNL     1     -11.459  13.589  66.991  1.00  0.00    -0.340 C  
BRANCH   7   8
HETATM    8  C   UNL     1     -10.932  12.824  65.777  1.00  0.00    -0.306 A  
HETATM    9  C   UNL     1      -9.666  12.214  65.840  1.00  0.00    -0.253 A  
HETATM   10  C   UNL     1     -11.757  12.559  64.670  1.00  0.00    -0.416 A  
HETATM   11 CL   UNL     1      -9.653   9.856  62.615  1.00  0.00    -0.154 Cl 
HETATM   12  C   UNL     1      -9.266  11.310  64.855  1.00  0.00    -0.130 A  
HETATM   13  C   UNL     1     -11.348  11.667  63.679  1.00  0.00    -0.485 A  
HETATM   14  C   UNL     1     -10.114  11.030  63.787  1.00  0.00    -0.363 A  
ENDBRANCH   7   8
BRANCH   7  15
HETATM   15  C   UNL     1     -11.705  12.696  68.209  1.00  0.00    -0.342 A  
HETATM   16  C   UNL     1     -12.333  12.531  70.439  1.00  0.00    -0.232 A  
HETATM   17  C   UNL     1     -11.855  10.531  69.250  1.00  0.00    -0.242 A  
HETATM   18  C   UNL     1     -11.578  11.308  68.126  1.00  0.00    -0.359 A  
HETATM   19  N   UNL     1     -12.081  13.313  69.364  1.00  0.00    -0.283 NA 
HETATM   20  C   UNL     1     -12.242  11.150  70.429  1.00  0.00    -0.457 A  
ENDBRANCH   7  15
ENDBRANCH   6   7
ENDBRANCH   5   6
ENDBRANCH   4   5
ENDBRANCH   2   4
TORSDOF 6
ENDMDL
MODEL       77
REMARK 921   NORMALIZED FREE ENERGY PREDICTED BY IDOCK:   -4.39 KCAL/MOL
REMARK 922        TOTAL FREE ENERGY PREDICTED BY IDOCK:   -6.59 KCAL/MOL
REMARK 923 INTER-LIGAND FREE ENERGY PREDICTED BY IDOCK:   -5.87 KCAL/MOL
REMARK 924 INTRA-LIGAND FREE ENERGY PREDICTED BY IDOCK:   -0.71 KCAL/MOL
REMARK 927      BINDING AFFINITY PREDICTED BY RF-SCORE:    0.00 PKD
ROOT
HETATM    1  C   UNL     1      -9.348   8.267  69.534  1.00  0.00    -0.158 C  
HETATM    2  N   UNL     1     -10.762   8.580  69.764  1.00  0.00    -0.228 NA 
HETATM    3  C   UNL     1     -11.283   7.720  70.832  1.00  0.00    -0.271 C  
ENDROOT
BRANCH   2   4
HETATM    4  C   UNL     1     -10.911  10.018  70.072  1.00  0.00    -0.300 C  
BRANCH   4   5
HETATM    5  C   UNL     1     -12.338  10.547  69.872  1.00  0.00    -0.178 C  
BRANCH   5   6
HETATM    6  O   UNL     1     -12.374  11.531  68.826  1.00  0.00    -0.425 OA 
BRANCH   6   7
HETATM    7  C   UNL     1     -11.077  12.148  68.615  1.00  0.00    -0.251 C  
BRANCH   7   8
HETATM    8  C   UNL     1     -10.686  12.017  67.143  1.00  0.00    -0.277 A  
HETATM    9  C   UNL     1      -9.491  11.359  66.801  1.00  0.00    -0.197 A  
HETATM   10  C   UNL     1     -11.581  12.373  66.119  1.00  0.00    -0.452 A  
HETATM   11 CL   UNL     1      -9.866  10.827  62.859  1.00  0.00    -0.333 Cl 
HETATM   12  C   UNL     1      -9.232  11.006  65.475  1.00  0.00    -0.235 A  
HETATM   13  C   UNL     1     -11.312  12.032  64.793  1.00  0.00    -0.369 A  
HETATM   14  C   UNL     1     -10.149  11.332  64.480  1.00  0.00    -0.295 A  
ENDBRANCH   7   8
BRANCH   7  15
HETATM   15  C   UNL     1     -11.060  13.593  69.118  1.00  0.00    -0.231 A  
HETATM   16  C   UNL     1      -9.963  15.638  69.210  1.00  0.00    -0.265 A  
HETATM   17  C   UNL     1     -12.090  15.452  70.250  1.00  0.00    -0.402 A  
HETATM   18  C   UNL     1     -12.129  14.118  69.849  1.00  0.00    -0.405 A  
HETATM   19  N   UNL     1      -9.974  14.349  68.797  1.00  0.00    -0.235 NA 
HETATM   20  C   UNL     1     -10.990  16.230  69.924  1.00  0.00    -0.365 A  
ENDBRANCH   7  15
ENDBRANCH   6   7
ENDBRANCH   5   6
ENDBRANCH   4   5
ENDBRANCH   2   4
TORSDOF 6
ENDMDL
MODEL       78
REMARK 921   NORMALIZED FREE ENERGY PREDICTED BY IDOCK:   -4.39 KCAL/MOL
REMARK 922        TOTAL FREE ENERGY PREDICTED BY IDOCK:   -6.58 KCAL/MOL
REMARK 923 INTER-LIGAND FREE ENERGY PREDICTED BY IDOCK:   -6.61 KCAL/MOL
REMARK 924 INTRA-LIGAND FREE ENERGY PREDICTED BY IDOCK:    0.03 KCAL/MOL
REMARK 927      BINDING AFFINITY PREDICTED BY RF-SCORE:    0.00 PKD
ROOT
HETATM    1  C   UNL     1     -10.427  12.281  63.800  1.00  0.00    -0.444 C  
HETATM    2  N   UNL     1     -11.704  12.854  63.367  1.00  0.00    -0.515 NA 
HETATM    3  C   UNL     1     -12.774  11.872  63.576  1.00  0.00    -0.405 C  
ENDROOT
BRANCH   2   4
HETATM    4  C   UNL     1     -11.952  14.122  64.085  1.00  0.00    -0.393 C  
BRANCH   4   5
HETATM    5  C   UNL     1     -11.417  14.132  65.523  1.00  0.00    -0.324 C  
BRANCH   5   6
HETATM    6  O   UNL     1     -12.482  13.921  66.464  1.00  0.00    -0.424 OA 
BRANCH   6   7
HETATM    7  C   UNL     1     -12.000  13.893  67.833  1.00  0.00    -0.358 C  
BRANCH   7   8
HETATM    8  C   UNL     1     -11.738  12.446  68.249  1.00  0.00    -0.398 A  
HETATM    9  C   UNL     1     -11.295  11.520  67.287  1.00  0.00    -0.359 A  
HETATM   10  C   UNL     1     -11.750  12.064  69.601  1.00  0.00    -0.405 A  
HETATM   11 CL   UNL     1     -10.129   8.415  69.514  1.00  0.00    -0.195 Cl 
HETATM   12  C   UNL     1     -10.813  10.269  67.678  1.00  0.00    -0.363 A  
HETATM   13  C   UNL     1     -11.282  10.808  69.988  1.00  0.00    -0.366 A  
HETATM   14  C   UNL     1     -10.796   9.924  69.026  1.00  0.00    -0.215 A  
ENDBRANCH   7   8
BRANCH   7  15
HETATM   15  C   UNL     1     -10.783  14.804  68.012  1.00  0.00    -0.248 A  
HETATM   16  C   UNL     1      -9.949  16.960  68.231  1.00  0.00    -0.282 A  
HETATM   17  C   UNL     1      -8.428  15.142  68.375  1.00  0.00    -0.157 A  
HETATM   18  C   UNL     1      -9.500  14.276  68.171  1.00  0.00    -0.204 A  
HETATM   19  N   UNL     1     -11.013  16.147  68.040  1.00  0.00    -0.342 NA 
HETATM   20  C   UNL     1      -8.653  16.510  68.409  1.00  0.00    -0.213 A  
ENDBRANCH   7  15
ENDBRANCH   6   7
ENDBRANCH   5   6
ENDBRANCH   4   5
ENDBRANCH   2   4
TORSDOF 6
ENDMDL
MODEL       79
REMARK 921   NORMALIZED FREE ENERGY PREDICTED BY IDOCK:   -4.39 KCAL/MOL
REMARK 922        TOTAL FREE ENERGY PREDICTED BY IDOCK:   -6.58 KCAL/MOL
REMARK 923 INTER-LIGAND FREE ENERGY PREDICTED BY IDOCK:   -5.81 KCAL/MOL
REMARK 924 INTRA-LIGAND FREE ENERGY PREDICTED BY IDOCK:   -0.77 KCAL/MOL
REMARK 927      BINDING AFFINITY PREDICTED BY RF-SCORE:    0.00 PKD
ROOT
HETATM    1  C   UNL     1      -8.316   9.185  66.345  1.00  0.00    -0.122 C  
HETATM    2  N   UNL     1      -8.634  10.017  67.509  1.00  0.00    -0.122 NA 
HETATM    3  C   UNL     1      -8.448   9.232  68.734  1.00  0.00    -0.129 C  
ENDROOT
BRANCH   2   4
HETATM    4  C   UNL     1      -7.807  11.241  67.490  1.00  0.00    -0.123 C  
BRANCH   4   5
HETATM    5  C   UNL     1      -8.520  12.478  68.053  1.00  0.00    -0.173 C  
BRANCH   5   6
HETATM    6  O   UNL     1      -8.713  13.466  67.028  1.00  0.00    -0.216 OA 
BRANCH   6   7
HETATM    7  C   UNL     1     -10.102  13.875  66.923  1.00  0.00    -0.260 C  
BRANCH   7   8
HETATM    8  C   UNL     1     -10.186  15.401  66.964  1.00  0.00    -0.262 A  
HETATM    9  C   UNL     1     -10.858  16.028  68.028  1.00  0.00    -0.335 A  
HETATM   10  C   UNL     1      -9.451  16.194  66.065  1.00  0.00    -0.374 A  
HETATM   11 CL   UNL     1      -9.765  19.851  67.640  1.00  0.00    -0.483 Cl 
HETATM   12  C   UNL     1     -10.740  17.405  68.227  1.00  0.00    -0.327 A  
HETATM   13  C   UNL     1      -9.348  17.572  66.257  1.00  0.00    -0.231 A  
HETATM   14  C   UNL     1      -9.975  18.168  67.349  1.00  0.00    -0.323 A  
ENDBRANCH   7   8
BRANCH   7  15
HETATM   15  C   UNL     1     -10.768  13.266  65.687  1.00  0.00    -0.282 A  
HETATM   16  C   UNL     1     -10.546  12.026  63.736  1.00  0.00    -0.430 A  
HETATM   17  C   UNL     1     -12.716  12.758  64.366  1.00  0.00    -0.370 A  
HETATM   18  C   UNL     1     -12.146  13.367  65.483  1.00  0.00    -0.467 A  
HETATM   19  N   UNL     1      -9.963  12.597  64.815  1.00  0.00    -0.192 NA 
HETATM   20  C   UNL     1     -11.904  12.073  63.475  1.00  0.00    -0.587 A  
ENDBRANCH   7  15
ENDBRANCH   6   7
ENDBRANCH   5   6
ENDBRANCH   4   5
ENDBRANCH   2   4
TORSDOF 6
ENDMDL
MODEL       80
REMARK 921   NORMALIZED FREE ENERGY PREDICTED BY IDOCK:   -4.38 KCAL/MOL
REMARK 922        TOTAL FREE ENERGY PREDICTED BY IDOCK:   -6.56 KCAL/MOL
REMARK 923 INTER-LIGAND FREE ENERGY PREDICTED BY IDOCK:   -6.84 KCAL/MOL
REMARK 924 INTRA-LIGAND FREE ENERGY PREDICTED BY IDOCK:    0.28 KCAL/MOL
REMARK 927      BINDING AFFINITY PREDICTED BY RF-SCORE:    0.00 PKD
ROOT
HETATM    1  C   UNL     1     -10.784  16.328  65.162  1.00  0.00    -0.331 C  
HETATM    2  N   UNL     1     -10.766  15.026  65.836  1.00  0.00    -0.318 NA 
HETATM    3  C   UNL     1     -10.532  13.969  64.847  1.00  0.00    -0.431 C  
ENDROOT
BRANCH   2   4
HETATM    4  C   UNL     1      -9.750  15.033  66.908  1.00  0.00    -0.238 C  
BRANCH   4   5
HETATM    5  C   UNL     1     -10.327  14.785  68.308  1.00  0.00    -0.238 C  
BRANCH   5   6
HETATM    6  O   UNL     1     -11.706  15.181  68.369  1.00  0.00    -0.330 OA 
BRANCH   6   7
HETATM    7  C   UNL     1     -12.503  14.260  69.160  1.00  0.00     0.024 C  
BRANCH   7   8
HETATM    8  C   UNL     1     -11.858  12.875  69.126  1.00  0.00    -0.353 A  
HETATM    9  C   UNL     1     -11.676  12.168  70.328  1.00  0.00    -0.240 A  
HETATM   10  C   UNL     1     -11.613  12.216  67.909  1.00  0.00    -0.413 A  
HETATM   11 CL   UNL     1     -10.771   8.487  69.066  1.00  0.00    -0.168 Cl 
HETATM   12  C   UNL     1     -11.324  10.816  70.309  1.00  0.00    -0.374 A  
HETATM   13  C   UNL     1     -11.248  10.870  67.892  1.00  0.00    -0.387 A  
HETATM   14  C   UNL     1     -11.126  10.171  69.091  1.00  0.00    -0.212 A  
ENDBRANCH   7   8
BRANCH   7  15
HETATM   15  C   UNL     1     -12.721  14.792  70.578  1.00  0.00    -0.343 A  
HETATM   16  C   UNL     1     -11.820  15.788  72.472  1.00  0.00    -0.499 A  
HETATM   17  C   UNL     1     -14.150  15.330  72.439  1.00  0.00    -0.622 A  
HETATM   18  C   UNL     1     -13.990  14.796  71.162  1.00  0.00    -0.355 A  
HETATM   19  N   UNL     1     -11.632  15.286  71.230  1.00  0.00    -0.349 NA 
HETATM   20  C   UNL     1     -13.048  15.839  73.109  1.00  0.00    -0.669 A  
ENDBRANCH   7  15
ENDBRANCH   6   7
ENDBRANCH   5   6
ENDBRANCH   4   5
ENDBRANCH   2   4
TORSDOF 6
ENDMDL
MODEL       81
REMARK 921   NORMALIZED FREE ENERGY PREDICTED BY IDOCK:   -4.35 KCAL/MOL
REMARK 922        TOTAL FREE ENERGY PREDICTED BY IDOCK:   -6.52 KCAL/MOL
REMARK 923 INTER-LIGAND FREE ENERGY PREDICTED BY IDOCK:   -5.73 KCAL/MOL
REMARK 924 INTRA-LIGAND FREE ENERGY PREDICTED BY IDOCK:   -0.79 KCAL/MOL
REMARK 927      BINDING AFFINITY PREDICTED BY RF-SCORE:    0.00 PKD
ROOT
HETATM    1  C   UNL     1     -12.698  12.079  63.497  1.00  0.00    -0.443 C  
HETATM    2  N   UNL     1     -11.681  13.132  63.582  1.00  0.00    -0.466 NA 
HETATM    3  C   UNL     1     -12.055  14.085  64.633  1.00  0.00    -0.440 C  
ENDROOT
BRANCH   2   4
HETATM    4  C   UNL     1     -10.353  12.527  63.812  1.00  0.00    -0.388 C  
BRANCH   4   5
HETATM    5  C   UNL     1     -10.410  11.151  64.489  1.00  0.00    -0.337 C  
BRANCH   5   6
HETATM    6  O   UNL     1      -9.817  11.200  65.796  1.00  0.00    -0.214 OA 
BRANCH   6   7
HETATM    7  C   UNL     1     -10.819  11.278  66.844  1.00  0.00    -0.282 C  
BRANCH   7   8
HETATM    8  C   UNL     1     -10.661  10.085  67.786  1.00  0.00    -0.333 A  
HETATM    9  C   UNL     1     -10.724   8.780  67.266  1.00  0.00    -0.217 A  
HETATM   10  C   UNL     1     -10.272  10.262  69.125  1.00  0.00    -0.234 A  
HETATM   11 CL   UNL     1      -9.372   6.550  70.292  1.00  0.00    -0.159 Cl 
HETATM   12  C   UNL     1     -10.341   7.687  68.046  1.00  0.00    -0.257 A  
HETATM   13  C   UNL     1      -9.904   9.167  69.907  1.00  0.00    -0.206 A  
HETATM   14  C   UNL     1      -9.919   7.887  69.358  1.00  0.00    -0.189 A  
ENDBRANCH   7   8
BRANCH   7  15
HETATM   15  C   UNL     1     -10.766  12.628  67.563  1.00  0.00    -0.225 A  
HETATM   16  C   UNL     1     -11.871  14.239  68.820  1.00  0.00    -0.341 A  
HETATM   17  C   UNL     1      -9.569  14.569  68.336  1.00  0.00    -0.213 A  
HETATM   18  C   UNL     1      -9.581  13.365  67.633  1.00  0.00    -0.219 A  
HETATM   19  N   UNL     1     -11.914  13.062  68.153  1.00  0.00    -0.329 NA 
HETATM   20  C   UNL     1     -10.732  15.015  68.944  1.00  0.00    -0.240 A  
ENDBRANCH   7  15
ENDBRANCH   6   7
ENDBRANCH   5   6
ENDBRANCH   4   5
ENDBRANCH   2   4
TORSDOF 6
ENDMDL
MODEL       82
REMARK 921   NORMALIZED FREE ENERGY PREDICTED BY IDOCK:   -4.34 KCAL/MOL
REMARK 922        TOTAL FREE ENERGY PREDICTED BY IDOCK:   -6.51 KCAL/MOL
REMARK 923 INTER-LIGAND FREE ENERGY PREDICTED BY IDOCK:   -6.13 KCAL/MOL
REMARK 924 INTRA-LIGAND FREE ENERGY PREDICTED BY IDOCK:   -0.38 KCAL/MOL
REMARK 927      BINDING AFFINITY PREDICTED BY RF-SCORE:    0.00 PKD
ROOT
HETATM    1  C   UNL     1     -12.208  14.957  64.169  1.00  0.00    -0.255 C  
HETATM    2  N   UNL     1     -12.748  13.598  64.262  1.00  0.00    -0.650 NA 
HETATM    3  C   UNL     1     -12.064  12.735  63.292  1.00  0.00    -0.439 C  
ENDROOT
BRANCH   2   4
HETATM    4  C   UNL     1     -12.620  13.103  65.648  1.00  0.00    -0.351 C  
BRANCH   4   5
HETATM    5  C   UNL     1     -11.436  12.150  65.858  1.00  0.00    -0.363 C  
BRANCH   5   6
HETATM    6  O   UNL     1     -10.879  12.310  67.173  1.00  0.00    -0.230 OA 
BRANCH   6   7
HETATM    7  C   UNL     1     -10.242  13.604  67.339  1.00  0.00    -0.241 C  
BRANCH   7   8
HETATM    8  C   UNL     1     -10.878  14.334  68.521  1.00  0.00    -0.264 A  
HETATM    9  C   UNL     1     -11.626  13.605  69.463  1.00  0.00    -0.361 A  
HETATM   10  C   UNL     1     -10.579  15.681  68.789  1.00  0.00    -0.238 A  
HETATM   11 CL   UNL     1     -12.065  16.212  72.459  1.00  0.00    -0.612 Cl 
HETATM   12  C   UNL     1     -12.006  14.191  70.673  1.00  0.00    -0.385 A  
HETATM   13  C   UNL     1     -10.973  16.269  69.992  1.00  0.00    -0.356 A  
HETATM   14  C   UNL     1     -11.666  15.515  70.937  1.00  0.00    -0.375 A  
ENDBRANCH   7   8
BRANCH   7  15
HETATM   15  C   UNL     1      -8.723  13.462  67.462  1.00  0.00    -0.205 A  
HETATM   16  C   UNL     1      -6.854  12.087  67.350  1.00  0.00    -0.142 A  
HETATM   17  C   UNL     1      -6.529  14.400  67.781  1.00  0.00    -0.181 A  
HETATM   18  C   UNL     1      -7.911  14.569  67.721  1.00  0.00    -0.171 A  
HETATM   19  N   UNL     1      -8.199  12.218  67.277  1.00  0.00    -0.175 NA 
HETATM   20  C   UNL     1      -5.987  13.138  67.590  1.00  0.00    -0.136 A  
ENDBRANCH   7  15
ENDBRANCH   6   7
ENDBRANCH   5   6
ENDBRANCH   4   5
ENDBRANCH   2   4
TORSDOF 6
ENDMDL
MODEL       83
REMARK 921   NORMALIZED FREE ENERGY PREDICTED BY IDOCK:   -4.33 KCAL/MOL
REMARK 922        TOTAL FREE ENERGY PREDICTED BY IDOCK:   -6.50 KCAL/MOL
REMARK 923 INTER-LIGAND FREE ENERGY PREDICTED BY IDOCK:   -5.73 KCAL/MOL
REMARK 924 INTRA-LIGAND FREE ENERGY PREDICTED BY IDOCK:   -0.77 KCAL/MOL
REMARK 927      BINDING AFFINITY PREDICTED BY RF-SCORE:    0.00 PKD
ROOT
HETATM    1  C   UNL     1     -12.124  13.858  66.566  1.00  0.00    -0.449 C  
HETATM    2  N   UNL     1     -12.211  12.513  65.989  1.00  0.00    -0.620 NA 
HETATM    3  C   UNL     1     -12.607  12.613  64.580  1.00  0.00    -0.412 C  
ENDROOT
BRANCH   2   4
HETATM    4  C   UNL     1     -10.924  11.809  66.167  1.00  0.00    -0.307 C  
BRANCH   4   5
HETATM    5  C   UNL     1     -10.079  12.351  67.328  1.00  0.00    -0.208 C  
BRANCH   5   6
HETATM    6  O   UNL     1      -9.595  11.278  68.150  1.00  0.00    -0.173 OA 
BRANCH   6   7
HETATM    7  C   UNL     1     -10.526  10.165  68.196  1.00  0.00    -0.206 C  
BRANCH   7   8
HETATM    8  C   UNL     1      -9.802   8.881  67.796  1.00  0.00    -0.208 A  
HETATM    9  C   UNL     1     -10.526   7.837  67.192  1.00  0.00    -0.413 A  
HETATM   10  C   UNL     1      -8.400   8.790  67.846  1.00  0.00    -0.118 A  
HETATM   11 CL   UNL     1      -7.647   5.434  65.816  1.00  0.00    -0.082 Cl 
HETATM   12  C   UNL     1      -9.860   6.765  66.595  1.00  0.00    -0.214 A  
HETATM   13  C   UNL     1      -7.737   7.711  67.262  1.00  0.00    -0.113 A  
HETATM   14  C   UNL     1      -8.469   6.714  66.621  1.00  0.00    -0.120 A  
ENDBRANCH   7   8
BRANCH   7  15
HETATM   15  C   UNL     1     -11.214  10.072  69.560  1.00  0.00    -0.208 A  
HETATM   16  C   UNL     1     -12.908  10.806  70.969  1.00  0.00    -0.385 A  
HETATM   17  C   UNL     1     -11.474   9.074  71.735  1.00  0.00    -0.442 A  
HETATM   18  C   UNL     1     -10.790   9.154  70.524  1.00  0.00    -0.306 A  
HETATM   19  N   UNL     1     -12.271  10.902  69.779  1.00  0.00    -0.334 NA 
HETATM   20  C   UNL     1     -12.554   9.912  71.965  1.00  0.00    -0.410 A  
ENDBRANCH   7  15
ENDBRANCH   6   7
ENDBRANCH   5   6
ENDBRANCH   4   5
ENDBRANCH   2   4
TORSDOF 6
ENDMDL
MODEL       84
REMARK 921   NORMALIZED FREE ENERGY PREDICTED BY IDOCK:   -4.32 KCAL/MOL
REMARK 922        TOTAL FREE ENERGY PREDICTED BY IDOCK:   -6.49 KCAL/MOL
REMARK 923 INTER-LIGAND FREE ENERGY PREDICTED BY IDOCK:   -5.83 KCAL/MOL
REMARK 924 INTRA-LIGAND FREE ENERGY PREDICTED BY IDOCK:   -0.66 KCAL/MOL
REMARK 927      BINDING AFFINITY PREDICTED BY RF-SCORE:    0.00 PKD
ROOT
HETATM    1  C   UNL     1     -10.901   6.676  67.268  1.00  0.00    -0.385 C  
HETATM    2  N   UNL     1      -9.947   6.272  68.305  1.00  0.00    -0.132 NA 
HETATM    3  C   UNL     1      -8.885   5.462  67.701  1.00  0.00    -0.105 C  
ENDROOT
BRANCH   2   4
HETATM    4  C   UNL     1      -9.423   7.470  68.994  1.00  0.00    -0.145 C  
BRANCH   4   5
HETATM    5  C   UNL     1     -10.438   8.137  69.932  1.00  0.00    -0.226 C  
BRANCH   5   6
HETATM    6  O   UNL     1     -10.268   9.563  69.935  1.00  0.00    -0.200 OA 
BRANCH   6   7
HETATM    7  C   UNL     1     -11.233  10.227  69.077  1.00  0.00    -0.208 C  
BRANCH   7   8
HETATM    8  C   UNL     1     -11.985  11.285  69.884  1.00  0.00    -0.440 A  
HETATM    9  C   UNL     1     -12.731  10.895  71.011  1.00  0.00    -0.505 A  
HETATM   10  C   UNL     1     -11.800  12.656  69.636  1.00  0.00    -0.379 A  
HETATM   11 CL   UNL     1     -13.524  14.376  72.802  1.00  0.00    -0.588 Cl 
HETATM   12  C   UNL     1     -13.219  11.851  71.903  1.00  0.00    -0.467 A  
HETATM   13  C   UNL     1     -12.302  13.611  70.521  1.00  0.00    -0.425 A  
HETATM   14  C   UNL     1     -12.991  13.203  71.662  1.00  0.00    -0.335 A  
ENDBRANCH   7   8
BRANCH   7  15
HETATM   15  C   UNL     1     -10.564  10.787  67.820  1.00  0.00    -0.228 A  
HETATM   16  C   UNL     1     -10.782  11.496  65.619  1.00  0.00    -0.267 A  
HETATM   17  C   UNL     1      -8.652  11.671  66.654  1.00  0.00    -0.179 A  
HETATM   18  C   UNL     1      -9.208  11.123  67.809  1.00  0.00    -0.153 A  
HETATM   19  N   UNL     1     -11.355  10.971  66.726  1.00  0.00    -0.307 NA 
HETATM   20  C   UNL     1      -9.451  11.865  65.538  1.00  0.00    -0.152 A  
ENDBRANCH   7  15
ENDBRANCH   6   7
ENDBRANCH   5   6
ENDBRANCH   4   5
ENDBRANCH   2   4
TORSDOF 6
ENDMDL
MODEL       85
REMARK 921   NORMALIZED FREE ENERGY PREDICTED BY IDOCK:   -4.32 KCAL/MOL
REMARK 922        TOTAL FREE ENERGY PREDICTED BY IDOCK:   -6.48 KCAL/MOL
REMARK 923 INTER-LIGAND FREE ENERGY PREDICTED BY IDOCK:   -5.81 KCAL/MOL
REMARK 924 INTRA-LIGAND FREE ENERGY PREDICTED BY IDOCK:   -0.68 KCAL/MOL
REMARK 927      BINDING AFFINITY PREDICTED BY RF-SCORE:    0.00 PKD
ROOT
HETATM    1  C   UNL     1     -13.534   9.689  72.088  1.00  0.00    -0.429 C  
HETATM    2  N   UNL     1     -13.179   8.267  72.053  1.00  0.00    -0.332 NA 
HETATM    3  C   UNL     1     -14.331   7.489  71.584  1.00  0.00    -0.477 C  
ENDROOT
BRANCH   2   4
HETATM    4  C   UNL     1     -11.983   8.072  71.209  1.00  0.00    -0.296 C  
BRANCH   4   5
HETATM    5  C   UNL     1     -10.733   8.795  71.731  1.00  0.00    -0.343 C  
BRANCH   5   6
HETATM    6  O   UNL     1     -10.096   9.536  70.678  1.00  0.00    -0.263 OA 
BRANCH   6   7
HETATM    7  C   UNL     1     -10.760   9.346  69.401  1.00  0.00    -0.217 C  
BRANCH   7   8
HETATM    8  C   UNL     1     -11.139  10.707  68.819  1.00  0.00    -0.316 A  
HETATM    9  C   UNL     1     -11.376  11.788  69.687  1.00  0.00    -0.287 A  
HETATM   10  C   UNL     1     -11.077  10.950  67.436  1.00  0.00    -0.373 A  
HETATM   11 CL   UNL     1     -11.420  14.923  67.211  1.00  0.00    -0.358 Cl 
HETATM   12  C   UNL     1     -11.478  13.089  69.187  1.00  0.00    -0.353 A  
HETATM   13  C   UNL     1     -11.195  12.248  66.938  1.00  0.00    -0.367 A  
HETATM   14  C   UNL     1     -11.373  13.314  67.817  1.00  0.00    -0.295 A  
ENDBRANCH   7   8
BRANCH   7  15
HETATM   15  C   UNL     1      -9.907   8.499  68.453  1.00  0.00    -0.173 A  
HETATM   16  C   UNL     1      -7.793   7.805  67.789  1.00  0.00    -0.123 A  
HETATM   17  C   UNL     1      -9.682   6.878  66.687  1.00  0.00    -0.221 A  
HETATM   18  C   UNL     1     -10.496   7.664  67.500  1.00  0.00    -0.336 A  
HETATM   19  N   UNL     1      -8.555   8.574  68.600  1.00  0.00    -0.134 NA 
HETATM   20  C   UNL     1      -8.304   6.945  66.834  1.00  0.00    -0.114 A  
ENDBRANCH   7  15
ENDBRANCH   6   7
ENDBRANCH   5   6
ENDBRANCH   4   5
ENDBRANCH   2   4
TORSDOF 6
ENDMDL
MODEL       86
REMARK 921   NORMALIZED FREE ENERGY PREDICTED BY IDOCK:   -4.31 KCAL/MOL
REMARK 922        TOTAL FREE ENERGY PREDICTED BY IDOCK:   -6.48 KCAL/MOL
REMARK 923 INTER-LIGAND FREE ENERGY PREDICTED BY IDOCK:   -5.79 KCAL/MOL
REMARK 924 INTRA-LIGAND FREE ENERGY PREDICTED BY IDOCK:   -0.68 KCAL/MOL
REMARK 927      BINDING AFFINITY PREDICTED BY RF-SCORE:    0.00 PKD
ROOT
HETATM    1  C   UNL     1     -13.969   8.922  72.249  1.00  0.00    -0.466 C  
HETATM    2  N   UNL     1     -12.526   8.680  72.164  1.00  0.00    -0.366 NA 
HETATM    3  C   UNL     1     -12.289   7.326  71.654  1.00  0.00    -0.352 C  
ENDROOT
BRANCH   2   4
HETATM    4  C   UNL     1     -11.893   9.720  71.326  1.00  0.00    -0.399 C  
BRANCH   4   5
HETATM    5  C   UNL     1     -12.895  10.685  70.678  1.00  0.00    -0.320 C  
BRANCH   5   6
HETATM    6  O   UNL     1     -12.529  10.961  69.317  1.00  0.00    -0.392 OA 
BRANCH   6   7
HETATM    7  C   UNL     1     -11.242  11.626  69.224  1.00  0.00    -0.265 C  
BRANCH   7   8
HETATM    8  C   UNL     1     -10.370  10.902  68.199  1.00  0.00    -0.202 A  
HETATM    9  C   UNL     1      -8.979  11.110  68.204  1.00  0.00    -0.159 A  
HETATM   10  C   UNL     1     -10.901   9.894  67.375  1.00  0.00    -0.293 A  
HETATM   11 CL   UNL     1      -7.635   8.201  65.818  1.00  0.00    -0.080 Cl 
HETATM   12  C   UNL     1      -8.136  10.285  67.456  1.00  0.00    -0.110 A  
HETATM   13  C   UNL     1     -10.058   9.081  66.617  1.00  0.00    -0.355 A  
HETATM   14  C   UNL     1      -8.678   9.266  66.677  1.00  0.00    -0.127 A  
ENDBRANCH   7   8
BRANCH   7  15
HETATM   15  C   UNL     1     -11.407  13.119  68.930  1.00  0.00    -0.289 A  
HETATM   16  C   UNL     1     -11.790  15.259  69.746  1.00  0.00    -0.332 A  
HETATM   17  C   UNL     1     -11.377  14.995  67.422  1.00  0.00    -0.338 A  
HETATM   18  C   UNL     1     -11.261  13.623  67.636  1.00  0.00    -0.303 A  
HETATM   19  N   UNL     1     -11.674  13.933  69.989  1.00  0.00    -0.281 NA 
HETATM   20  C   UNL     1     -11.644  15.832  68.495  1.00  0.00    -0.367 A  
ENDBRANCH   7  15
ENDBRANCH   6   7
ENDBRANCH   5   6
ENDBRANCH   4   5
ENDBRANCH   2   4
TORSDOF 6
ENDMDL
MODEL       87
REMARK 921   NORMALIZED FREE ENERGY PREDICTED BY IDOCK:   -4.31 KCAL/MOL
REMARK 922        TOTAL FREE ENERGY PREDICTED BY IDOCK:   -6.46 KCAL/MOL
REMARK 923 INTER-LIGAND FREE ENERGY PREDICTED BY IDOCK:   -5.83 KCAL/MOL
REMARK 924 INTRA-LIGAND FREE ENERGY PREDICTED BY IDOCK:   -0.63 KCAL/MOL
REMARK 927      BINDING AFFINITY PREDICTED BY RF-SCORE:    0.00 PKD
ROOT
HETATM    1  C   UNL     1      -6.597  16.884  68.225  1.00  0.00    -0.147 C  
HETATM    2  N   UNL     1      -6.641  15.603  68.935  1.00  0.00    -0.111 NA 
HETATM    3  C   UNL     1      -5.791  15.678  70.128  1.00  0.00    -0.152 C  
ENDROOT
BRANCH   2   4
HETATM    4  C   UNL     1      -8.041  15.258  69.259  1.00  0.00    -0.236 C  
BRANCH   4   5
HETATM    5  C   UNL     1      -8.740  14.432  68.171  1.00  0.00    -0.175 C  
BRANCH   5   6
HETATM    6  O   UNL     1      -9.993  13.916  68.649  1.00  0.00    -0.227 OA 
BRANCH   6   7
HETATM    7  C   UNL     1     -10.249  12.573  68.162  1.00  0.00    -0.231 C  
BRANCH   7   8
HETATM    8  C   UNL     1     -10.930  11.757  69.260  1.00  0.00    -0.231 A  
HETATM    9  C   UNL     1     -11.918  12.360  70.058  1.00  0.00    -0.372 A  
HETATM   10  C   UNL     1     -10.726  10.370  69.369  1.00  0.00    -0.277 A  
HETATM   11 CL   UNL     1     -13.583   9.244  71.923  1.00  0.00    -0.467 Cl 
HETATM   12  C   UNL     1     -12.727  11.585  70.892  1.00  0.00    -0.372 A  
HETATM   13  C   UNL     1     -11.524   9.600  70.214  1.00  0.00    -0.288 A  
HETATM   14  C   UNL     1     -12.535  10.208  70.956  1.00  0.00    -0.375 A  
ENDBRANCH   7   8
BRANCH   7  15
HETATM   15  C   UNL     1     -11.036  12.598  66.850  1.00  0.00    -0.262 A  
HETATM   16  C   UNL     1     -11.427  11.651  64.765  1.00  0.00    -0.155 A  
HETATM   17  C   UNL     1     -12.778  13.484  65.443  1.00  0.00    -0.495 A  
HETATM   18  C   UNL     1     -12.058  13.526  66.636  1.00  0.00    -0.447 A  
HETATM   19  N   UNL     1     -10.715  11.659  65.916  1.00  0.00    -0.271 NA 
HETATM   20  C   UNL     1     -12.461  12.529  64.489  1.00  0.00    -0.539 A  
ENDBRANCH   7  15
ENDBRANCH   6   7
ENDBRANCH   5   6
ENDBRANCH   4   5
ENDBRANCH   2   4
TORSDOF 6
ENDMDL
MODEL       88
REMARK 921   NORMALIZED FREE ENERGY PREDICTED BY IDOCK:   -4.30 KCAL/MOL
REMARK 922        TOTAL FREE ENERGY PREDICTED BY IDOCK:   -6.46 KCAL/MOL
REMARK 923 INTER-LIGAND FREE ENERGY PREDICTED BY IDOCK:   -5.92 KCAL/MOL
REMARK 924 INTRA-LIGAND FREE ENERGY PREDICTED BY IDOCK:   -0.53 KCAL/MOL
REMARK 927      BINDING AFFINITY PREDICTED BY RF-SCORE:    0.00 PKD
ROOT
HETATM    1  C   UNL     1      -8.166   9.798  64.541  1.00  0.00    -0.156 C  
HETATM    2  N   UNL     1      -9.264  10.758  64.399  1.00  0.00    -0.213 NA 
HETATM    3  C   UNL     1      -9.777  10.712  63.025  1.00  0.00    -0.323 C  
ENDROOT
BRANCH   2   4
HETATM    4  C   UNL     1     -10.310  10.473  65.403  1.00  0.00    -0.222 C  
BRANCH   4   5
HETATM    5  C   UNL     1      -9.769   9.860  66.702  1.00  0.00    -0.198 C  
BRANCH   5   6
HETATM    6  O   UNL     1     -10.840   9.564  67.611  1.00  0.00    -0.279 OA 
BRANCH   6   7
HETATM    7  C   UNL     1     -10.437   9.724  68.997  1.00  0.00    -0.213 C  
BRANCH   7   8
HETATM    8  C   UNL     1     -11.430  10.641  69.711  1.00  0.00    -0.375 A  
HETATM    9  C   UNL     1     -12.244  10.117  70.732  1.00  0.00    -0.434 A  
HETATM   10  C   UNL     1     -11.419  12.030  69.500  1.00  0.00    -0.351 A  
HETATM   11 CL   UNL     1     -13.753  13.399  72.438  1.00  0.00    -0.696 Cl 
HETATM   12  C   UNL     1     -12.973  10.969  71.563  1.00  0.00    -0.553 A  
HETATM   13  C   UNL     1     -12.160  12.878  70.323  1.00  0.00    -0.377 A  
HETATM   14  C   UNL     1     -12.917  12.346  71.364  1.00  0.00    -0.250 A  
ENDBRANCH   7   8
BRANCH   7  15
HETATM   15  C   UNL     1     -10.262   8.369  69.685  1.00  0.00    -0.209 A  
HETATM   16  C   UNL     1     -10.736   6.096  69.715  1.00  0.00    -0.310 A  
HETATM   17  C   UNL     1      -9.281   6.966  71.378  1.00  0.00    -0.156 A  
HETATM   18  C   UNL     1      -9.446   8.228  70.810  1.00  0.00    -0.185 A  
HETATM   19  N   UNL     1     -10.911   7.305  69.134  1.00  0.00    -0.179 NA 
HETATM   20  C   UNL     1      -9.935   5.877  70.821  1.00  0.00    -0.241 A  
ENDBRANCH   7  15
ENDBRANCH   6   7
ENDBRANCH   5   6
ENDBRANCH   4   5
ENDBRANCH   2   4
TORSDOF 6
ENDMDL
MODEL       89
REMARK 921   NORMALIZED FREE ENERGY PREDICTED BY IDOCK:   -4.26 KCAL/MOL
REMARK 922        TOTAL FREE ENERGY PREDICTED BY IDOCK:   -6.40 KCAL/MOL
REMARK 923 INTER-LIGAND FREE ENERGY PREDICTED BY IDOCK:   -5.97 KCAL/MOL
REMARK 924 INTRA-LIGAND FREE ENERGY PREDICTED BY IDOCK:   -0.43 KCAL/MOL
REMARK 927      BINDING AFFINITY PREDICTED BY RF-SCORE:    0.00 PKD
ROOT
HETATM    1  C   UNL     1      -9.638  10.254  64.834  1.00  0.00    -0.304 C  
HETATM    2  N   UNL     1      -8.975   9.598  65.965  1.00  0.00    -0.154 NA 
HETATM    3  C   UNL     1      -8.416  10.617  66.859  1.00  0.00    -0.127 C  
ENDROOT
BRANCH   2   4
HETATM    4  C   UNL     1      -9.930   8.703  66.652  1.00  0.00    -0.287 C  
BRANCH   4   5
HETATM    5  C   UNL     1      -9.725   8.633  68.172  1.00  0.00    -0.158 C  
BRANCH   5   6
HETATM    6  O   UNL     1     -10.951   8.917  68.865  1.00  0.00    -0.083 OA 
BRANCH   6   7
HETATM    7  C   UNL     1     -10.713   9.423  70.204  1.00  0.00    -0.243 C  
BRANCH   7   8
HETATM    8  C   UNL     1     -11.717  10.534  70.512  1.00  0.00    -0.443 A  
HETATM    9  C   UNL     1     -12.626  10.370  71.573  1.00  0.00    -0.544 A  
HETATM   10  C   UNL     1     -11.631  11.787  69.882  1.00  0.00    -0.351 A  
HETATM   11 CL   UNL     1     -14.118  14.046  72.042  1.00  0.00    -0.581 Cl 
HETATM   12  C   UNL     1     -13.379  11.452  72.034  1.00  0.00    -0.388 A  
HETATM   13  C   UNL     1     -12.395  12.863  70.335  1.00  0.00    -0.333 A  
HETATM   14  C   UNL     1     -13.250  12.695  71.423  1.00  0.00    -0.127 A  
ENDBRANCH   7   8
BRANCH   7  15
HETATM   15  C   UNL     1     -10.726   8.293  71.236  1.00  0.00    -0.227 A  
HETATM   16  C   UNL     1     -10.205   7.574  73.382  1.00  0.00    -0.343 A  
HETATM   17  C   UNL     1     -11.338   6.071  71.934  1.00  0.00    -0.335 A  
HETATM   18  C   UNL     1     -11.311   7.057  70.949  1.00  0.00    -0.334 A  
HETATM   19  N   UNL     1     -10.170   8.556  72.451  1.00  0.00    -0.317 NA 
HETATM   20  C   UNL     1     -10.778   6.332  73.175  1.00  0.00    -0.286 A  
ENDBRANCH   7  15
ENDBRANCH   6   7
ENDBRANCH   5   6
ENDBRANCH   4   5
ENDBRANCH   2   4
TORSDOF 6
ENDMDL
MODEL       90
REMARK 921   NORMALIZED FREE ENERGY PREDICTED BY IDOCK:   -4.25 KCAL/MOL
REMARK 922        TOTAL FREE ENERGY PREDICTED BY IDOCK:   -6.39 KCAL/MOL
REMARK 923 INTER-LIGAND FREE ENERGY PREDICTED BY IDOCK:   -6.45 KCAL/MOL
REMARK 924 INTRA-LIGAND FREE ENERGY PREDICTED BY IDOCK:    0.05 KCAL/MOL
REMARK 927      BINDING AFFINITY PREDICTED BY RF-SCORE:    0.00 PKD
ROOT
HETATM    1  C   UNL     1     -12.015  12.994  63.340  1.00  0.00    -0.520 C  
HETATM    2  N   UNL     1     -11.692  13.774  64.539  1.00  0.00    -0.389 NA 
HETATM    3  C   UNL     1     -12.425  13.230  65.686  1.00  0.00    -0.451 C  
ENDROOT
BRANCH   2   4
HETATM    4  C   UNL     1     -10.230  13.779  64.752  1.00  0.00    -0.335 C  
BRANCH   4   5
HETATM    5  C   UNL     1      -9.736  14.945  65.620  1.00  0.00    -0.291 C  
BRANCH   5   6
HETATM    6  O   UNL     1     -10.315  16.185  65.185  1.00  0.00    -0.560 OA 
BRANCH   6   7
HETATM    7  C   UNL     1     -10.358  17.169  66.252  1.00  0.00    -0.313 C  
BRANCH   7   8
HETATM    8  C   UNL     1     -10.539  16.456  67.591  1.00  0.00    -0.313 A  
HETATM    9  C   UNL     1      -9.508  16.507  68.547  1.00  0.00    -0.235 A  
HETATM   10  C   UNL     1     -11.779  15.910  67.963  1.00  0.00    -0.065 A  
HETATM   11 CL   UNL     1     -11.288  15.138  71.851  1.00  0.00    -0.456 Cl 
HETATM   12  C   UNL     1      -9.735  16.084  69.858  1.00  0.00     0.066 A  
HETATM   13  C   UNL     1     -12.000  15.475  69.270  1.00  0.00    -0.338 A  
HETATM   14  C   UNL     1     -10.984  15.583  70.217  1.00  0.00    -0.334 A  
ENDBRANCH   7   8
BRANCH   7  15
HETATM   15  C   UNL     1      -9.131  18.084  66.214  1.00  0.00    -0.178 A  
HETATM   16  C   UNL     1      -6.857  18.317  65.808  1.00  0.00    -0.275 A  
HETATM   17  C   UNL     1      -8.102  20.253  66.395  1.00  0.00    -0.239 A  
HETATM   18  C   UNL     1      -9.238  19.450  66.484  1.00  0.00    -0.403 A  
HETATM   19  N   UNL     1      -7.942  17.512  65.877  1.00  0.00    -0.552 NA 
HETATM   20  C   UNL     1      -6.888  19.680  66.048  1.00  0.00    -0.266 A  
ENDBRANCH   7  15
ENDBRANCH   6   7
ENDBRANCH   5   6
ENDBRANCH   4   5
ENDBRANCH   2   4
TORSDOF 6
ENDMDL
MODEL       91
REMARK 921   NORMALIZED FREE ENERGY PREDICTED BY IDOCK:   -4.25 KCAL/MOL
REMARK 922        TOTAL FREE ENERGY PREDICTED BY IDOCK:   -6.39 KCAL/MOL
REMARK 923 INTER-LIGAND FREE ENERGY PREDICTED BY IDOCK:   -5.75 KCAL/MOL
REMARK 924 INTRA-LIGAND FREE ENERGY PREDICTED BY IDOCK:   -0.64 KCAL/MOL
REMARK 927      BINDING AFFINITY PREDICTED BY RF-SCORE:    0.00 PKD
ROOT
HETATM    1  C   UNL     1      -8.470   8.691  68.167  1.00  0.00    -0.131 C  
HETATM    2  N   UNL     1      -8.934   9.861  68.918  1.00  0.00    -0.145 NA 
HETATM    3  C   UNL     1      -9.220   9.468  70.302  1.00  0.00    -0.258 C  
ENDROOT
BRANCH   2   4
HETATM    4  C   UNL     1      -7.929  10.940  68.832  1.00  0.00    -0.146 C  
BRANCH   4   5
HETATM    5  C   UNL     1      -8.496  12.273  68.325  1.00  0.00    -0.173 C  
BRANCH   5   6
HETATM    6  O   UNL     1      -9.828  12.483  68.821  1.00  0.00    -0.121 OA 
BRANCH   6   7
HETATM    7  C   UNL     1     -10.318  13.815  68.517  1.00  0.00    -0.244 C  
BRANCH   7   8
HETATM    8  C   UNL     1     -11.060  13.790  67.182  1.00  0.00    -0.315 A  
HETATM    9  C   UNL     1     -10.870  14.839  66.265  1.00  0.00    -0.322 A  
HETATM   10  C   UNL     1     -11.782  12.655  66.772  1.00  0.00    -0.460 A  
HETATM   11 CL   UNL     1     -12.507  13.402  62.916  1.00  0.00     0.111 Cl 
HETATM   12  C   UNL     1     -11.331  14.725  64.952  1.00  0.00    -0.411 A  
HETATM   13  C   UNL     1     -12.255  12.550  65.464  1.00  0.00    -0.442 A  
HETATM   14  C   UNL     1     -12.009  13.576  64.554  1.00  0.00    -0.410 A  
ENDBRANCH   7   8
BRANCH   7  15
HETATM   15  C   UNL     1     -11.160  14.373  69.667  1.00  0.00    -0.202 A  
HETATM   16  C   UNL     1     -11.536  16.091  71.184  1.00  0.00    -0.443 A  
HETATM   17  C   UNL     1     -13.047  14.258  71.158  1.00  0.00    -0.412 A  
HETATM   18  C   UNL     1     -12.285  13.691  70.138  1.00  0.00    -0.413 A  
HETATM   19  N   UNL     1     -10.780  15.572  70.188  1.00  0.00    -0.313 NA 
HETATM   20  C   UNL     1     -12.670  15.482  71.691  1.00  0.00    -0.502 A  
ENDBRANCH   7  15
ENDBRANCH   6   7
ENDBRANCH   5   6
ENDBRANCH   4   5
ENDBRANCH   2   4
TORSDOF 6
ENDMDL
MODEL       92
REMARK 921   NORMALIZED FREE ENERGY PREDICTED BY IDOCK:   -4.25 KCAL/MOL
REMARK 922        TOTAL FREE ENERGY PREDICTED BY IDOCK:   -6.39 KCAL/MOL
REMARK 923 INTER-LIGAND FREE ENERGY PREDICTED BY IDOCK:   -5.65 KCAL/MOL
REMARK 924 INTRA-LIGAND FREE ENERGY PREDICTED BY IDOCK:   -0.74 KCAL/MOL
REMARK 927      BINDING AFFINITY PREDICTED BY RF-SCORE:    0.00 PKD
ROOT
HETATM    1  C   UNL     1      -8.414  10.950  65.221  1.00  0.00    -0.060 C  
HETATM    2  N   UNL     1      -9.190   9.709  65.292  1.00  0.00    -0.221 NA 
HETATM    3  C   UNL     1      -8.336   8.629  65.799  1.00  0.00    -0.144 C  
ENDROOT
BRANCH   2   4
HETATM    4  C   UNL     1     -10.392   9.918  66.126  1.00  0.00    -0.153 C  
BRANCH   4   5
HETATM    5  C   UNL     1     -10.365   9.148  67.453  1.00  0.00    -0.264 C  
BRANCH   5   6
HETATM    6  O   UNL     1     -10.300  10.053  68.567  1.00  0.00    -0.176 OA 
BRANCH   6   7
HETATM    7  C   UNL     1     -11.419   9.879  69.475  1.00  0.00    -0.068 C  
BRANCH   7   8
HETATM    8  C   UNL     1     -11.038   8.875  70.562  1.00  0.00    -0.288 A  
HETATM    9  C   UNL     1      -9.875   9.089  71.325  1.00  0.00    -0.376 A  
HETATM   10  C   UNL     1     -11.916   7.845  70.941  1.00  0.00    -0.211 A  
HETATM   11 CL   UNL     1     -10.282   6.475  74.319  1.00  0.00    -0.379 Cl 
HETATM   12  C   UNL     1      -9.635   8.336  72.477  1.00  0.00    -0.365 A  
HETATM   13  C   UNL     1     -11.666   7.084  72.084  1.00  0.00    -0.321 A  
HETATM   14  C   UNL     1     -10.538   7.347  72.858  1.00  0.00    -0.321 A  
ENDBRANCH   7   8
BRANCH   7  15
HETATM   15  C   UNL     1     -11.896  11.222  70.033  1.00  0.00    -0.367 A  
HETATM   16  C   UNL     1     -12.011  13.529  69.792  1.00  0.00    -0.340 A  
HETATM   17  C   UNL     1     -13.112  12.532  71.645  1.00  0.00    -0.414 A  
HETATM   18  C   UNL     1     -12.662  11.291  71.199  1.00  0.00    -0.492 A  
HETATM   19  N   UNL     1     -11.566  12.338  69.326  1.00  0.00    -0.304 NA 
HETATM   20  C   UNL     1     -12.784  13.674  70.930  1.00  0.00    -0.382 A  
ENDBRANCH   7  15
ENDBRANCH   6   7
ENDBRANCH   5   6
ENDBRANCH   4   5
ENDBRANCH   2   4
TORSDOF 6
ENDMDL
MODEL       93
REMARK 921   NORMALIZED FREE ENERGY PREDICTED BY IDOCK:   -4.25 KCAL/MOL
REMARK 922        TOTAL FREE ENERGY PREDICTED BY IDOCK:   -6.39 KCAL/MOL
REMARK 923 INTER-LIGAND FREE ENERGY PREDICTED BY IDOCK:   -5.62 KCAL/MOL
REMARK 924 INTRA-LIGAND FREE ENERGY PREDICTED BY IDOCK:   -0.77 KCAL/MOL
REMARK 927      BINDING AFFINITY PREDICTED BY RF-SCORE:    0.00 PKD
ROOT
HETATM    1  C   UNL     1      -6.152  13.104  67.686  1.00  0.00    -0.146 C  
HETATM    2  N   UNL     1      -7.458  13.211  68.344  1.00  0.00    -0.118 NA 
HETATM    3  C   UNL     1      -8.376  13.965  67.483  1.00  0.00    -0.196 C  
ENDROOT
BRANCH   2   4
HETATM    4  C   UNL     1      -7.966  11.863  68.670  1.00  0.00    -0.101 C  
BRANCH   4   5
HETATM    5  C   UNL     1      -7.195  10.729  67.981  1.00  0.00    -0.086 C  
BRANCH   5   6
HETATM    6  O   UNL     1      -8.062   9.971  67.121  1.00  0.00    -0.116 OA 
BRANCH   6   7
HETATM    7  C   UNL     1      -9.452  10.072  67.527  1.00  0.00    -0.148 C  
BRANCH   7   8
HETATM    8  C   UNL     1     -10.267  10.696  66.395  1.00  0.00    -0.291 A  
HETATM    9  C   UNL     1     -11.236  11.670  66.695  1.00  0.00    -0.362 A  
HETATM   10  C   UNL     1      -9.944  10.455  65.048  1.00  0.00    -0.399 A  
HETATM   11 CL   UNL     1     -12.106  13.196  63.107  1.00  0.00    -0.496 Cl 
HETATM   12  C   UNL     1     -11.815  12.431  65.678  1.00  0.00    -0.468 A  
HETATM   13  C   UNL     1     -10.535  11.206  64.032  1.00  0.00    -0.447 A  
HETATM   14  C   UNL     1     -11.452  12.205  64.353  1.00  0.00    -0.350 A  
ENDBRANCH   7   8
BRANCH   7  15
HETATM   15  C   UNL     1      -9.996   8.718  67.989  1.00  0.00    -0.182 A  
HETATM   16  C   UNL     1     -10.706   7.371  69.743  1.00  0.00    -0.241 A  
HETATM   17  C   UNL     1     -10.834   6.508  67.534  1.00  0.00    -0.433 A  
HETATM   18  C   UNL     1     -10.300   7.709  67.072  1.00  0.00    -0.400 A  
HETATM   19  N   UNL     1     -10.195   8.553  69.326  1.00  0.00    -0.204 NA 
HETATM   20  C   UNL     1     -11.044   6.333  68.894  1.00  0.00    -0.434 A  
ENDBRANCH   7  15
ENDBRANCH   6   7
ENDBRANCH   5   6
ENDBRANCH   4   5
ENDBRANCH   2   4
TORSDOF 6
ENDMDL
MODEL       94
REMARK 921   NORMALIZED FREE ENERGY PREDICTED BY IDOCK:   -4.24 KCAL/MOL
REMARK 922        TOTAL FREE ENERGY PREDICTED BY IDOCK:   -6.37 KCAL/MOL
REMARK 923 INTER-LIGAND FREE ENERGY PREDICTED BY IDOCK:   -5.82 KCAL/MOL
REMARK 924 INTRA-LIGAND FREE ENERGY PREDICTED BY IDOCK:   -0.55 KCAL/MOL
REMARK 927      BINDING AFFINITY PREDICTED BY RF-SCORE:    0.00 PKD
ROOT
HETATM    1  C   UNL     1     -13.779  14.127  71.953  1.00  0.00    -0.437 C  
HETATM    2  N   UNL     1     -12.808  14.712  71.024  1.00  0.00    -0.331 NA 
HETATM    3  C   UNL     1     -11.918  15.618  71.758  1.00  0.00    -0.440 C  
ENDROOT
BRANCH   2   4
HETATM    4  C   UNL     1     -12.072  13.637  70.328  1.00  0.00    -0.357 C  
BRANCH   4   5
HETATM    5  C   UNL     1     -12.502  12.224  70.745  1.00  0.00    -0.265 C  
BRANCH   5   6
HETATM    6  O   UNL     1     -12.403  11.314  69.637  1.00  0.00    -0.276 OA 
BRANCH   6   7
HETATM    7  C   UNL     1     -11.060  11.268  69.089  1.00  0.00    -0.253 C  
BRANCH   7   8
HETATM    8  C   UNL     1     -10.343  10.022  69.608  1.00  0.00    -0.274 A  
HETATM    9  C   UNL     1     -11.085   8.858  69.875  1.00  0.00    -0.146 A  
HETATM   10  C   UNL     1      -8.939   9.955  69.649  1.00  0.00    -0.232 A  
HETATM   11 CL   UNL     1      -8.249   6.078  70.314  1.00  0.00    -0.117 Cl 
HETATM   12  C   UNL     1     -10.437   7.643  70.109  1.00  0.00    -0.227 A  
HETATM   13  C   UNL     1      -8.294   8.743  69.898  1.00  0.00    -0.125 A  
HETATM   14  C   UNL     1      -9.046   7.589  70.105  1.00  0.00    -0.147 A  
ENDBRANCH   7   8
BRANCH   7  15
HETATM   15  C   UNL     1     -11.080  11.362  67.562  1.00  0.00    -0.281 A  
HETATM   16  C   UNL     1     -11.804  12.488  65.664  1.00  0.00    -0.438 A  
HETATM   17  C   UNL     1     -10.371  10.614  65.386  1.00  0.00    -0.303 A  
HETATM   18  C   UNL     1     -10.359  10.464  66.771  1.00  0.00    -0.294 A  
HETATM   19  N   UNL     1     -11.806  12.375  67.013  1.00  0.00    -0.546 NA 
HETATM   20  C   UNL     1     -11.104  11.646  64.818  1.00  0.00    -0.328 A  
ENDBRANCH   7  15
ENDBRANCH   6   7
ENDBRANCH   5   6
ENDBRANCH   4   5
ENDBRANCH   2   4
TORSDOF 6
ENDMDL
MODEL       95
REMARK 921   NORMALIZED FREE ENERGY PREDICTED BY IDOCK:   -4.23 KCAL/MOL
REMARK 922        TOTAL FREE ENERGY PREDICTED BY IDOCK:   -6.36 KCAL/MOL
REMARK 923 INTER-LIGAND FREE ENERGY PREDICTED BY IDOCK:   -5.76 KCAL/MOL
REMARK 924 INTRA-LIGAND FREE ENERGY PREDICTED BY IDOCK:   -0.60 KCAL/MOL
REMARK 927      BINDING AFFINITY PREDICTED BY RF-SCORE:    0.00 PKD
ROOT
HETATM    1  C   UNL     1      -7.526   8.144  64.714  1.00  0.00    -0.094 C  
HETATM    2  N   UNL     1      -8.071   9.282  63.969  1.00  0.00    -0.141 NA 
HETATM    3  C   UNL     1      -8.287   8.892  62.572  1.00  0.00    -0.203 C  
ENDROOT
BRANCH   2   4
HETATM    4  C   UNL     1      -9.308   9.760  64.621  1.00  0.00    -0.256 C  
BRANCH   4   5
HETATM    5  C   UNL     1      -9.601   9.078  65.964  1.00  0.00    -0.272 C  
BRANCH   5   6
HETATM    6  O   UNL     1     -10.714   9.704  66.622  1.00  0.00    -0.149 OA 
BRANCH   6   7
HETATM    7  C   UNL     1     -10.286  10.722  67.564  1.00  0.00    -0.206 C  
BRANCH   7   8
HETATM    8  C   UNL     1     -10.650  12.103  67.018  1.00  0.00    -0.256 A  
HETATM    9  C   UNL     1      -9.787  13.188  67.252  1.00  0.00    -0.232 A  
HETATM   10  C   UNL     1     -11.728  12.274  66.132  1.00  0.00    -0.440 A  
HETATM   11 CL   UNL     1     -11.175  15.983  64.758  1.00  0.00    -0.414 Cl 
HETATM   12  C   UNL     1      -9.959  14.392  66.565  1.00  0.00    -0.291 A  
HETATM   13  C   UNL     1     -11.907  13.482  65.458  1.00  0.00    -0.388 A  
HETATM   14  C   UNL     1     -11.010  14.528  65.662  1.00  0.00    -0.323 A  
ENDBRANCH   7   8
BRANCH   7  15
HETATM   15  C   UNL     1     -10.849  10.457  68.962  1.00  0.00    -0.234 A  
HETATM   16  C   UNL     1     -12.631  10.645  70.439  1.00  0.00    -0.316 A  
HETATM   17  C   UNL     1     -10.678   9.506  71.167  1.00  0.00    -0.408 A  
HETATM   18  C   UNL     1     -10.108   9.763  69.921  1.00  0.00    -0.288 A  
HETATM   19  N   UNL     1     -12.111  10.902  69.217  1.00  0.00    -0.363 NA 
HETATM   20  C   UNL     1     -11.963   9.952  71.434  1.00  0.00    -0.489 A  
ENDBRANCH   7  15
ENDBRANCH   6   7
ENDBRANCH   5   6
ENDBRANCH   4   5
ENDBRANCH   2   4
TORSDOF 6
ENDMDL
MODEL       96
REMARK 921   NORMALIZED FREE ENERGY PREDICTED BY IDOCK:   -4.23 KCAL/MOL
REMARK 922        TOTAL FREE ENERGY PREDICTED BY IDOCK:   -6.36 KCAL/MOL
REMARK 923 INTER-LIGAND FREE ENERGY PREDICTED BY IDOCK:   -6.26 KCAL/MOL
REMARK 924 INTRA-LIGAND FREE ENERGY PREDICTED BY IDOCK:   -0.09 KCAL/MOL
REMARK 927      BINDING AFFINITY PREDICTED BY RF-SCORE:    0.00 PKD
ROOT
HETATM    1  C   UNL     1     -10.079  14.487  65.683  1.00  0.00    -0.359 C  
HETATM    2  N   UNL     1     -11.098  13.734  64.947  1.00  0.00    -0.344 NA 
HETATM    3  C   UNL     1     -10.515  12.482  64.452  1.00  0.00    -0.359 C  
ENDROOT
BRANCH   2   4
HETATM    4  C   UNL     1     -12.274  13.507  65.812  1.00  0.00    -0.461 C  
BRANCH   4   5
HETATM    5  C   UNL     1     -12.020  12.511  66.951  1.00  0.00    -0.236 C  
BRANCH   5   6
HETATM    6  O   UNL     1     -11.690  13.200  68.168  1.00  0.00    -0.315 OA 
BRANCH   6   7
HETATM    7  C   UNL     1     -12.059  12.433  69.344  1.00  0.00    -0.180 C  
BRANCH   7   8
HETATM    8  C   UNL     1     -10.971  11.400  69.637  1.00  0.00    -0.174 A  
HETATM    9  C   UNL     1     -11.236  10.354  70.540  1.00  0.00    -0.395 A  
HETATM   10  C   UNL     1      -9.782  11.364  68.888  1.00  0.00    -0.105 A  
HETATM   11 CL   UNL     1      -8.181   7.854  69.924  1.00  0.00    -0.119 Cl 
HETATM   12  C   UNL     1     -10.365   9.267  70.639  1.00  0.00    -0.326 A  
HETATM   13  C   UNL     1      -8.906  10.284  69.000  1.00  0.00    -0.170 A  
HETATM   14  C   UNL     1      -9.212   9.231  69.859  1.00  0.00    -0.195 A  
ENDBRANCH   7   8
BRANCH   7  15
HETATM   15  C   UNL     1     -12.360  13.349  70.533  1.00  0.00    -0.329 A  
HETATM   16  C   UNL     1     -13.448  13.655  72.562  1.00  0.00    -0.570 A  
HETATM   17  C   UNL     1     -12.040  15.393  71.763  1.00  0.00    -0.461 A  
HETATM   18  C   UNL     1     -11.771  14.611  70.641  1.00  0.00    -0.339 A  
HETATM   19  N   UNL     1     -13.200  12.866  71.490  1.00  0.00    -0.314 NA 
HETATM   20  C   UNL     1     -12.891  14.908  72.744  1.00  0.00    -0.515 A  
ENDBRANCH   7  15
ENDBRANCH   6   7
ENDBRANCH   5   6
ENDBRANCH   4   5
ENDBRANCH   2   4
TORSDOF 6
ENDMDL
MODEL       97
REMARK 921   NORMALIZED FREE ENERGY PREDICTED BY IDOCK:   -4.22 KCAL/MOL
REMARK 922        TOTAL FREE ENERGY PREDICTED BY IDOCK:   -6.35 KCAL/MOL
REMARK 923 INTER-LIGAND FREE ENERGY PREDICTED BY IDOCK:   -5.68 KCAL/MOL
REMARK 924 INTRA-LIGAND FREE ENERGY PREDICTED BY IDOCK:   -0.67 KCAL/MOL
REMARK 927      BINDING AFFINITY PREDICTED BY RF-SCORE:    0.00 PKD
ROOT
HETATM    1  C   UNL     1     -12.820  10.880  71.564  1.00  0.00    -0.454 C  
HETATM    2  N   UNL     1     -11.821   9.818  71.712  1.00  0.00    -0.347 NA 
HETATM    3  C   UNL     1     -12.473   8.603  72.213  1.00  0.00    -0.395 C  
ENDROOT
BRANCH   2   4
HETATM    4  C   UNL     1     -11.130   9.600  70.425  1.00  0.00    -0.290 C  
BRANCH   4   5
HETATM    5  C   UNL     1     -11.340  10.732  69.410  1.00  0.00    -0.285 C  
BRANCH   5   6
HETATM    6  O   UNL     1     -11.552  10.203  68.092  1.00  0.00    -0.225 OA 
BRANCH   6   7
HETATM    7  C   UNL     1     -10.304  10.017  67.373  1.00  0.00    -0.238 C  
BRANCH   7   8
HETATM    8  C   UNL     1      -9.987   8.525  67.284  1.00  0.00    -0.289 A  
HETATM    9  C   UNL     1      -8.669   8.085  67.497  1.00  0.00    -0.125 A  
HETATM   10  C   UNL     1     -11.012   7.569  67.179  1.00  0.00    -0.164 A  
HETATM   11 CL   UNL     1      -9.104   4.133  67.890  1.00  0.00    -0.151 Cl 
HETATM   12  C   UNL     1      -8.395   6.726  67.668  1.00  0.00    -0.123 A  
HETATM   13  C   UNL     1     -10.734   6.211  67.335  1.00  0.00    -0.403 A  
HETATM   14  C   UNL     1      -9.430   5.797  67.600  1.00  0.00    -0.112 A  
ENDBRANCH   7   8
BRANCH   7  15
HETATM   15  C   UNL     1     -10.341  10.711  66.010  1.00  0.00    -0.225 A  
HETATM   16  C   UNL     1     -10.979  12.555  64.750  1.00  0.00    -0.303 A  
HETATM   17  C   UNL     1      -9.748  10.829  63.679  1.00  0.00    -0.376 A  
HETATM   18  C   UNL     1      -9.728  10.141  64.891  1.00  0.00    -0.392 A  
HETATM   19  N   UNL     1     -10.970  11.917  65.944  1.00  0.00    -0.298 NA 
HETATM   20  C   UNL     1     -10.383  12.060  63.604  1.00  0.00    -0.482 A  
ENDBRANCH   7  15
ENDBRANCH   6   7
ENDBRANCH   5   6
ENDBRANCH   4   5
ENDBRANCH   2   4
TORSDOF 6
ENDMDL
MODEL       98
REMARK 921   NORMALIZED FREE ENERGY PREDICTED BY IDOCK:   -4.21 KCAL/MOL
REMARK 922        TOTAL FREE ENERGY PREDICTED BY IDOCK:   -6.33 KCAL/MOL
REMARK 923 INTER-LIGAND FREE ENERGY PREDICTED BY IDOCK:   -5.63 KCAL/MOL
REMARK 924 INTRA-LIGAND FREE ENERGY PREDICTED BY IDOCK:   -0.70 KCAL/MOL
REMARK 927      BINDING AFFINITY PREDICTED BY RF-SCORE:    0.00 PKD
ROOT
HETATM    1  C   UNL     1      -8.146   7.841  64.137  1.00  0.00    -0.068 C  
HETATM    2  N   UNL     1      -8.168   9.271  64.457  1.00  0.00    -0.142 NA 
HETATM    3  C   UNL     1      -6.808   9.812  64.365  1.00  0.00    -0.119 C  
ENDROOT
BRANCH   2   4
HETATM    4  C   UNL     1      -9.116   9.968  63.563  1.00  0.00    -0.272 C  
BRANCH   4   5
HETATM    5  C   UNL     1      -9.938  11.059  64.263  1.00  0.00    -0.317 C  
BRANCH   5   6
HETATM    6  O   UNL     1      -9.999  10.821  65.678  1.00  0.00    -0.234 OA 
BRANCH   6   7
HETATM    7  C   UNL     1     -10.866  11.771  66.352  1.00  0.00    -0.282 C  
BRANCH   7   8
HETATM    8  C   UNL     1     -11.026  11.362  67.816  1.00  0.00    -0.301 A  
HETATM    9  C   UNL     1     -11.910  12.079  68.642  1.00  0.00    -0.366 A  
HETATM   10  C   UNL     1     -10.452  10.176  68.306  1.00  0.00    -0.244 A  
HETATM   11 CL   UNL     1     -12.211   9.739  71.866  1.00  0.00    -0.430 Cl 
HETATM   12  C   UNL     1     -12.263  11.585  69.899  1.00  0.00    -0.328 A  
HETATM   13  C   UNL     1     -10.795   9.692  69.569  1.00  0.00    -0.253 A  
HETATM   14  C   UNL     1     -11.715  10.387  70.351  1.00  0.00    -0.331 A  
ENDBRANCH   7   8
BRANCH   7  15
HETATM   15  C   UNL     1     -10.362  13.205  66.175  1.00  0.00    -0.284 A  
HETATM   16  C   UNL     1     -10.695  15.314  65.263  1.00  0.00    -0.415 A  
HETATM   17  C   UNL     1      -8.801  14.974  66.655  1.00  0.00    -0.307 A  
HETATM   18  C   UNL     1      -9.198  13.647  66.809  1.00  0.00    -0.251 A  
HETATM   19  N   UNL     1     -11.114  14.035  65.399  1.00  0.00    -0.309 NA 
HETATM   20  C   UNL     1      -9.562  15.827  65.870  1.00  0.00    -0.382 A  
ENDBRANCH   7  15
ENDBRANCH   6   7
ENDBRANCH   5   6
ENDBRANCH   4   5
ENDBRANCH   2   4
TORSDOF 6
ENDMDL
MODEL       99
REMARK 921   NORMALIZED FREE ENERGY PREDICTED BY IDOCK:   -4.21 KCAL/MOL
REMARK 922        TOTAL FREE ENERGY PREDICTED BY IDOCK:   -6.33 KCAL/MOL
REMARK 923 INTER-LIGAND FREE ENERGY PREDICTED BY IDOCK:   -5.56 KCAL/MOL
REMARK 924 INTRA-LIGAND FREE ENERGY PREDICTED BY IDOCK:   -0.77 KCAL/MOL
REMARK 927      BINDING AFFINITY PREDICTED BY RF-SCORE:    0.00 PKD
ROOT
HETATM    1  C   UNL     1     -11.207  13.584  64.399  1.00  0.00    -0.379 C  
HETATM    2  N   UNL     1     -10.838  14.741  65.220  1.00  0.00    -0.356 NA 
HETATM    3  C   UNL     1     -11.182  15.975  64.506  1.00  0.00    -0.297 C  
ENDROOT
BRANCH   2   4
HETATM    4  C   UNL     1     -11.497  14.647  66.540  1.00  0.00    -0.351 C  
BRANCH   4   5
HETATM    5  C   UNL     1     -12.127  13.276  66.819  1.00  0.00    -0.345 C  
BRANCH   5   6
HETATM    6  O   UNL     1     -11.417  12.592  67.864  1.00  0.00    -0.267 OA 
BRANCH   6   7
HETATM    7  C   UNL     1     -11.231  11.184  67.563  1.00  0.00    -0.301 C  
BRANCH   7   8
HETATM    8  C   UNL     1      -9.985  11.012  66.695  1.00  0.00    -0.249 A  
HETATM    9  C   UNL     1      -8.757  11.540  67.134  1.00  0.00    -0.160 A  
HETATM   10  C   UNL     1      -9.998  10.181  65.562  1.00  0.00    -0.363 A  
HETATM   11 CL   UNL     1      -6.122   9.837  64.661  1.00  0.00    -0.087 Cl 
HETATM   12  C   UNL     1      -7.566  11.189  66.495  1.00  0.00    -0.135 A  
HETATM   13  C   UNL     1      -8.808   9.843  64.916  1.00  0.00    -0.223 A  
HETATM   14  C   UNL     1      -7.596  10.332  65.398  1.00  0.00    -0.146 A  
ENDBRANCH   7   8
BRANCH   7  15
HETATM   15  C   UNL     1     -11.199  10.343  68.841  1.00  0.00    -0.235 A  
HETATM   16  C   UNL     1     -10.597   8.355  69.880  1.00  0.00    -0.228 A  
HETATM   17  C   UNL     1     -11.589  10.062  71.200  1.00  0.00    -0.460 A  
HETATM   18  C   UNL     1     -11.677  10.848  70.053  1.00  0.00    -0.427 A  
HETATM   19  N   UNL     1     -10.659   9.096  68.749  1.00  0.00    -0.208 NA 
HETATM   20  C   UNL     1     -11.037   8.793  71.116  1.00  0.00    -0.340 A  
ENDBRANCH   7  15
ENDBRANCH   6   7
ENDBRANCH   5   6
ENDBRANCH   4   5
ENDBRANCH   2   4
TORSDOF 6
ENDMDL
MODEL      100
REMARK 921   NORMALIZED FREE ENERGY PREDICTED BY IDOCK:   -4.20 KCAL/MOL
REMARK 922        TOTAL FREE ENERGY PREDICTED BY IDOCK:   -6.32 KCAL/MOL
REMARK 923 INTER-LIGAND FREE ENERGY PREDICTED BY IDOCK:   -5.69 KCAL/MOL
REMARK 924 INTRA-LIGAND FREE ENERGY PREDICTED BY IDOCK:   -0.63 KCAL/MOL
REMARK 927      BINDING AFFINITY PREDICTED BY RF-SCORE:    0.00 PKD
ROOT
HETATM    1  C   UNL     1      -7.656  10.570  66.777  1.00  0.00    -0.115 C  
HETATM    2  N   UNL     1      -8.186  11.502  67.777  1.00  0.00    -0.129 NA 
HETATM    3  C   UNL     1      -8.759  10.743  68.894  1.00  0.00    -0.152 C  
ENDROOT
BRANCH   2   4
HETATM    4  C   UNL     1      -7.120  12.429  68.210  1.00  0.00    -0.098 C  
BRANCH   4   5
HETATM    5  C   UNL     1      -7.365  13.887  67.799  1.00  0.00    -0.162 C  
BRANCH   5   6
HETATM    6  O   UNL     1      -8.765  14.206  67.861  1.00  0.00    -0.163 OA 
BRANCH   6   7
HETATM    7  C   UNL     1      -9.204  14.951  66.695  1.00  0.00    -0.276 C  
BRANCH   7   8
HETATM    8  C   UNL     1     -10.361  14.210  66.026  1.00  0.00    -0.316 A  
HETATM    9  C   UNL     1     -10.805  14.623  64.757  1.00  0.00    -0.402 A  
HETATM   10  C   UNL     1     -10.867  13.014  66.565  1.00  0.00    -0.294 A  
HETATM   11 CL   UNL     1     -13.154  11.602  63.610  1.00  0.00    -0.193 Cl 
HETATM   12  C   UNL     1     -11.680  13.824  64.018  1.00  0.00    -0.364 A  
HETATM   13  C   UNL     1     -11.753  12.225  65.831  1.00  0.00    -0.451 A  
HETATM   14  C   UNL     1     -12.139  12.623  64.553  1.00  0.00    -0.417 A  
ENDBRANCH   7   8
BRANCH   7  15
HETATM   15  C   UNL     1      -9.541  16.399  67.056  1.00  0.00    -0.237 A  
HETATM   16  C   UNL     1      -9.742  18.608  66.369  1.00  0.00    -0.345 A  
HETATM   17  C   UNL     1     -10.325  18.066  68.606  1.00  0.00    -0.328 A  
HETATM   18  C   UNL     1      -9.987  16.742  68.335  1.00  0.00    -0.268 A  
HETATM   19  N   UNL     1      -9.415  17.330  66.070  1.00  0.00    -0.503 NA 
HETATM   20  C   UNL     1     -10.203  19.019  67.607  1.00  0.00    -0.478 A  
ENDBRANCH   7  15
ENDBRANCH   6   7
ENDBRANCH   5   6
ENDBRANCH   4   5
ENDBRANCH   2   4
TORSDOF 6
ENDMDL
MODEL      101
REMARK 921   NORMALIZED FREE ENERGY PREDICTED BY IDOCK:   -4.19 KCAL/MOL
REMARK 922        TOTAL FREE ENERGY PREDICTED BY IDOCK:   -6.31 KCAL/MOL
REMARK 923 INTER-LIGAND FREE ENERGY PREDICTED BY IDOCK:   -5.63 KCAL/MOL
REMARK 924 INTRA-LIGAND FREE ENERGY PREDICTED BY IDOCK:   -0.68 KCAL/MOL
REMARK 927      BINDING AFFINITY PREDICTED BY RF-SCORE:    0.00 PKD
ROOT
HETATM    1  C   UNL     1      -8.265   8.483  64.434  1.00  0.00    -0.151 C  
HETATM    2  N   UNL     1      -8.681   9.792  63.922  1.00  0.00    -0.201 NA 
HETATM    3  C   UNL     1      -9.101   9.657  62.524  1.00  0.00    -0.265 C  
ENDROOT
BRANCH   2   4
HETATM    4  C   UNL     1      -9.745  10.349  64.782  1.00  0.00    -0.320 C  
BRANCH   4   5
HETATM    5  C   UNL     1     -10.011   9.525  66.050  1.00  0.00    -0.278 C  
BRANCH   5   6
HETATM    6  O   UNL     1     -10.967  10.184  66.895  1.00  0.00    -0.168 OA 
BRANCH   6   7
HETATM    7  C   UNL     1     -10.333  10.844  68.022  1.00  0.00    -0.185 C  
BRANCH   7   8
HETATM    8  C   UNL     1     -10.390  12.357  67.820  1.00  0.00    -0.222 A  
HETATM    9  C   UNL     1     -11.466  12.921  67.112  1.00  0.00    -0.388 A  
HETATM   10  C   UNL     1      -9.493  13.213  68.483  1.00  0.00    -0.104 A  
HETATM   11 CL   UNL     1     -11.105  16.821  67.900  1.00  0.00    -0.253 Cl 
HETATM   12  C   UNL     1     -11.677  14.301  67.123  1.00  0.00    -0.430 A  
HETATM   13  C   UNL     1      -9.697  14.593  68.481  1.00  0.00    -0.225 A  
HETATM   14  C   UNL     1     -10.800  15.129  67.819  1.00  0.00    -0.292 A  
ENDBRANCH   7   8
BRANCH   7  15
HETATM   15  C   UNL     1     -10.944  10.387  69.349  1.00  0.00    -0.251 A  
HETATM   16  C   UNL     1     -10.839   8.966  71.183  1.00  0.00    -0.281 A  
HETATM   17  C   UNL     1     -12.562  10.599  71.118  1.00  0.00    -0.526 A  
HETATM   18  C   UNL     1     -12.067  11.021  69.886  1.00  0.00    -0.435 A  
HETATM   19  N   UNL     1     -10.327   9.357  69.993  1.00  0.00    -0.216 NA 
HETATM   20  C   UNL     1     -11.938   9.555  71.783  1.00  0.00    -0.443 A  
ENDBRANCH   7  15
ENDBRANCH   6   7
ENDBRANCH   5   6
ENDBRANCH   4   5
ENDBRANCH   2   4
TORSDOF 6
ENDMDL
MODEL      102
REMARK 921   NORMALIZED FREE ENERGY PREDICTED BY IDOCK:   -4.18 KCAL/MOL
REMARK 922        TOTAL FREE ENERGY PREDICTED BY IDOCK:   -6.29 KCAL/MOL
REMARK 923 INTER-LIGAND FREE ENERGY PREDICTED BY IDOCK:   -5.67 KCAL/MOL
REMARK 924 INTRA-LIGAND FREE ENERGY PREDICTED BY IDOCK:   -0.62 KCAL/MOL
REMARK 927      BINDING AFFINITY PREDICTED BY RF-SCORE:    0.00 PKD
ROOT
HETATM    1  C   UNL     1     -10.417   8.380  72.199  1.00  0.00    -0.326 C  
HETATM    2  N   UNL     1     -11.247   8.719  71.040  1.00  0.00    -0.260 NA 
HETATM    3  C   UNL     1     -12.643   8.866  71.466  1.00  0.00    -0.331 C  
ENDROOT
BRANCH   2   4
HETATM    4  C   UNL     1     -10.722   9.937  70.388  1.00  0.00    -0.318 C  
BRANCH   4   5
HETATM    5  C   UNL     1     -11.447  10.302  69.086  1.00  0.00    -0.147 C  
BRANCH   5   6
HETATM    6  O   UNL     1     -10.514  10.423  68.000  1.00  0.00    -0.172 OA 
BRANCH   6   7
HETATM    7  C   UNL     1     -11.030  11.258  66.931  1.00  0.00    -0.290 C  
BRANCH   7   8
HETATM    8  C   UNL     1     -10.779  12.727  67.269  1.00  0.00    -0.256 A  
HETATM    9  C   UNL     1     -11.831  13.653  67.155  1.00  0.00    -0.435 A  
HETATM   10  C   UNL     1      -9.575  13.140  67.866  1.00  0.00    -0.218 A  
HETATM   11 CL   UNL     1     -10.393  16.870  69.037  1.00  0.00    -0.317 Cl 
HETATM   12  C   UNL     1     -11.705  14.938  67.687  1.00  0.00    -0.329 A  
HETATM   13  C   UNL     1      -9.447  14.429  68.384  1.00  0.00    -0.207 A  
HETATM   14  C   UNL     1     -10.519  15.315  68.311  1.00  0.00    -0.244 A  
ENDBRANCH   7   8
BRANCH   7  15
HETATM   15  C   UNL     1     -10.455  10.843  65.574  1.00  0.00    -0.219 A  
HETATM   16  C   UNL     1     -10.329  11.220  63.286  1.00  0.00    -0.347 A  
HETATM   17  C   UNL     1      -9.007   9.479  64.217  1.00  0.00    -0.248 A  
HETATM   18  C   UNL     1      -9.538   9.795  65.467  1.00  0.00    -0.348 A  
HETATM   19  N   UNL     1     -10.856  11.557  64.486  1.00  0.00    -0.328 NA 
HETATM   20  C   UNL     1      -9.406  10.205  63.105  1.00  0.00    -0.333 A  
ENDBRANCH   7  15
ENDBRANCH   6   7
ENDBRANCH   5   6
ENDBRANCH   4   5
ENDBRANCH   2   4
TORSDOF 6
ENDMDL
MODEL      103
REMARK 921   NORMALIZED FREE ENERGY PREDICTED BY IDOCK:   -4.16 KCAL/MOL
REMARK 922        TOTAL FREE ENERGY PREDICTED BY IDOCK:   -6.26 KCAL/MOL
REMARK 923 INTER-LIGAND FREE ENERGY PREDICTED BY IDOCK:   -5.59 KCAL/MOL
REMARK 924 INTRA-LIGAND FREE ENERGY PREDICTED BY IDOCK:   -0.67 KCAL/MOL
REMARK 927      BINDING AFFINITY PREDICTED BY RF-SCORE:    0.00 PKD
ROOT
HETATM    1  C   UNL     1     -13.896  14.171  72.004  1.00  0.00    -0.485 C  
HETATM    2  N   UNL     1     -13.024  14.782  70.996  1.00  0.00    -0.344 NA 
HETATM    3  C   UNL     1     -12.186  15.804  71.633  1.00  0.00    -0.456 C  
ENDROOT
BRANCH   2   4
HETATM    4  C   UNL     1     -12.226  13.735  70.324  1.00  0.00    -0.359 C  
BRANCH   4   5
HETATM    5  C   UNL     1     -12.417  12.334  70.922  1.00  0.00    -0.276 C  
BRANCH   5   6
HETATM    6  O   UNL     1     -12.187  11.321  69.931  1.00  0.00    -0.299 OA 
BRANCH   6   7
HETATM    7  C   UNL     1     -10.796  10.907  69.889  1.00  0.00    -0.141 C  
BRANCH   7   8
HETATM    8  C   UNL     1     -10.646   9.561  70.595  1.00  0.00    -0.374 A  
HETATM    9  C   UNL     1      -9.407   9.211  71.162  1.00  0.00    -0.313 A  
HETATM   10  C   UNL     1     -11.762   8.747  70.853  1.00  0.00    -0.299 A  
HETATM   11 CL   UNL     1     -10.321   6.041  73.414  1.00  0.00    -0.227 Cl 
HETATM   12  C   UNL     1      -9.304   8.114  72.020  1.00  0.00    -0.266 A  
HETATM   13  C   UNL     1     -11.654   7.642  71.699  1.00  0.00    -0.301 A  
HETATM   14  C   UNL     1     -10.431   7.344  72.295  1.00  0.00    -0.223 A  
ENDBRANCH   7   8
BRANCH   7  15
HETATM   15  C   UNL     1     -10.262  10.901  68.455  1.00  0.00    -0.178 A  
HETATM   16  C   UNL     1     -10.363  10.003  66.315  1.00  0.00    -0.165 A  
HETATM   17  C   UNL     1      -8.856  11.794  66.716  1.00  0.00    -0.191 A  
HETATM   18  C   UNL     1      -9.281  11.807  68.043  1.00  0.00    -0.181 A  
HETATM   19  N   UNL     1     -10.805   9.996  67.594  1.00  0.00    -0.287 NA 
HETATM   20  C   UNL     1      -9.407  10.878  65.833  1.00  0.00    -0.226 A  
ENDBRANCH   7  15
ENDBRANCH   6   7
ENDBRANCH   5   6
ENDBRANCH   4   5
ENDBRANCH   2   4
TORSDOF 6
ENDMDL
MODEL      104
REMARK 921   NORMALIZED FREE ENERGY PREDICTED BY IDOCK:   -4.13 KCAL/MOL
REMARK 922        TOTAL FREE ENERGY PREDICTED BY IDOCK:   -6.23 KCAL/MOL
REMARK 923 INTER-LIGAND FREE ENERGY PREDICTED BY IDOCK:   -5.58 KCAL/MOL
REMARK 924 INTRA-LIGAND FREE ENERGY PREDICTED BY IDOCK:   -0.66 KCAL/MOL
REMARK 927      BINDING AFFINITY PREDICTED BY RF-SCORE:    0.00 PKD
ROOT
HETATM    1  C   UNL     1      -6.293   9.200  69.985  1.00  0.00    -0.039 C  
HETATM    2  N   UNL     1      -7.308  10.247  69.834  1.00  0.00    -0.157 NA 
HETATM    3  C   UNL     1      -6.651  11.557  69.773  1.00  0.00    -0.091 C  
ENDROOT
BRANCH   2   4
HETATM    4  C   UNL     1      -8.136   9.972  68.642  1.00  0.00    -0.102 C  
BRANCH   4   5
HETATM    5  C   UNL     1      -9.423  10.806  68.577  1.00  0.00    -0.181 C  
BRANCH   5   6
HETATM    6  O   UNL     1      -9.400  11.692  67.446  1.00  0.00    -0.165 OA 
BRANCH   6   7
HETATM    7  C   UNL     1     -10.679  12.349  67.245  1.00  0.00    -0.230 C  
BRANCH   7   8
HETATM    8  C   UNL     1     -10.574  13.808  67.686  1.00  0.00    -0.244 A  
HETATM    9  C   UNL     1      -9.475  14.580  67.267  1.00  0.00    -0.218 A  
HETATM   10  C   UNL     1     -11.638  14.447  68.345  1.00  0.00    -0.351 A  
HETATM   11 CL   UNL     1     -10.592  18.300  68.206  1.00  0.00    -0.313 Cl 
HETATM   12  C   UNL     1      -9.475  15.966  67.442  1.00  0.00    -0.220 A  
HETATM   13  C   UNL     1     -11.629  15.830  68.533  1.00  0.00    -0.367 A  
HETATM   14  C   UNL     1     -10.557  16.585  68.061  1.00  0.00    -0.328 A  
ENDBRANCH   7   8
BRANCH   7  15
HETATM   15  C   UNL     1     -11.166  12.186  65.803  1.00  0.00    -0.339 A  
HETATM   16  C   UNL     1     -12.902  12.386  64.273  1.00  0.00    -0.258 A  
HETATM   17  C   UNL     1     -10.777  11.677  63.483  1.00  0.00    -0.495 A  
HETATM   18  C   UNL     1     -10.301  11.769  64.789  1.00  0.00    -0.333 A  
HETATM   19  N   UNL     1     -12.469  12.495  65.551  1.00  0.00    -0.635 NA 
HETATM   20  C   UNL     1     -12.101  11.993  63.216  1.00  0.00    -0.509 A  
ENDBRANCH   7  15
ENDBRANCH   6   7
ENDBRANCH   5   6
ENDBRANCH   4   5
ENDBRANCH   2   4
TORSDOF 6
ENDMDL
MODEL      105
REMARK 921   NORMALIZED FREE ENERGY PREDICTED BY IDOCK:   -4.13 KCAL/MOL
REMARK 922        TOTAL FREE ENERGY PREDICTED BY IDOCK:   -6.23 KCAL/MOL
REMARK 923 INTER-LIGAND FREE ENERGY PREDICTED BY IDOCK:   -5.35 KCAL/MOL
REMARK 924 INTRA-LIGAND FREE ENERGY PREDICTED BY IDOCK:   -0.88 KCAL/MOL
REMARK 927      BINDING AFFINITY PREDICTED BY RF-SCORE:    0.00 PKD
ROOT
HETATM    1  C   UNL     1     -12.239  12.915  70.338  1.00  0.00    -0.304 C  
HETATM    2  N   UNL     1     -12.783  14.067  71.065  1.00  0.00    -0.346 NA 
HETATM    3  C   UNL     1     -13.541  13.595  72.229  1.00  0.00    -0.571 C  
ENDROOT
BRANCH   2   4
HETATM    4  C   UNL     1     -11.687  14.985  71.437  1.00  0.00    -0.357 C  
BRANCH   4   5
HETATM    5  C   UNL     1     -11.480  16.135  70.443  1.00  0.00    -0.328 C  
BRANCH   5   6
HETATM    6  O   UNL     1     -10.288  15.930  69.667  1.00  0.00    -0.261 OA 
BRANCH   6   7
HETATM    7  C   UNL     1     -10.530  16.099  68.245  1.00  0.00    -0.276 C  
BRANCH   7   8
HETATM    8  C   UNL     1      -9.344  16.827  67.613  1.00  0.00    -0.228 A  
HETATM    9  C   UNL     1      -8.221  17.135  68.401  1.00  0.00    -0.253 A  
HETATM   10  C   UNL     1      -9.273  17.031  66.224  1.00  0.00    -0.278 A  
HETATM   11 CL   UNL     1      -5.488  18.186  65.683  1.00  0.00    -0.217 Cl 
HETATM   12  C   UNL     1      -7.035  17.570  67.806  1.00  0.00    -0.180 A  
HETATM   13  C   UNL     1      -8.092  17.480  65.633  1.00  0.00     0.455 A  
HETATM   14  C   UNL     1      -6.972  17.727  66.424  1.00  0.00    -0.253 A  
ENDBRANCH   7   8
BRANCH   7  15
HETATM   15  C   UNL     1     -10.847  14.762  67.573  1.00  0.00    -0.287 A  
HETATM   16  C   UNL     1     -12.224  13.546  66.152  1.00  0.00    -0.433 A  
HETATM   17  C   UNL     1     -10.324  12.464  67.079  1.00  0.00    -0.235 A  
HETATM   18  C   UNL     1     -10.020  13.650  67.746  1.00  0.00    -0.235 A  
HETATM   19  N   UNL     1     -11.952  14.715  66.778  1.00  0.00    -0.338 NA 
HETATM   20  C   UNL     1     -11.445  12.409  66.264  1.00  0.00    -0.423 A  
ENDBRANCH   7  15
ENDBRANCH   6   7
ENDBRANCH   5   6
ENDBRANCH   4   5
ENDBRANCH   2   4
TORSDOF 6
ENDMDL
MODEL      106
REMARK 921   NORMALIZED FREE ENERGY PREDICTED BY IDOCK:   -4.12 KCAL/MOL
REMARK 922        TOTAL FREE ENERGY PREDICTED BY IDOCK:   -6.21 KCAL/MOL
REMARK 923 INTER-LIGAND FREE ENERGY PREDICTED BY IDOCK:   -5.59 KCAL/MOL
REMARK 924 INTRA-LIGAND FREE ENERGY PREDICTED BY IDOCK:   -0.62 KCAL/MOL
REMARK 927      BINDING AFFINITY PREDICTED BY RF-SCORE:    0.00 PKD
ROOT
HETATM    1  C   UNL     1     -11.444  14.149  66.544  1.00  0.00    -0.358 C  
HETATM    2  N   UNL     1     -10.873  14.202  67.893  1.00  0.00    -0.242 NA 
HETATM    3  C   UNL     1     -11.775  14.951  68.774  1.00  0.00    -0.325 C  
ENDROOT
BRANCH   2   4
HETATM    4  C   UNL     1     -10.614  12.832  68.380  1.00  0.00    -0.248 C  
BRANCH   4   5
HETATM    5  C   UNL     1     -11.763  12.243  69.209  1.00  0.00    -0.330 C  
BRANCH   5   6
HETATM    6  O   UNL     1     -11.715  10.807  69.201  1.00  0.00    -0.292 OA 
BRANCH   6   7
HETATM    7  C   UNL     1     -10.373  10.307  69.438  1.00  0.00    -0.235 C  
BRANCH   7   8
HETATM    8  C   UNL     1     -10.330   9.588  70.785  1.00  0.00    -0.377 A  
HETATM    9  C   UNL     1     -11.534   9.218  71.410  1.00  0.00    -0.439 A  
HETATM   10  C   UNL     1      -9.117   9.125  71.324  1.00  0.00    -0.232 A  
HETATM   11 CL   UNL     1     -10.313   6.740  74.297  1.00  0.00    -0.352 Cl 
HETATM   12  C   UNL     1     -11.527   8.351  72.505  1.00  0.00    -0.422 A  
HETATM   13  C   UNL     1      -9.112   8.271  72.427  1.00  0.00    -0.307 A  
HETATM   14  C   UNL     1     -10.317   7.871  72.999  1.00  0.00    -0.334 A  
ENDBRANCH   7   8
BRANCH   7  15
HETATM   15  C   UNL     1      -9.890   9.440  68.273  1.00  0.00    -0.160 A  
HETATM   16  C   UNL     1     -10.190   7.539  66.972  1.00  0.00    -0.298 A  
HETATM   17  C   UNL     1      -8.423   9.023  66.410  1.00  0.00    -0.126 A  
HETATM   18  C   UNL     1      -8.800   9.823  67.488  1.00  0.00    -0.129 A  
HETATM   19  N   UNL     1     -10.588   8.298  68.020  1.00  0.00    -0.172 NA 
HETATM   20  C   UNL     1      -9.130   7.861  66.143  1.00  0.00    -0.210 A  
ENDBRANCH   7  15
ENDBRANCH   6   7
ENDBRANCH   5   6
ENDBRANCH   4   5
ENDBRANCH   2   4
TORSDOF 6
ENDMDL
MODEL      107
REMARK 921   NORMALIZED FREE ENERGY PREDICTED BY IDOCK:   -4.10 KCAL/MOL
REMARK 922        TOTAL FREE ENERGY PREDICTED BY IDOCK:   -6.19 KCAL/MOL
REMARK 923 INTER-LIGAND FREE ENERGY PREDICTED BY IDOCK:   -5.75 KCAL/MOL
REMARK 924 INTRA-LIGAND FREE ENERGY PREDICTED BY IDOCK:   -0.44 KCAL/MOL
REMARK 927      BINDING AFFINITY PREDICTED BY RF-SCORE:    0.00 PKD
ROOT
HETATM    1  C   UNL     1      -5.979  11.709  69.958  1.00  0.00    -0.152 C  
HETATM    2  N   UNL     1      -6.526  13.052  69.742  1.00  0.00    -0.059 NA 
HETATM    3  C   UNL     1      -5.563  14.052  70.213  1.00  0.00    -0.125 C  
ENDROOT
BRANCH   2   4
HETATM    4  C   UNL     1      -6.873  13.226  68.316  1.00  0.00    -0.105 C  
BRANCH   4   5
HETATM    5  C   UNL     1      -7.661  12.050  67.724  1.00  0.00    -0.139 C  
BRANCH   5   6
HETATM    6  O   UNL     1      -9.027  12.424  67.479  1.00  0.00    -0.168 OA 
BRANCH   6   7
HETATM    7  C   UNL     1      -9.825  11.299  67.027  1.00  0.00    -0.191 C  
BRANCH   7   8
HETATM    8  C   UNL     1     -10.596  10.715  68.210  1.00  0.00    -0.227 A  
HETATM    9  C   UNL     1     -10.449   9.353  68.527  1.00  0.00    -0.239 A  
HETATM   10  C   UNL     1     -11.301  11.545  69.099  1.00  0.00    -0.351 A  
HETATM   11 CL   UNL     1     -12.128   9.096  72.144  1.00  0.00    -0.418 Cl 
HETATM   12  C   UNL     1     -10.937   8.850  69.736  1.00  0.00    -0.164 A  
HETATM   13  C   UNL     1     -11.800  11.038  70.299  1.00  0.00    -0.456 A  
HETATM   14  C   UNL     1     -11.598   9.698  70.621  1.00  0.00    -0.299 A  
ENDBRANCH   7   8
BRANCH   7  15
HETATM   15  C   UNL     1     -10.725  11.692  65.853  1.00  0.00    -0.278 A  
HETATM   16  C   UNL     1     -11.219  11.493  63.593  1.00  0.00    -0.362 A  
HETATM   17  C   UNL     1     -12.653  12.816  64.948  1.00  0.00    -0.541 A  
HETATM   18  C   UNL     1     -11.836  12.519  66.038  1.00  0.00    -0.478 A  
HETATM   19  N   UNL     1     -10.411  11.178  64.631  1.00  0.00    -0.327 NA 
HETATM   20  C   UNL     1     -12.343  12.293  63.702  1.00  0.00    -0.664 A  
ENDBRANCH   7  15
ENDBRANCH   6   7
ENDBRANCH   5   6
ENDBRANCH   4   5
ENDBRANCH   2   4
TORSDOF 6
ENDMDL
MODEL      108
REMARK 921   NORMALIZED FREE ENERGY PREDICTED BY IDOCK:   -4.10 KCAL/MOL
REMARK 922        TOTAL FREE ENERGY PREDICTED BY IDOCK:   -6.19 KCAL/MOL
REMARK 923 INTER-LIGAND FREE ENERGY PREDICTED BY IDOCK:   -5.64 KCAL/MOL
REMARK 924 INTRA-LIGAND FREE ENERGY PREDICTED BY IDOCK:   -0.54 KCAL/MOL
REMARK 927      BINDING AFFINITY PREDICTED BY RF-SCORE:    0.00 PKD
ROOT
HETATM    1  C   UNL     1      -8.922   5.053  73.011  1.00  0.00    -0.115 C  
HETATM    2  N   UNL     1      -8.838   5.721  74.313  1.00  0.00    -0.121 NA 
HETATM    3  C   UNL     1      -7.589   6.487  74.386  1.00  0.00    -0.098 C  
ENDROOT
BRANCH   2   4
HETATM    4  C   UNL     1     -10.033   6.564  74.520  1.00  0.00    -0.334 C  
BRANCH   4   5
HETATM    5  C   UNL     1     -10.959   6.634  73.298  1.00  0.00    -0.207 C  
BRANCH   5   6
HETATM    6  O   UNL     1     -11.020   7.973  72.780  1.00  0.00    -0.363 OA 
BRANCH   6   7
HETATM    7  C   UNL     1     -11.705   8.030  71.502  1.00  0.00    -0.284 C  
BRANCH   7   8
HETATM    8  C   UNL     1     -12.089   9.477  71.197  1.00  0.00    -0.429 A  
HETATM    9  C   UNL     1     -13.073  10.111  71.977  1.00  0.00    -0.538 A  
HETATM   10  C   UNL     1     -11.353  10.247  70.279  1.00  0.00    -0.398 A  
HETATM   11 CL   UNL     1     -12.685  13.952  70.950  1.00  0.00    -0.414 Cl 
HETATM   12  C   UNL     1     -13.267  11.491  71.888  1.00  0.00    -0.479 A  
HETATM   13  C   UNL     1     -11.559  11.623  70.182  1.00  0.00    -0.303 A  
HETATM   14  C   UNL     1     -12.500  12.242  71.002  1.00  0.00    -0.263 A  
ENDBRANCH   7   8
BRANCH   7  15
HETATM   15  C   UNL     1     -10.873   7.378  70.395  1.00  0.00    -0.243 A  
HETATM   16  C   UNL     1      -8.773   6.931  69.510  1.00  0.00    -0.133 A  
HETATM   17  C   UNL     1     -10.675   6.024  68.415  1.00  0.00    -0.351 A  
HETATM   18  C   UNL     1     -11.476   6.636  69.377  1.00  0.00    -0.288 A  
HETATM   19  N   UNL     1      -9.521   7.530  70.465  1.00  0.00    -0.165 NA 
HETATM   20  C   UNL     1      -9.298   6.170  68.481  1.00  0.00    -0.117 A  
ENDBRANCH   7  15
ENDBRANCH   6   7
ENDBRANCH   5   6
ENDBRANCH   4   5
ENDBRANCH   2   4
TORSDOF 6
ENDMDL
MODEL      109
REMARK 921   NORMALIZED FREE ENERGY PREDICTED BY IDOCK:   -4.10 KCAL/MOL
REMARK 922        TOTAL FREE ENERGY PREDICTED BY IDOCK:   -6.18 KCAL/MOL
REMARK 923 INTER-LIGAND FREE ENERGY PREDICTED BY IDOCK:   -5.58 KCAL/MOL
REMARK 924 INTRA-LIGAND FREE ENERGY PREDICTED BY IDOCK:   -0.60 KCAL/MOL
REMARK 927      BINDING AFFINITY PREDICTED BY RF-SCORE:    0.00 PKD
ROOT
HETATM    1  C   UNL     1     -11.074   3.531  73.512  1.00  0.00    -0.221 C  
HETATM    2  N   UNL     1     -11.047   4.961  73.189  1.00  0.00    -0.300 NA 
HETATM    3  C   UNL     1     -10.411   5.696  74.287  1.00  0.00    -0.272 C  
ENDROOT
BRANCH   2   4
HETATM    4  C   UNL     1     -10.361   5.168  71.896  1.00  0.00    -0.212 C  
BRANCH   4   5
HETATM    5  C   UNL     1     -11.086   6.147  70.962  1.00  0.00    -0.297 C  
BRANCH   5   6
HETATM    6  O   UNL     1     -10.780   7.507  71.312  1.00  0.00    -0.224 OA 
BRANCH   6   7
HETATM    7  C   UNL     1     -10.857   8.393  70.165  1.00  0.00    -0.236 C  
BRANCH   7   8
HETATM    8  C   UNL     1     -11.721   9.603  70.517  1.00  0.00    -0.312 A  
HETATM    9  C   UNL     1     -12.652   9.507  71.567  1.00  0.00    -0.462 A  
HETATM   10  C   UNL     1     -11.478  10.862  69.941  1.00  0.00    -0.402 A  
HETATM   11 CL   UNL     1     -13.690  13.315  72.188  1.00  0.00    -0.621 Cl 
HETATM   12  C   UNL     1     -13.272  10.652  72.072  1.00  0.00    -0.473 A  
HETATM   13  C   UNL     1     -12.110  12.003  70.437  1.00  0.00    -0.407 A  
HETATM   14  C   UNL     1     -12.987  11.896  71.514  1.00  0.00    -0.323 A  
ENDBRANCH   7   8
BRANCH   7  15
HETATM   15  C   UNL     1      -9.462   8.771  69.661  1.00  0.00    -0.170 A  
HETATM   16  C   UNL     1      -7.353   9.617  70.141  1.00  0.00    -0.139 A  
HETATM   17  C   UNL     1      -7.790   8.863  67.931  1.00  0.00    -0.102 A  
HETATM   18  C   UNL     1      -9.085   8.544  68.335  1.00  0.00    -0.139 A  
HETATM   19  N   UNL     1      -8.600   9.309  70.568  1.00  0.00    -0.218 NA 
HETATM   20  C   UNL     1      -6.905   9.408  68.849  1.00  0.00    -0.055 A  
ENDBRANCH   7  15
ENDBRANCH   6   7
ENDBRANCH   5   6
ENDBRANCH   4   5
ENDBRANCH   2   4
TORSDOF 6
ENDMDL
MODEL      110
REMARK 921   NORMALIZED FREE ENERGY PREDICTED BY IDOCK:   -4.10 KCAL/MOL
REMARK 922        TOTAL FREE ENERGY PREDICTED BY IDOCK:   -6.18 KCAL/MOL
REMARK 923 INTER-LIGAND FREE ENERGY PREDICTED BY IDOCK:   -5.95 KCAL/MOL
REMARK 924 INTRA-LIGAND FREE ENERGY PREDICTED BY IDOCK:   -0.23 KCAL/MOL
REMARK 927      BINDING AFFINITY PREDICTED BY RF-SCORE:    0.00 PKD
ROOT
HETATM    1  C   UNL     1     -10.660  18.475  65.853  1.00  0.00    -0.300 C  
HETATM    2  N   UNL     1      -9.250  18.094  65.974  1.00  0.00    -0.517 NA 
HETATM    3  C   UNL     1      -8.474  19.244  66.453  1.00  0.00    -0.333 C  
ENDROOT
BRANCH   2   4
HETATM    4  C   UNL     1      -9.124  16.918  66.860  1.00  0.00    -0.230 C  
BRANCH   4   5
HETATM    5  C   UNL     1     -10.465  16.250  67.195  1.00  0.00    -0.297 C  
BRANCH   5   6
HETATM    6  O   UNL     1     -10.292  15.231  68.191  1.00  0.00    -0.237 OA 
BRANCH   6   7
HETATM    7  C   UNL     1     -11.246  14.148  68.033  1.00  0.00    -0.281 C  
BRANCH   7   8
HETATM    8  C   UNL     1     -10.543  12.939  67.416  1.00  0.00    -0.242 A  
HETATM    9  C   UNL     1      -9.507  12.306  68.125  1.00  0.00    -0.213 A  
HETATM   10  C   UNL     1     -11.030  12.335  66.244  1.00  0.00    -0.327 A  
HETATM   11 CL   UNL     1      -8.997   8.899  66.101  1.00  0.00    -0.198 Cl 
HETATM   12  C   UNL     1      -9.019  11.065  67.709  1.00  0.00    -0.140 A  
HETATM   13  C   UNL     1     -10.531  11.102  65.822  1.00  0.00    -0.305 A  
HETATM   14  C   UNL     1      -9.543  10.463  66.568  1.00  0.00    -0.179 A  
ENDBRANCH   7   8
BRANCH   7  15
HETATM   15  C   UNL     1     -11.950  13.830  69.354  1.00  0.00    -0.347 A  
HETATM   16  C   UNL     1     -12.619  12.229  70.897  1.00  0.00    -0.241 A  
HETATM   17  C   UNL     1     -13.057  14.513  71.380  1.00  0.00    -0.423 A  
HETATM   18  C   UNL     1     -12.462  14.846  70.164  1.00  0.00    -0.353 A  
HETATM   19  N   UNL     1     -12.027  12.519  69.715  1.00  0.00    -0.311 NA 
HETATM   20  C   UNL     1     -13.136  13.181  71.758  1.00  0.00    -0.478 A  
ENDBRANCH   7  15
ENDBRANCH   6   7
ENDBRANCH   5   6
ENDBRANCH   4   5
ENDBRANCH   2   4
TORSDOF 6
ENDMDL
MODEL      111
REMARK 921   NORMALIZED FREE ENERGY PREDICTED BY IDOCK:   -4.09 KCAL/MOL
REMARK 922        TOTAL FREE ENERGY PREDICTED BY IDOCK:   -6.18 KCAL/MOL
REMARK 923 INTER-LIGAND FREE ENERGY PREDICTED BY IDOCK:   -5.40 KCAL/MOL
REMARK 924 INTRA-LIGAND FREE ENERGY PREDICTED BY IDOCK:   -0.78 KCAL/MOL
REMARK 927      BINDING AFFINITY PREDICTED BY RF-SCORE:    0.00 PKD
ROOT
HETATM    1  C   UNL     1      -6.258  10.529  66.102  1.00  0.00    -0.111 C  
HETATM    2  N   UNL     1      -7.513  10.050  66.688  1.00  0.00    -0.102 NA 
HETATM    3  C   UNL     1      -8.148   9.099  65.769  1.00  0.00    -0.112 C  
ENDROOT
BRANCH   2   4
HETATM    4  C   UNL     1      -7.251   9.462  68.018  1.00  0.00    -0.078 C  
BRANCH   4   5
HETATM    5  C   UNL     1      -7.971  10.183  69.165  1.00  0.00    -0.124 C  
BRANCH   5   6
HETATM    6  O   UNL     1      -9.332   9.735  69.274  1.00  0.00    -0.169 OA 
BRANCH   6   7
HETATM    7  C   UNL     1     -10.212  10.784  69.758  1.00  0.00     0.029 C  
BRANCH   7   8
HETATM    8  C   UNL     1     -10.652  11.658  68.585  1.00  0.00    -0.236 A  
HETATM    9  C   UNL     1     -10.997  11.054  67.363  1.00  0.00    -0.349 A  
HETATM   10  C   UNL     1     -10.897  13.032  68.754  1.00  0.00    -0.277 A  
HETATM   11 CL   UNL     1     -12.760  14.031  65.364  1.00  0.00    -0.532 Cl 
HETATM   12  C   UNL     1     -11.634  11.791  66.362  1.00  0.00    -0.237 A  
HETATM   13  C   UNL     1     -11.520  13.770  67.747  1.00  0.00    -0.354 A  
HETATM   14  C   UNL     1     -11.905  13.142  66.565  1.00  0.00    -0.400 A  
ENDBRANCH   7   8
BRANCH   7  15
HETATM   15  C   UNL     1     -11.383  10.203  70.553  1.00  0.00    -0.338 A  
HETATM   16  C   UNL     1     -12.408   8.333  71.475  1.00  0.00    -0.306 A  
HETATM   17  C   UNL     1     -13.404  10.459  71.836  1.00  0.00    -0.469 A  
HETATM   18  C   UNL     1     -12.380  11.027  71.082  1.00  0.00    -0.465 A  
HETATM   19  N   UNL     1     -11.394   8.854  70.745  1.00  0.00    -0.273 NA 
HETATM   20  C   UNL     1     -13.420   9.087  72.040  1.00  0.00    -0.498 A  
ENDBRANCH   7  15
ENDBRANCH   6   7
ENDBRANCH   5   6
ENDBRANCH   4   5
ENDBRANCH   2   4
TORSDOF 6
ENDMDL
MODEL      112
REMARK 921   NORMALIZED FREE ENERGY PREDICTED BY IDOCK:   -4.09 KCAL/MOL
REMARK 922        TOTAL FREE ENERGY PREDICTED BY IDOCK:   -6.17 KCAL/MOL
REMARK 923 INTER-LIGAND FREE ENERGY PREDICTED BY IDOCK:   -5.08 KCAL/MOL
REMARK 924 INTRA-LIGAND FREE ENERGY PREDICTED BY IDOCK:   -1.09 KCAL/MOL
REMARK 927      BINDING AFFINITY PREDICTED BY RF-SCORE:    0.00 PKD
ROOT
HETATM    1  C   UNL     1      -9.833   3.974  71.702  1.00  0.00    -0.183 C  
HETATM    2  N   UNL     1      -9.765   4.152  73.155  1.00  0.00    -0.123 NA 
HETATM    3  C   UNL     1      -8.469   4.738  73.514  1.00  0.00    -0.106 C  
ENDROOT
BRANCH   2   4
HETATM    4  C   UNL     1     -10.904   4.976  73.612  1.00  0.00    -0.307 C  
BRANCH   4   5
HETATM    5  C   UNL     1     -11.660   5.671  72.472  1.00  0.00    -0.246 C  
BRANCH   5   6
HETATM    6  O   UNL     1     -11.512   7.097  72.557  1.00  0.00    -0.278 OA 
BRANCH   6   7
HETATM    7  C   UNL     1     -10.979   7.662  71.331  1.00  0.00    -0.231 C  
BRANCH   7   8
HETATM    8  C   UNL     1     -11.606   9.035  71.090  1.00  0.00    -0.372 A  
HETATM    9  C   UNL     1     -12.701   9.442  71.874  1.00  0.00    -0.484 A  
HETATM   10  C   UNL     1     -11.000   9.971  70.235  1.00  0.00    -0.377 A  
HETATM   11 CL   UNL     1     -12.976  13.343  71.060  1.00  0.00    -0.305 Cl 
HETATM   12  C   UNL     1     -13.134  10.769  71.851  1.00  0.00    -0.557 A  
HETATM   13  C   UNL     1     -11.444  11.294  70.203  1.00  0.00    -0.336 A  
HETATM   14  C   UNL     1     -12.494  11.692  71.027  1.00  0.00    -0.334 A  
ENDBRANCH   7   8
BRANCH   7  15
HETATM   15  C   UNL     1      -9.449   7.691  71.352  1.00  0.00    -0.148 A  
HETATM   16  C   UNL     1      -7.452   7.243  70.254  1.00  0.00    -0.084 A  
HETATM   17  C   UNL     1      -7.357   8.277  72.390  1.00  0.00    -0.140 A  
HETATM   18  C   UNL     1      -8.750   8.232  72.433  1.00  0.00    -0.279 A  
HETATM   19  N   UNL     1      -8.805   7.193  70.260  1.00  0.00    -0.147 NA 
HETATM   20  C   UNL     1      -6.693   7.776  71.280  1.00  0.00    -0.045 A  
ENDBRANCH   7  15
ENDBRANCH   6   7
ENDBRANCH   5   6
ENDBRANCH   4   5
ENDBRANCH   2   4
TORSDOF 6
ENDMDL
MODEL      113
REMARK 921   NORMALIZED FREE ENERGY PREDICTED BY IDOCK:   -4.08 KCAL/MOL
REMARK 922        TOTAL FREE ENERGY PREDICTED BY IDOCK:   -6.16 KCAL/MOL
REMARK 923 INTER-LIGAND FREE ENERGY PREDICTED BY IDOCK:   -5.71 KCAL/MOL
REMARK 924 INTRA-LIGAND FREE ENERGY PREDICTED BY IDOCK:   -0.45 KCAL/MOL
REMARK 927      BINDING AFFINITY PREDICTED BY RF-SCORE:    0.00 PKD
ROOT
HETATM    1  C   UNL     1      -5.212  15.712  70.805  1.00  0.00    -0.160 C  
HETATM    2  N   UNL     1      -5.689  14.479  70.171  1.00  0.00    -0.118 NA 
HETATM    3  C   UNL     1      -5.338  13.332  71.014  1.00  0.00    -0.181 C  
ENDROOT
BRANCH   2   4
HETATM    4  C   UNL     1      -7.142  14.575  69.922  1.00  0.00    -0.012 C  
BRANCH   4   5
HETATM    5  C   UNL     1      -7.513  15.556  68.801  1.00  0.00    -0.141 C  
BRANCH   5   6
HETATM    6  O   UNL     1      -8.808  15.246  68.261  1.00  0.00    -0.164 OA 
BRANCH   6   7
HETATM    7  C   UNL     1      -8.957  15.724  66.898  1.00  0.00    -0.240 C  
BRANCH   7   8
HETATM    8  C   UNL     1      -9.949  14.833  66.154  1.00  0.00    -0.324 A  
HETATM    9  C   UNL     1     -10.949  15.423  65.360  1.00  0.00    -0.376 A  
HETATM   10  C   UNL     1      -9.773  13.439  66.095  1.00  0.00    -0.260 A  
HETATM   11 CL   UNL     1     -12.365  12.329  63.266  1.00  0.00    -0.598 Cl 
HETATM   12  C   UNL     1     -11.706  14.646  64.480  1.00  0.00    -0.410 A  
HETATM   13  C   UNL     1     -10.540  12.663  65.225  1.00  0.00    -0.317 A  
HETATM   14  C   UNL     1     -11.488  13.273  64.407  1.00  0.00    -0.379 A  
ENDBRANCH   7   8
BRANCH   7  15
HETATM   15  C   UNL     1      -9.335  17.207  66.868  1.00  0.00    -0.249 A  
HETATM   16  C   UNL     1     -10.709  18.909  67.648  1.00  0.00    -0.394 A  
HETATM   17  C   UNL     1      -8.963  19.471  66.139  1.00  0.00    -0.342 A  
HETATM   18  C   UNL     1      -8.610  18.123  66.102  1.00  0.00    -0.125 A  
HETATM   19  N   UNL     1     -10.386  17.595  67.642  1.00  0.00    -0.354 NA 
HETATM   20  C   UNL     1     -10.030  19.875  66.927  1.00  0.00    -0.563 A  
ENDBRANCH   7  15
ENDBRANCH   6   7
ENDBRANCH   5   6
ENDBRANCH   4   5
ENDBRANCH   2   4
TORSDOF 6
ENDMDL
MODEL      114
REMARK 921   NORMALIZED FREE ENERGY PREDICTED BY IDOCK:   -4.07 KCAL/MOL
REMARK 922        TOTAL FREE ENERGY PREDICTED BY IDOCK:   -6.15 KCAL/MOL
REMARK 923 INTER-LIGAND FREE ENERGY PREDICTED BY IDOCK:   -5.44 KCAL/MOL
REMARK 924 INTRA-LIGAND FREE ENERGY PREDICTED BY IDOCK:   -0.70 KCAL/MOL
REMARK 927      BINDING AFFINITY PREDICTED BY RF-SCORE:    0.00 PKD
ROOT
HETATM    1  C   UNL     1     -11.885  13.266  67.737  1.00  0.00    -0.353 C  
HETATM    2  N   UNL     1     -11.985  12.166  66.773  1.00  0.00    -0.615 NA 
HETATM    3  C   UNL     1     -12.114  12.715  65.419  1.00  0.00    -0.462 C  
ENDROOT
BRANCH   2   4
HETATM    4  C   UNL     1     -10.817  11.271  66.913  1.00  0.00    -0.282 C  
BRANCH   4   5
HETATM    5  C   UNL     1     -10.346  11.092  68.362  1.00  0.00    -0.183 C  
BRANCH   5   6
HETATM    6  O   UNL     1      -9.649   9.846  68.521  1.00  0.00    -0.149 OA 
BRANCH   6   7
HETATM    7  C   UNL     1     -10.563   8.732  68.703  1.00  0.00    -0.139 C  
BRANCH   7   8
HETATM    8  C   UNL     1     -10.096   7.550  67.854  1.00  0.00    -0.226 A  
HETATM    9  C   UNL     1     -10.994   6.506  67.569  1.00  0.00    -0.444 A  
HETATM   10  C   UNL     1      -8.852   7.571  67.199  1.00  0.00    -0.127 A  
HETATM   11 CL   UNL     1      -9.111   4.474  64.690  1.00  0.00    -0.152 Cl 
HETATM   12  C   UNL     1     -10.682   5.547  66.603  1.00  0.00    -0.332 A  
HETATM   13  C   UNL     1      -8.537   6.603  66.245  1.00  0.00    -0.139 A  
HETATM   14  C   UNL     1      -9.461   5.608  65.936  1.00  0.00    -0.067 A  
ENDBRANCH   7   8
BRANCH   7  15
HETATM   15  C   UNL     1     -10.728   8.385  70.184  1.00  0.00    -0.236 A  
HETATM   16  C   UNL     1      -9.867   7.347  72.075  1.00  0.00    -0.162 A  
HETATM   17  C   UNL     1     -11.908   8.545  72.276  1.00  0.00    -0.453 A  
HETATM   18  C   UNL     1     -11.822   8.849  70.919  1.00  0.00    -0.283 A  
HETATM   19  N   UNL     1      -9.748   7.632  70.758  1.00  0.00    -0.174 NA 
HETATM   20  C   UNL     1     -10.914   7.782  72.869  1.00  0.00    -0.467 A  
ENDBRANCH   7  15
ENDBRANCH   6   7
ENDBRANCH   5   6
ENDBRANCH   4   5
ENDBRANCH   2   4
TORSDOF 6
ENDMDL
MODEL      115
REMARK 921   NORMALIZED FREE ENERGY PREDICTED BY IDOCK:   -4.04 KCAL/MOL
REMARK 922        TOTAL FREE ENERGY PREDICTED BY IDOCK:   -6.11 KCAL/MOL
REMARK 923 INTER-LIGAND FREE ENERGY PREDICTED BY IDOCK:   -5.51 KCAL/MOL
REMARK 924 INTRA-LIGAND FREE ENERGY PREDICTED BY IDOCK:   -0.60 KCAL/MOL
REMARK 927      BINDING AFFINITY PREDICTED BY RF-SCORE:    0.00 PKD
ROOT
HETATM    1  C   UNL     1     -11.494  12.205  66.651  1.00  0.00    -0.365 C  
HETATM    2  N   UNL     1     -11.745  13.644  66.781  1.00  0.00    -0.370 NA 
HETATM    3  C   UNL     1     -12.745  14.055  65.790  1.00  0.00    -0.450 C  
ENDROOT
BRANCH   2   4
HETATM    4  C   UNL     1     -12.158  13.956  68.165  1.00  0.00    -0.282 C  
BRANCH   4   5
HETATM    5  C   UNL     1     -11.571  15.268  68.704  1.00  0.00    -0.354 C  
BRANCH   5   6
HETATM    6  O   UNL     1     -10.751  15.905  67.711  1.00  0.00    -0.304 OA 
BRANCH   6   7
HETATM    7  C   UNL     1      -9.592  16.552  68.298  1.00  0.00    -0.223 C  
BRANCH   7   8
HETATM    8  C   UNL     1      -8.413  15.580  68.294  1.00  0.00    -0.156 A  
HETATM    9  C   UNL     1      -7.467  15.636  69.334  1.00  0.00    -0.221 A  
HETATM   10  C   UNL     1      -8.352  14.514  67.380  1.00  0.00    -0.217 A  
HETATM   11 CL   UNL     1      -5.408  12.247  68.846  1.00  0.00    -0.054 Cl 
HETATM   12  C   UNL     1      -6.529  14.614  69.494  1.00  0.00    -0.138 A  
HETATM   13  C   UNL     1      -7.405  13.501  67.534  1.00  0.00    -0.174 A  
HETATM   14  C   UNL     1      -6.511  13.545  68.602  1.00  0.00    -0.094 A  
ENDBRANCH   7   8
BRANCH   7  15
HETATM   15  C   UNL     1      -9.284  17.879  67.601  1.00  0.00    -0.258 A  
HETATM   16  C   UNL     1      -7.856  19.111  66.245  1.00  0.00    -0.293 A  
HETATM   17  C   UNL     1      -9.873  20.129  66.978  1.00  0.00    -0.595 A  
HETATM   18  C   UNL     1     -10.174  18.955  67.665  1.00  0.00    -0.459 A  
HETATM   19  N   UNL     1      -8.122  17.953  66.893  1.00  0.00    -0.221 NA 
HETATM   20  C   UNL     1      -8.694  20.212  66.252  1.00  0.00    -0.283 A  
ENDBRANCH   7  15
ENDBRANCH   6   7
ENDBRANCH   5   6
ENDBRANCH   4   5
ENDBRANCH   2   4
TORSDOF 6
ENDMDL
MODEL      116
REMARK 921   NORMALIZED FREE ENERGY PREDICTED BY IDOCK:   -4.03 KCAL/MOL
REMARK 922        TOTAL FREE ENERGY PREDICTED BY IDOCK:   -6.09 KCAL/MOL
REMARK 923 INTER-LIGAND FREE ENERGY PREDICTED BY IDOCK:   -5.38 KCAL/MOL
REMARK 924 INTRA-LIGAND FREE ENERGY PREDICTED BY IDOCK:   -0.71 KCAL/MOL
REMARK 927      BINDING AFFINITY PREDICTED BY RF-SCORE:    0.00 PKD
ROOT
HETATM    1  C   UNL     1     -11.878  13.518  67.575  1.00  0.00    -0.368 C  
HETATM    2  N   UNL     1     -12.092  12.460  66.582  1.00  0.00    -0.584 NA 
HETATM    3  C   UNL     1     -12.331  13.067  65.268  1.00  0.00    -0.486 C  
ENDROOT
BRANCH   2   4
HETATM    4  C   UNL     1     -10.938  11.537  66.578  1.00  0.00    -0.293 C  
BRANCH   4   5
HETATM    5  C   UNL     1     -10.180  11.491  67.912  1.00  0.00    -0.184 C  
BRANCH   5   6
HETATM    6  O   UNL     1      -9.592  10.197  68.119  1.00  0.00    -0.138 OA 
BRANCH   6   7
HETATM    7  C   UNL     1     -10.597   9.170  68.330  1.00  0.00    -0.172 C  
BRANCH   7   8
HETATM    8  C   UNL     1     -10.224   7.923  67.530  1.00  0.00    -0.308 A  
HETATM    9  C   UNL     1      -8.931   7.811  66.987  1.00  0.00    -0.145 A  
HETATM   10  C   UNL     1     -11.078   6.808  67.482  1.00  0.00    -0.340 A  
HETATM   11 CL   UNL     1      -8.751   3.969  65.906  1.00  0.00    -0.114 Cl 
HETATM   12  C   UNL     1      -8.483   6.593  66.471  1.00  0.00    -0.121 A  
HETATM   13  C   UNL     1     -10.632   5.596  66.953  1.00  0.00    -0.367 A  
HETATM   14  C   UNL     1      -9.330   5.489  66.469  1.00  0.00    -0.147 A  
ENDBRANCH   7   8
BRANCH   7  15
HETATM   15  C   UNL     1     -10.803   8.894  69.821  1.00  0.00    -0.200 A  
HETATM   16  C   UNL     1     -12.017   9.314  71.756  1.00  0.00    -0.385 A  
HETATM   17  C   UNL     1     -10.269   7.709  71.848  1.00  0.00    -0.234 A  
HETATM   18  C   UNL     1     -10.016   7.960  70.500  1.00  0.00    -0.191 A  
HETATM   19  N   UNL     1     -11.804   9.575  70.445  1.00  0.00    -0.183 NA 
HETATM   20  C   UNL     1     -11.289   8.395  72.490  1.00  0.00    -0.416 A  
ENDBRANCH   7  15
ENDBRANCH   6   7
ENDBRANCH   5   6
ENDBRANCH   4   5
ENDBRANCH   2   4
TORSDOF 6
ENDMDL
MODEL      117
REMARK 921   NORMALIZED FREE ENERGY PREDICTED BY IDOCK:   -4.02 KCAL/MOL
REMARK 922        TOTAL FREE ENERGY PREDICTED BY IDOCK:   -6.08 KCAL/MOL
REMARK 923 INTER-LIGAND FREE ENERGY PREDICTED BY IDOCK:   -5.27 KCAL/MOL
REMARK 924 INTRA-LIGAND FREE ENERGY PREDICTED BY IDOCK:   -0.81 KCAL/MOL
REMARK 927      BINDING AFFINITY PREDICTED BY RF-SCORE:    0.00 PKD
ROOT
HETATM    1  C   UNL     1     -10.407  17.133  69.021  1.00  0.00    -0.331 C  
HETATM    2  N   UNL     1      -9.182  17.308  68.235  1.00  0.00    -0.257 NA 
HETATM    3  C   UNL     1      -8.800  18.724  68.237  1.00  0.00    -0.333 C  
ENDROOT
BRANCH   2   4
HETATM    4  C   UNL     1      -8.118  16.433  68.768  1.00  0.00    -0.234 C  
BRANCH   4   5
HETATM    5  C   UNL     1      -8.638  15.114  69.356  1.00  0.00    -0.172 C  
BRANCH   5   6
HETATM    6  O   UNL     1      -8.771  14.116  68.332  1.00  0.00    -0.171 OA 
BRANCH   6   7
HETATM    7  C   UNL     1     -10.093  13.517  68.324  1.00  0.00    -0.247 C  
BRANCH   7   8
HETATM    8  C   UNL     1     -10.685  13.613  66.919  1.00  0.00    -0.275 A  
HETATM    9  C   UNL     1      -9.942  13.140  65.822  1.00  0.00    -0.260 A  
HETATM   10  C   UNL     1     -12.024  13.990  66.718  1.00  0.00    -0.473 A  
HETATM   11 CL   UNL     1     -12.648  13.060  62.884  1.00  0.00     0.107 Cl 
HETATM   12  C   UNL     1     -10.545  12.985  64.572  1.00  0.00    -0.413 A  
HETATM   13  C   UNL     1     -12.620  13.848  65.464  1.00  0.00    -0.560 A  
HETATM   14  C   UNL     1     -11.884  13.326  64.403  1.00  0.00    -0.399 A  
ENDBRANCH   7   8
BRANCH   7  15
HETATM   15  C   UNL     1     -10.058  12.088  68.870  1.00  0.00    -0.015 A  
HETATM   16  C   UNL     1      -8.831  10.157  69.267  1.00  0.00    -0.183 A  
HETATM   17  C   UNL     1     -11.086  10.230  70.006  1.00  0.00    -0.373 A  
HETATM   18  C   UNL     1     -11.177  11.520  69.484  1.00  0.00    -0.305 A  
HETATM   19  N   UNL     1      -8.882  11.409  68.758  1.00  0.00    -0.119 NA 
HETATM   20  C   UNL     1      -9.892   9.534  69.899  1.00  0.00    -0.254 A  
ENDBRANCH   7  15
ENDBRANCH   6   7
ENDBRANCH   5   6
ENDBRANCH   4   5
ENDBRANCH   2   4
TORSDOF 6
ENDMDL
MODEL      118
REMARK 921   NORMALIZED FREE ENERGY PREDICTED BY IDOCK:   -4.02 KCAL/MOL
REMARK 922        TOTAL FREE ENERGY PREDICTED BY IDOCK:   -6.07 KCAL/MOL
REMARK 923 INTER-LIGAND FREE ENERGY PREDICTED BY IDOCK:   -5.33 KCAL/MOL
REMARK 924 INTRA-LIGAND FREE ENERGY PREDICTED BY IDOCK:   -0.75 KCAL/MOL
REMARK 927      BINDING AFFINITY PREDICTED BY RF-SCORE:    0.00 PKD
ROOT
HETATM    1  C   UNL     1     -12.155   6.558  71.890  1.00  0.00    -0.339 C  
HETATM    2  N   UNL     1     -11.387   7.326  70.905  1.00  0.00    -0.272 NA 
HETATM    3  C   UNL     1     -11.315   6.572  69.649  1.00  0.00    -0.380 C  
ENDROOT
BRANCH   2   4
HETATM    4  C   UNL     1     -11.994   8.662  70.729  1.00  0.00    -0.121 C  
BRANCH   4   5
HETATM    5  C   UNL     1     -10.976   9.810  70.748  1.00  0.00    -0.336 C  
BRANCH   5   6
HETATM    6  O   UNL     1     -11.113  10.631  69.577  1.00  0.00    -0.235 OA 
BRANCH   6   7
HETATM    7  C   UNL     1     -10.503  10.020  68.410  1.00  0.00    -0.205 C  
BRANCH   7   8
HETATM    8  C   UNL     1     -10.712  10.924  67.196  1.00  0.00    -0.320 A  
HETATM    9  C   UNL     1     -10.246  10.508  65.935  1.00  0.00    -0.311 A  
HETATM   10  C   UNL     1     -11.519  12.072  67.275  1.00  0.00    -0.403 A  
HETATM   11 CL   UNL     1     -12.011  13.082  63.442  1.00  0.00    -0.616 Cl 
HETATM   12  C   UNL     1     -10.635  11.185  64.778  1.00  0.00    -0.371 A  
HETATM   13  C   UNL     1     -11.894  12.756  66.118  1.00  0.00    -0.484 A  
HETATM   14  C   UNL     1     -11.468  12.296  64.873  1.00  0.00    -0.332 A  
ENDBRANCH   7   8
BRANCH   7  15
HETATM   15  C   UNL     1      -9.033   9.680  68.666  1.00  0.00    -0.129 A  
HETATM   16  C   UNL     1      -7.356   8.073  68.696  1.00  0.00    -0.089 A  
HETATM   17  C   UNL     1      -6.774  10.320  69.199  1.00  0.00    -0.058 A  
HETATM   18  C   UNL     1      -8.112  10.669  69.019  1.00  0.00    -0.148 A  
HETATM   19  N   UNL     1      -8.660   8.379  68.504  1.00  0.00    -0.135 NA 
HETATM   20  C   UNL     1      -6.385   9.000  69.033  1.00  0.00    -0.043 A  
ENDBRANCH   7  15
ENDBRANCH   6   7
ENDBRANCH   5   6
ENDBRANCH   4   5
ENDBRANCH   2   4
TORSDOF 6
ENDMDL
MODEL      119
REMARK 921   NORMALIZED FREE ENERGY PREDICTED BY IDOCK:   -4.02 KCAL/MOL
REMARK 922        TOTAL FREE ENERGY PREDICTED BY IDOCK:   -6.07 KCAL/MOL
REMARK 923 INTER-LIGAND FREE ENERGY PREDICTED BY IDOCK:   -6.10 KCAL/MOL
REMARK 924 INTRA-LIGAND FREE ENERGY PREDICTED BY IDOCK:    0.03 KCAL/MOL
REMARK 927      BINDING AFFINITY PREDICTED BY RF-SCORE:    0.00 PKD
ROOT
HETATM    1  C   UNL     1     -14.305  15.144  72.140  1.00  0.00    -0.552 C  
HETATM    2  N   UNL     1     -13.018  15.761  71.803  1.00  0.00    -0.459 NA 
HETATM    3  C   UNL     1     -11.990  15.279  72.732  1.00  0.00    -0.416 C  
ENDROOT
BRANCH   2   4
HETATM    4  C   UNL     1     -12.683  15.479  70.392  1.00  0.00    -0.338 C  
BRANCH   4   5
HETATM    5  C   UNL     1     -11.666  14.343  70.214  1.00  0.00    -0.288 C  
BRANCH   5   6
HETATM    6  O   UNL     1     -11.791  13.747  68.912  1.00  0.00    -0.320 OA 
BRANCH   6   7
HETATM    7  C   UNL     1     -11.360  14.649  67.859  1.00  0.00    -0.315 C  
BRANCH   7   8
HETATM    8  C   UNL     1      -9.863  14.921  68.005  1.00  0.00    -0.216 A  
HETATM    9  C   UNL     1      -8.972  14.426  67.035  1.00  0.00    -0.257 A  
HETATM   10  C   UNL     1      -9.377  15.807  68.982  1.00  0.00    -0.244 A  
HETATM   11 CL   UNL     1      -5.582  16.368  67.869  1.00  0.00    -0.121 Cl 
HETATM   12  C   UNL     1      -7.646  14.862  67.004  1.00  0.00    -0.027 A  
HETATM   13  C   UNL     1      -8.048  16.229  68.957  1.00  0.00    -0.236 A  
HETATM   14  C   UNL     1      -7.194  15.771  67.956  1.00  0.00    -0.130 A  
ENDBRANCH   7   8
BRANCH   7  15
HETATM   15  C   UNL     1     -11.746  14.114  66.478  1.00  0.00    -0.397 A  
HETATM   16  C   UNL     1     -12.238  14.566  64.254  1.00  0.00    -0.415 A  
HETATM   17  C   UNL     1     -12.184  12.298  64.958  1.00  0.00    -0.374 A  
HETATM   18  C   UNL     1     -11.873  12.743  66.242  1.00  0.00    -0.485 A  
HETATM   19  N   UNL     1     -11.929  15.030  65.487  1.00  0.00    -0.091 NA 
HETATM   20  C   UNL     1     -12.368  13.224  63.942  1.00  0.00    -0.422 A  
ENDBRANCH   7  15
ENDBRANCH   6   7
ENDBRANCH   5   6
ENDBRANCH   4   5
ENDBRANCH   2   4
TORSDOF 6
ENDMDL
MODEL      120
REMARK 921   NORMALIZED FREE ENERGY PREDICTED BY IDOCK:   -4.00 KCAL/MOL
REMARK 922        TOTAL FREE ENERGY PREDICTED BY IDOCK:   -6.05 KCAL/MOL
REMARK 923 INTER-LIGAND FREE ENERGY PREDICTED BY IDOCK:   -5.31 KCAL/MOL
REMARK 924 INTRA-LIGAND FREE ENERGY PREDICTED BY IDOCK:   -0.74 KCAL/MOL
REMARK 927      BINDING AFFINITY PREDICTED BY RF-SCORE:    0.00 PKD
ROOT
HETATM    1  C   UNL     1      -8.410   6.107  65.113  1.00  0.00    -0.129 C  
HETATM    2  N   UNL     1      -7.811   7.350  65.610  1.00  0.00    -0.104 NA 
HETATM    3  C   UNL     1      -8.184   8.457  64.724  1.00  0.00    -0.160 C  
ENDROOT
BRANCH   2   4
HETATM    4  C   UNL     1      -8.227   7.580  67.009  1.00  0.00    -0.124 C  
BRANCH   4   5
HETATM    5  C   UNL     1      -9.454   6.761  67.432  1.00  0.00    -0.134 C  
BRANCH   5   6
HETATM    6  O   UNL     1     -10.575   7.621  67.696  1.00  0.00    -0.241 OA 
BRANCH   6   7
HETATM    7  C   UNL     1     -10.231   8.697  68.608  1.00  0.00    -0.194 C  
BRANCH   7   8
HETATM    8  C   UNL     1     -10.906   9.987  68.147  1.00  0.00    -0.303 A  
HETATM    9  C   UNL     1     -11.490  10.841  69.101  1.00  0.00    -0.368 A  
HETATM   10  C   UNL     1     -10.795  10.432  66.818  1.00  0.00    -0.186 A  
HETATM   11 CL   UNL     1     -12.153  14.183  67.014  1.00  0.00    -0.470 Cl 
HETATM   12  C   UNL     1     -11.889  12.132  68.746  1.00  0.00    -0.356 A  
HETATM   13  C   UNL     1     -11.209  11.716  66.463  1.00  0.00    -0.356 A  
HETATM   14  C   UNL     1     -11.734  12.567  67.433  1.00  0.00    -0.366 A  
ENDBRANCH   7   8
BRANCH   7  15
HETATM   15  C   UNL     1     -10.560   8.324  70.056  1.00  0.00    -0.235 A  
HETATM   16  C   UNL     1     -11.920   7.155  71.531  1.00  0.00    -0.326 A  
HETATM   17  C   UNL     1     -10.081   8.371  72.415  1.00  0.00    -0.386 A  
HETATM   18  C   UNL     1      -9.769   8.771  71.117  1.00  0.00    -0.315 A  
HETATM   19  N   UNL     1     -11.639   7.517  70.258  1.00  0.00    -0.158 NA 
HETATM   20  C   UNL     1     -11.175   7.546  72.629  1.00  0.00    -0.399 A  
ENDBRANCH   7  15
ENDBRANCH   6   7
ENDBRANCH   5   6
ENDBRANCH   4   5
ENDBRANCH   2   4
TORSDOF 6
ENDMDL
MODEL      121
REMARK 921   NORMALIZED FREE ENERGY PREDICTED BY IDOCK:   -4.00 KCAL/MOL
REMARK 922        TOTAL FREE ENERGY PREDICTED BY IDOCK:   -6.05 KCAL/MOL
REMARK 923 INTER-LIGAND FREE ENERGY PREDICTED BY IDOCK:   -5.67 KCAL/MOL
REMARK 924 INTRA-LIGAND FREE ENERGY PREDICTED BY IDOCK:   -0.38 KCAL/MOL
REMARK 927      BINDING AFFINITY PREDICTED BY RF-SCORE:    0.00 PKD
ROOT
HETATM    1  C   UNL     1      -7.114   6.179  69.471  1.00  0.00    -0.069 C  
HETATM    2  N   UNL     1      -8.295   6.923  69.918  1.00  0.00    -0.137 NA 
HETATM    3  C   UNL     1      -9.219   6.009  70.596  1.00  0.00    -0.150 C  
ENDROOT
BRANCH   2   4
HETATM    4  C   UNL     1      -7.879   8.050  70.779  1.00  0.00    -0.091 C  
BRANCH   4   5
HETATM    5  C   UNL     1      -8.198   9.430  70.188  1.00  0.00    -0.168 C  
BRANCH   5   6
HETATM    6  O   UNL     1      -9.291   9.347  69.260  1.00  0.00    -0.156 OA 
BRANCH   6   7
HETATM    7  C   UNL     1     -10.191  10.480  69.378  1.00  0.00    -0.221 C  
BRANCH   7   8
HETATM    8  C   UNL     1     -10.659  10.904  67.987  1.00  0.00    -0.239 A  
HETATM    9  C   UNL     1     -11.594  11.946  67.859  1.00  0.00    -0.393 A  
HETATM   10  C   UNL     1     -10.039  10.404  66.828  1.00  0.00    -0.267 A  
HETATM   11 CL   UNL     1     -11.453  12.795  63.957  1.00  0.00    -0.438 Cl 
HETATM   12  C   UNL     1     -11.851  12.519  66.611  1.00  0.00    -0.422 A  
HETATM   13  C   UNL     1     -10.309  10.968  65.580  1.00  0.00    -0.311 A  
HETATM   14  C   UNL     1     -11.197  12.037  65.481  1.00  0.00    -0.321 A  
ENDBRANCH   7   8
BRANCH   7  15
HETATM   15  C   UNL     1     -11.344  10.174  70.337  1.00  0.00    -0.326 A  
HETATM   16  C   UNL     1     -13.131  10.969  71.589  1.00  0.00    -0.438 A  
HETATM   17  C   UNL     1     -12.722   8.629  71.567  1.00  0.00    -0.351 A  
HETATM   18  C   UNL     1     -11.635   8.865  70.726  1.00  0.00    -0.301 A  
HETATM   19  N   UNL     1     -12.089  11.231  70.767  1.00  0.00    -0.364 NA 
HETATM   20  C   UNL     1     -13.488   9.698  72.006  1.00  0.00    -0.514 A  
ENDBRANCH   7  15
ENDBRANCH   6   7
ENDBRANCH   5   6
ENDBRANCH   4   5
ENDBRANCH   2   4
TORSDOF 6
ENDMDL
MODEL      122
REMARK 921   NORMALIZED FREE ENERGY PREDICTED BY IDOCK:   -3.96 KCAL/MOL
REMARK 922        TOTAL FREE ENERGY PREDICTED BY IDOCK:   -6.00 KCAL/MOL
REMARK 923 INTER-LIGAND FREE ENERGY PREDICTED BY IDOCK:   -5.48 KCAL/MOL
REMARK 924 INTRA-LIGAND FREE ENERGY PREDICTED BY IDOCK:   -0.53 KCAL/MOL
REMARK 927      BINDING AFFINITY PREDICTED BY RF-SCORE:    0.00 PKD
ROOT
HETATM    1  C   UNL     1     -11.435   5.572  72.460  1.00  0.00    -0.244 C  
HETATM    2  N   UNL     1     -11.407   7.013  72.728  1.00  0.00    -0.250 NA 
HETATM    3  C   UNL     1     -10.198   7.343  73.489  1.00  0.00    -0.349 C  
ENDROOT
BRANCH   2   4
HETATM    4  C   UNL     1     -11.497   7.759  71.456  1.00  0.00    -0.264 C  
BRANCH   4   5
HETATM    5  C   UNL     1     -11.700   9.270  71.638  1.00  0.00    -0.392 C  
BRANCH   5   6
HETATM    6  O   UNL     1     -10.773  10.010  70.828  1.00  0.00    -0.303 OA 
BRANCH   6   7
HETATM    7  C   UNL     1     -11.220  10.118  69.451  1.00  0.00    -0.215 C  
BRANCH   7   8
HETATM    8  C   UNL     1     -11.564  11.574  69.142  1.00  0.00    -0.382 A  
HETATM    9  C   UNL     1     -12.096  12.390  70.157  1.00  0.00    -0.366 A  
HETATM   10  C   UNL     1     -11.190  12.167  67.923  1.00  0.00    -0.329 A  
HETATM   11 CL   UNL     1     -11.811  16.055  68.593  1.00  0.00    -0.296 Cl 
HETATM   12  C   UNL     1     -12.187  13.772  69.980  1.00  0.00    -0.407 A  
HETATM   13  C   UNL     1     -11.296  13.546  67.744  1.00  0.00    -0.327 A  
HETATM   14  C   UNL     1     -11.773  14.345  68.781  1.00  0.00    -0.337 A  
ENDBRANCH   7   8
BRANCH   7  15
HETATM   15  C   UNL     1     -10.194   9.520  68.486  1.00  0.00    -0.199 A  
HETATM   16  C   UNL     1      -9.780   8.332  66.534  1.00  0.00    -0.253 A  
HETATM   17  C   UNL     1      -7.925   9.171  67.758  1.00  0.00    -0.101 A  
HETATM   18  C   UNL     1      -8.822   9.696  68.687  1.00  0.00    -0.128 A  
HETATM   19  N   UNL     1     -10.678   8.837  67.412  1.00  0.00    -0.223 NA 
HETATM   20  C   UNL     1      -8.409   8.478  66.659  1.00  0.00    -0.112 A  
ENDBRANCH   7  15
ENDBRANCH   6   7
ENDBRANCH   5   6
ENDBRANCH   4   5
ENDBRANCH   2   4
TORSDOF 6
ENDMDL
MODEL      123
REMARK 921   NORMALIZED FREE ENERGY PREDICTED BY IDOCK:   -3.93 KCAL/MOL
REMARK 922        TOTAL FREE ENERGY PREDICTED BY IDOCK:   -5.96 KCAL/MOL
REMARK 923 INTER-LIGAND FREE ENERGY PREDICTED BY IDOCK:   -5.35 KCAL/MOL
REMARK 924 INTRA-LIGAND FREE ENERGY PREDICTED BY IDOCK:   -0.61 KCAL/MOL
REMARK 927      BINDING AFFINITY PREDICTED BY RF-SCORE:    0.00 PKD
ROOT
HETATM    1  C   UNL     1     -10.152   8.318  72.549  1.00  0.00    -0.306 C  
HETATM    2  N   UNL     1     -10.479   8.317  71.120  1.00  0.00    -0.205 NA 
HETATM    3  C   UNL     1     -11.792   7.694  70.922  1.00  0.00    -0.250 C  
ENDROOT
BRANCH   2   4
HETATM    4  C   UNL     1     -10.421   9.696  70.593  1.00  0.00    -0.312 C  
BRANCH   4   5
HETATM    5  C   UNL     1     -10.961   9.834  69.163  1.00  0.00    -0.175 C  
BRANCH   5   6
HETATM    6  O   UNL     1     -10.013  10.513  68.324  1.00  0.00    -0.153 OA 
BRANCH   6   7
HETATM    7  C   UNL     1     -10.590  10.887  67.045  1.00  0.00    -0.257 C  
BRANCH   7   8
HETATM    8  C   UNL     1     -10.634  12.410  66.935  1.00  0.00    -0.251 A  
HETATM    9  C   UNL     1      -9.430  13.135  66.884  1.00  0.00    -0.244 A  
HETATM   10  C   UNL     1     -11.843  13.087  66.697  1.00  0.00    -0.455 A  
HETATM   11 CL   UNL     1     -10.631  16.776  65.759  1.00  0.00    -0.315 Cl 
HETATM   12  C   UNL     1      -9.432  14.488  66.536  1.00  0.00    -0.310 A  
HETATM   13  C   UNL     1     -11.843  14.442  66.364  1.00  0.00    -0.402 A  
HETATM   14  C   UNL     1     -10.636  15.131  66.265  1.00  0.00    -0.310 A  
ENDBRANCH   7   8
BRANCH   7  15
HETATM   15  C   UNL     1      -9.850  10.217  65.885  1.00  0.00    -0.237 A  
HETATM   16  C   UNL     1      -8.440   8.519  65.163  1.00  0.00    -0.175 A  
HETATM   17  C   UNL     1      -9.334  10.008  63.543  1.00  0.00    -0.301 A  
HETATM   18  C   UNL     1      -9.992  10.676  64.574  1.00  0.00    -0.410 A  
HETATM   19  N   UNL     1      -9.073   9.139  66.185  1.00  0.00    -0.173 NA 
HETATM   20  C   UNL     1      -8.544   8.908  63.839  1.00  0.00    -0.110 A  
ENDBRANCH   7  15
ENDBRANCH   6   7
ENDBRANCH   5   6
ENDBRANCH   4   5
ENDBRANCH   2   4
TORSDOF 6
ENDMDL
MODEL      124
REMARK 921   NORMALIZED FREE ENERGY PREDICTED BY IDOCK:   -3.92 KCAL/MOL
REMARK 922        TOTAL FREE ENERGY PREDICTED BY IDOCK:   -5.94 KCAL/MOL
REMARK 923 INTER-LIGAND FREE ENERGY PREDICTED BY IDOCK:   -5.14 KCAL/MOL
REMARK 924 INTRA-LIGAND FREE ENERGY PREDICTED BY IDOCK:   -0.80 KCAL/MOL
REMARK 927      BINDING AFFINITY PREDICTED BY RF-SCORE:    0.00 PKD
ROOT
HETATM    1  C   UNL     1     -11.695   6.652  70.534  1.00  0.00    -0.394 C  
HETATM    2  N   UNL     1     -11.724   7.301  71.848  1.00  0.00    -0.278 NA 
HETATM    3  C   UNL     1     -11.391   6.318  72.884  1.00  0.00    -0.152 C  
ENDROOT
BRANCH   2   4
HETATM    4  C   UNL     1     -10.807   8.460  71.852  1.00  0.00    -0.302 C  
BRANCH   4   5
HETATM    5  C   UNL     1     -11.355   9.683  71.103  1.00  0.00    -0.386 C  
BRANCH   5   6
HETATM    6  O   UNL     1     -10.384  10.187  70.171  1.00  0.00    -0.270 OA 
BRANCH   6   7
HETATM    7  C   UNL     1     -10.776   9.946  68.795  1.00  0.00    -0.220 C  
BRANCH   7   8
HETATM    8  C   UNL     1     -10.670  11.249  68.002  1.00  0.00    -0.245 A  
HETATM    9  C   UNL     1      -9.415  11.865  67.850  1.00  0.00    -0.194 A  
HETATM   10  C   UNL     1     -11.761  11.745  67.268  1.00  0.00    -0.293 A  
HETATM   11 CL   UNL     1     -10.098  14.586  65.006  1.00  0.00    -0.393 Cl 
HETATM   12  C   UNL     1      -9.243  12.906  66.936  1.00  0.00    -0.234 A  
HETATM   13  C   UNL     1     -11.590  12.795  66.366  1.00  0.00    -0.435 A  
HETATM   14  C   UNL     1     -10.328  13.357  66.189  1.00  0.00    -0.295 A  
ENDBRANCH   7   8
BRANCH   7  15
HETATM   15  C   UNL     1      -9.973   8.797  68.181  1.00  0.00    -0.173 A  
HETATM   16  C   UNL     1      -9.854   7.094  66.607  1.00  0.00    -0.169 A  
HETATM   17  C   UNL     1      -7.966   7.481  67.995  1.00  0.00    -0.123 A  
HETATM   18  C   UNL     1      -8.676   8.508  68.613  1.00  0.00    -0.139 A  
HETATM   19  N   UNL     1     -10.568   8.091  67.179  1.00  0.00    -0.329 NA 
HETATM   20  C   UNL     1      -8.562   6.760  66.971  1.00  0.00    -0.114 A  
ENDBRANCH   7  15
ENDBRANCH   6   7
ENDBRANCH   5   6
ENDBRANCH   4   5
ENDBRANCH   2   4
TORSDOF 6
ENDMDL
MODEL      125
REMARK 921   NORMALIZED FREE ENERGY PREDICTED BY IDOCK:   -3.89 KCAL/MOL
REMARK 922        TOTAL FREE ENERGY PREDICTED BY IDOCK:   -5.91 KCAL/MOL
REMARK 923 INTER-LIGAND FREE ENERGY PREDICTED BY IDOCK:   -5.11 KCAL/MOL
REMARK 924 INTRA-LIGAND FREE ENERGY PREDICTED BY IDOCK:   -0.80 KCAL/MOL
REMARK 927      BINDING AFFINITY PREDICTED BY RF-SCORE:    0.00 PKD
ROOT
HETATM    1  C   UNL     1      -8.502   6.002  66.701  1.00  0.00    -0.112 C  
HETATM    2  N   UNL     1      -9.098   5.725  68.011  1.00  0.00    -0.111 NA 
HETATM    3  C   UNL     1      -8.058   5.790  69.043  1.00  0.00    -0.101 C  
ENDROOT
BRANCH   2   4
HETATM    4  C   UNL     1     -10.206   6.669  68.265  1.00  0.00    -0.171 C  
BRANCH   4   5
HETATM    5  C   UNL     1     -11.198   6.186  69.332  1.00  0.00    -0.396 C  
BRANCH   5   6
HETATM    6  O   UNL     1     -11.543   7.254  70.228  1.00  0.00    -0.257 OA 
BRANCH   6   7
HETATM    7  C   UNL     1     -10.393   8.073  70.566  1.00  0.00    -0.202 C  
BRANCH   7   8
HETATM    8  C   UNL     1     -10.760   9.549  70.415  1.00  0.00    -0.341 A  
HETATM    9  C   UNL     1     -10.133  10.319  69.420  1.00  0.00    -0.255 A  
HETATM   10  C   UNL     1     -11.840  10.106  71.122  1.00  0.00    -0.472 A  
HETATM   11 CL   UNL     1     -12.360  13.634  69.323  1.00  0.00    -0.267 Cl 
HETATM   12  C   UNL     1     -10.618  11.588  69.094  1.00  0.00    -0.174 A  
HETATM   13  C   UNL     1     -12.314  11.379  70.805  1.00  0.00    -0.483 A  
HETATM   14  C   UNL     1     -11.714  12.105  69.778  1.00  0.00    -0.310 A  
ENDBRANCH   7   8
BRANCH   7  15
HETATM   15  C   UNL     1      -9.851   7.723  71.954  1.00  0.00    -0.170 A  
HETATM   16  C   UNL     1      -8.173   7.982  73.538  1.00  0.00    -0.214 A  
HETATM   17  C   UNL     1     -10.063   6.660  74.103  1.00  0.00    -0.390 A  
HETATM   18  C   UNL     1     -10.577   6.916  72.833  1.00  0.00    -0.290 A  
HETATM   19  N   UNL     1      -8.647   8.257  72.301  1.00  0.00    -0.178 NA 
HETATM   20  C   UNL     1      -8.840   7.203  74.467  1.00  0.00    -0.215 A  
ENDBRANCH   7  15
ENDBRANCH   6   7
ENDBRANCH   5   6
ENDBRANCH   4   5
ENDBRANCH   2   4
TORSDOF 6
ENDMDL
MODEL      126
REMARK 921   NORMALIZED FREE ENERGY PREDICTED BY IDOCK:   -3.89 KCAL/MOL
REMARK 922        TOTAL FREE ENERGY PREDICTED BY IDOCK:   -5.90 KCAL/MOL
REMARK 923 INTER-LIGAND FREE ENERGY PREDICTED BY IDOCK:   -5.54 KCAL/MOL
REMARK 924 INTRA-LIGAND FREE ENERGY PREDICTED BY IDOCK:   -0.36 KCAL/MOL
REMARK 927      BINDING AFFINITY PREDICTED BY RF-SCORE:    0.00 PKD
ROOT
HETATM    1  C   UNL     1     -11.041   6.106  69.007  1.00  0.00    -0.367 C  
HETATM    2  N   UNL     1     -10.697   5.933  70.422  1.00  0.00    -0.282 NA 
HETATM    3  C   UNL     1      -9.509   5.080  70.533  1.00  0.00    -0.173 C  
ENDROOT
BRANCH   2   4
HETATM    4  C   UNL     1     -10.505   7.255  71.054  1.00  0.00    -0.215 C  
BRANCH   4   5
HETATM    5  C   UNL     1     -11.785   8.099  71.123  1.00  0.00    -0.283 C  
BRANCH   5   6
HETATM    6  O   UNL     1     -11.471   9.488  71.311  1.00  0.00    -0.318 OA 
BRANCH   6   7
HETATM    7  C   UNL     1     -11.644  10.255  70.091  1.00  0.00    -0.299 C  
BRANCH   7   8
HETATM    8  C   UNL     1     -12.044  11.686  70.445  1.00  0.00    -0.462 A  
HETATM    9  C   UNL     1     -12.978  11.910  71.473  1.00  0.00    -0.427 A  
HETATM   10  C   UNL     1     -11.366  12.788  69.895  1.00  0.00    -0.032 A  
HETATM   11 CL   UNL     1     -12.649  15.836  72.136  1.00  0.00    -0.490 Cl 
HETATM   12  C   UNL     1     -13.176  13.195  71.984  1.00  0.00    -0.543 A  
HETATM   13  C   UNL     1     -11.576  14.073  70.397  1.00  0.00    -0.206 A  
HETATM   14  C   UNL     1     -12.464  14.267  71.453  1.00  0.00    -0.360 A  
ENDBRANCH   7   8
BRANCH   7  15
HETATM   15  C   UNL     1     -10.400  10.176  69.204  1.00  0.00    -0.219 A  
HETATM   16  C   UNL     1      -8.097   9.916  69.055  1.00  0.00    -0.111 A  
HETATM   17  C   UNL     1      -9.343  10.111  67.042  1.00  0.00    -0.178 A  
HETATM   18  C   UNL     1     -10.499  10.231  67.812  1.00  0.00    -0.269 A  
HETATM   19  N   UNL     1      -9.201  10.020  69.831  1.00  0.00    -0.200 NA 
HETATM   20  C   UNL     1      -8.118   9.948  67.672  1.00  0.00    -0.110 A  
ENDBRANCH   7  15
ENDBRANCH   6   7
ENDBRANCH   5   6
ENDBRANCH   4   5
ENDBRANCH   2   4
TORSDOF 6
ENDMDL
MODEL      127
REMARK 921   NORMALIZED FREE ENERGY PREDICTED BY IDOCK:   -3.88 KCAL/MOL
REMARK 922        TOTAL FREE ENERGY PREDICTED BY IDOCK:   -5.89 KCAL/MOL
REMARK 923 INTER-LIGAND FREE ENERGY PREDICTED BY IDOCK:   -5.14 KCAL/MOL
REMARK 924 INTRA-LIGAND FREE ENERGY PREDICTED BY IDOCK:   -0.75 KCAL/MOL
REMARK 927      BINDING AFFINITY PREDICTED BY RF-SCORE:    0.00 PKD
ROOT
HETATM    1  C   UNL     1      -7.809   6.425  66.870  1.00  0.00    -0.104 C  
HETATM    2  N   UNL     1      -8.064   7.384  67.949  1.00  0.00    -0.118 NA 
HETATM    3  C   UNL     1      -8.101   6.674  69.232  1.00  0.00    -0.116 C  
ENDROOT
BRANCH   2   4
HETATM    4  C   UNL     1      -7.043   8.451  67.921  1.00  0.00    -0.083 C  
BRANCH   4   5
HETATM    5  C   UNL     1      -7.592   9.822  67.504  1.00  0.00    -0.091 C  
BRANCH   5   6
HETATM    6  O   UNL     1      -9.021   9.864  67.649  1.00  0.00    -0.128 OA 
BRANCH   6   7
HETATM    7  C   UNL     1      -9.477  11.143  68.165  1.00  0.00    -0.180 C  
BRANCH   7   8
HETATM    8  C   UNL     1      -9.982  12.004  67.008  1.00  0.00    -0.218 A  
HETATM    9  C   UNL     1     -10.884  11.455  66.079  1.00  0.00    -0.306 A  
HETATM   10  C   UNL     1      -9.713  13.383  66.957  1.00  0.00    -0.239 A  
HETATM   11 CL   UNL     1     -12.179  14.668  64.089  1.00  0.00    -0.450 Cl 
HETATM   12  C   UNL     1     -11.550  12.276  65.166  1.00  0.00    -0.402 A  
HETATM   13  C   UNL     1     -10.369  14.199  66.035  1.00  0.00    -0.316 A  
HETATM   14  C   UNL     1     -11.300  13.646  65.158  1.00  0.00    -0.309 A  
ENDBRANCH   7   8
BRANCH   7  15
HETATM   15  C   UNL     1     -10.511  10.956  69.277  1.00  0.00    -0.202 A  
HETATM   16  C   UNL     1     -11.280   9.686  71.063  1.00  0.00    -0.375 A  
HETATM   17  C   UNL     1     -12.408  11.713  70.552  1.00  0.00    -0.410 A  
HETATM   18  C   UNL     1     -11.514  11.902  69.500  1.00  0.00    -0.357 A  
HETATM   19  N   UNL     1     -10.391   9.845  70.055  1.00  0.00    -0.257 NA 
HETATM   20  C   UNL     1     -12.290  10.586  71.352  1.00  0.00    -0.477 A  
ENDBRANCH   7  15
ENDBRANCH   6   7
ENDBRANCH   5   6
ENDBRANCH   4   5
ENDBRANCH   2   4
TORSDOF 6
ENDMDL
MODEL      128
REMARK 921   NORMALIZED FREE ENERGY PREDICTED BY IDOCK:   -3.87 KCAL/MOL
REMARK 922        TOTAL FREE ENERGY PREDICTED BY IDOCK:   -5.88 KCAL/MOL
REMARK 923 INTER-LIGAND FREE ENERGY PREDICTED BY IDOCK:   -5.08 KCAL/MOL
REMARK 924 INTRA-LIGAND FREE ENERGY PREDICTED BY IDOCK:   -0.80 KCAL/MOL
REMARK 927      BINDING AFFINITY PREDICTED BY RF-SCORE:    0.00 PKD
ROOT
HETATM    1  C   UNL     1     -11.035  16.816  68.486  1.00  0.00    -0.312 C  
HETATM    2  N   UNL     1      -9.990  17.646  67.880  1.00  0.00    -0.307 NA 
HETATM    3  C   UNL     1     -10.331  19.062  68.054  1.00  0.00    -0.394 C  
ENDROOT
BRANCH   2   4
HETATM    4  C   UNL     1      -8.678  17.304  68.466  1.00  0.00    -0.273 C  
BRANCH   4   5
HETATM    5  C   UNL     1      -8.597  15.869  69.005  1.00  0.00    -0.239 C  
BRANCH   5   6
HETATM    6  O   UNL     1      -8.210  14.955  67.965  1.00  0.00    -0.130 OA 
BRANCH   6   7
HETATM    7  C   UNL     1      -8.871  13.669  68.099  1.00  0.00    -0.189 C  
BRANCH   7   8
HETATM    8  C   UNL     1      -9.928  13.526  67.005  1.00  0.00    -0.247 A  
HETATM    9  C   UNL     1      -9.830  14.311  65.842  1.00  0.00    -0.322 A  
HETATM   10  C   UNL     1     -10.889  12.501  67.052  1.00  0.00    -0.287 A  
HETATM   11 CL   UNL     1     -12.468  12.591  63.384  1.00  0.00    -0.577 Cl 
HETATM   12  C   UNL     1     -10.627  14.031  64.729  1.00  0.00    -0.441 A  
HETATM   13  C   UNL     1     -11.694  12.233  65.944  1.00  0.00    -0.451 A  
HETATM   14  C   UNL     1     -11.544  12.985  64.781  1.00  0.00    -0.329 A  
ENDBRANCH   7   8
BRANCH   7  15
HETATM   15  C   UNL     1      -7.857  12.523  68.114  1.00  0.00    -0.151 A  
HETATM   16  C   UNL     1      -5.791  11.707  67.434  1.00  0.00    -0.092 A  
HETATM   17  C   UNL     1      -7.118  10.361  68.872  1.00  0.00    -0.074 A  
HETATM   18  C   UNL     1      -8.089  11.360  68.852  1.00  0.00    -0.067 A  
HETATM   19  N   UNL     1      -6.710  12.701  67.401  1.00  0.00    -0.154 NA 
HETATM   20  C   UNL     1      -5.945  10.535  68.152  1.00  0.00    -0.043 A  
ENDBRANCH   7  15
ENDBRANCH   6   7
ENDBRANCH   5   6
ENDBRANCH   4   5
ENDBRANCH   2   4
TORSDOF 6
ENDMDL
MODEL      129
REMARK 921   NORMALIZED FREE ENERGY PREDICTED BY IDOCK:   -3.83 KCAL/MOL
REMARK 922        TOTAL FREE ENERGY PREDICTED BY IDOCK:   -5.83 KCAL/MOL
REMARK 923 INTER-LIGAND FREE ENERGY PREDICTED BY IDOCK:   -5.45 KCAL/MOL
REMARK 924 INTRA-LIGAND FREE ENERGY PREDICTED BY IDOCK:   -0.38 KCAL/MOL
REMARK 927      BINDING AFFINITY PREDICTED BY RF-SCORE:    0.00 PKD
ROOT
HETATM    1  C   UNL     1      -7.676   5.692  69.408  1.00  0.00    -0.088 C  
HETATM    2  N   UNL     1      -8.873   6.096  70.152  1.00  0.00    -0.143 NA 
HETATM    3  C   UNL     1      -9.713   4.919  70.397  1.00  0.00    -0.214 C  
ENDROOT
BRANCH   2   4
HETATM    4  C   UNL     1      -8.478   6.780  71.401  1.00  0.00    -0.120 C  
BRANCH   4   5
HETATM    5  C   UNL     1      -8.796   8.281  71.410  1.00  0.00    -0.162 C  
BRANCH   5   6
HETATM    6  O   UNL     1      -9.777   8.601  70.410  1.00  0.00    -0.167 OA 
BRANCH   6   7
HETATM    7  C   UNL     1     -10.731   9.588  70.882  1.00  0.00    -0.333 C  
BRANCH   7   8
HETATM    8  C   UNL     1     -10.914  10.666  69.815  1.00  0.00    -0.340 A  
HETATM    9  C   UNL     1     -11.846  11.698  70.026  1.00  0.00    -0.435 A  
HETATM   10  C   UNL     1     -10.045  10.755  68.714  1.00  0.00    -0.202 A  
HETATM   11 CL   UNL     1     -10.928  14.328  67.163  1.00  0.00    -0.296 Cl 
HETATM   12  C   UNL     1     -11.860  12.822  69.197  1.00  0.00    -0.352 A  
HETATM   13  C   UNL     1     -10.071  11.871  67.878  1.00  0.00    -0.199 A  
HETATM   14  C   UNL     1     -10.964  12.909  68.136  1.00  0.00    -0.248 A  
ENDBRANCH   7   8
BRANCH   7  15
HETATM   15  C   UNL     1     -12.045   8.930  71.309  1.00  0.00    -0.306 A  
HETATM   16  C   UNL     1     -13.332   7.002  71.450  1.00  0.00    -0.255 A  
HETATM   17  C   UNL     1     -14.202   9.008  72.376  1.00  0.00    -0.416 A  
HETATM   18  C   UNL     1     -13.040   9.659  71.966  1.00  0.00    -0.537 A  
HETATM   19  N   UNL     1     -12.187   7.601  71.047  1.00  0.00    -0.276 NA 
HETATM   20  C   UNL     1     -14.353   7.654  72.117  1.00  0.00    -0.356 A  
ENDBRANCH   7  15
ENDBRANCH   6   7
ENDBRANCH   5   6
ENDBRANCH   4   5
ENDBRANCH   2   4
TORSDOF 6
ENDMDL
MODEL      130
REMARK 921   NORMALIZED FREE ENERGY PREDICTED BY IDOCK:   -3.83 KCAL/MOL
REMARK 922        TOTAL FREE ENERGY PREDICTED BY IDOCK:   -5.82 KCAL/MOL
REMARK 923 INTER-LIGAND FREE ENERGY PREDICTED BY IDOCK:   -5.04 KCAL/MOL
REMARK 924 INTRA-LIGAND FREE ENERGY PREDICTED BY IDOCK:   -0.78 KCAL/MOL
REMARK 927      BINDING AFFINITY PREDICTED BY RF-SCORE:    0.00 PKD
ROOT
HETATM    1  C   UNL     1     -12.535   6.688  71.667  1.00  0.00    -0.303 C  
HETATM    2  N   UNL     1     -12.634   8.131  71.428  1.00  0.00    -0.305 NA 
HETATM    3  C   UNL     1     -13.975   8.595  71.798  1.00  0.00    -0.434 C  
ENDROOT
BRANCH   2   4
HETATM    4  C   UNL     1     -11.567   8.834  72.171  1.00  0.00    -0.364 C  
BRANCH   4   5
HETATM    5  C   UNL     1     -10.424   9.338  71.281  1.00  0.00    -0.338 C  
BRANCH   5   6
HETATM    6  O   UNL     1     -10.908   9.677  69.971  1.00  0.00    -0.232 OA 
BRANCH   6   7
HETATM    7  C   UNL     1      -9.851  10.183  69.115  1.00  0.00    -0.214 C  
BRANCH   7   8
HETATM    8  C   UNL     1      -9.380   9.071  68.179  1.00  0.00    -0.151 A  
HETATM    9  C   UNL     1     -10.203   7.951  67.966  1.00  0.00    -0.256 A  
HETATM   10  C   UNL     1      -8.230   9.227  67.386  1.00  0.00    -0.117 A  
HETATM   11 CL   UNL     1      -8.493   6.173  64.824  1.00  0.00    -0.064 Cl 
HETATM   12  C   UNL     1      -9.919   7.048  66.940  1.00  0.00    -0.283 A  
HETATM   13  C   UNL     1      -7.941   8.315  66.370  1.00  0.00    -0.096 A  
HETATM   14  C   UNL     1      -8.798   7.242  66.138  1.00  0.00    -0.158 A  
ENDBRANCH   7   8
BRANCH   7  15
HETATM   15  C   UNL     1     -10.294  11.449  68.376  1.00  0.00    -0.195 A  
HETATM   16  C   UNL     1      -9.917  13.691  67.904  1.00  0.00    -0.244 A  
HETATM   17  C   UNL     1     -11.731  12.601  66.826  1.00  0.00    -0.460 A  
HETATM   18  C   UNL     1     -11.391  11.436  67.511  1.00  0.00    -0.362 A  
HETATM   19  N   UNL     1      -9.554  12.575  68.578  1.00  0.00    -0.161 NA 
HETATM   20  C   UNL     1     -10.981  13.751  67.022  1.00  0.00    -0.297 A  
ENDBRANCH   7  15
ENDBRANCH   6   7
ENDBRANCH   5   6
ENDBRANCH   4   5
ENDBRANCH   2   4
TORSDOF 6
ENDMDL
MODEL      131
REMARK 921   NORMALIZED FREE ENERGY PREDICTED BY IDOCK:   -3.81 KCAL/MOL
REMARK 922        TOTAL FREE ENERGY PREDICTED BY IDOCK:   -5.79 KCAL/MOL
REMARK 923 INTER-LIGAND FREE ENERGY PREDICTED BY IDOCK:   -4.98 KCAL/MOL
REMARK 924 INTRA-LIGAND FREE ENERGY PREDICTED BY IDOCK:   -0.81 KCAL/MOL
REMARK 927      BINDING AFFINITY PREDICTED BY RF-SCORE:    0.00 PKD
ROOT
HETATM    1  C   UNL     1     -11.834  12.433  64.365  1.00  0.00    -0.389 C  
HETATM    2  N   UNL     1     -10.787  12.990  65.227  1.00  0.00    -0.285 NA 
HETATM    3  C   UNL     1      -9.586  12.154  65.137  1.00  0.00    -0.032 C  
ENDROOT
BRANCH   2   4
HETATM    4  C   UNL     1     -10.528  14.396  64.854  1.00  0.00    -0.423 C  
BRANCH   4   5
HETATM    5  C   UNL     1     -10.778  15.394  65.993  1.00  0.00    -0.322 C  
BRANCH   5   6
HETATM    6  O   UNL     1     -11.048  14.705  67.224  1.00  0.00    -0.307 OA 
BRANCH   6   7
HETATM    7  C   UNL     1     -10.530  15.423  68.374  1.00  0.00    -0.239 C  
BRANCH   7   8
HETATM    8  C   UNL     1     -11.304  15.006  69.624  1.00  0.00    -0.309 A  
HETATM    9  C   UNL     1     -11.552  15.954  70.633  1.00  0.00    -0.426 A  
HETATM   10  C   UNL     1     -11.931  13.750  69.706  1.00  0.00    -0.406 A  
HETATM   11 CL   UNL     1     -14.275  14.130  72.917  1.00  0.00     0.140 Cl 
HETATM   12  C   UNL     1     -12.458  15.677  71.658  1.00  0.00    -0.503 A  
HETATM   13  C   UNL     1     -12.824  13.470  70.740  1.00  0.00    -0.243 A  
HETATM   14  C   UNL     1     -13.100  14.442  71.699  1.00  0.00    -0.350 A  
ENDBRANCH   7   8
BRANCH   7  15
HETATM   15  C   UNL     1      -9.017  15.238  68.509  1.00  0.00    -0.187 A  
HETATM   16  C   UNL     1      -7.204  13.787  68.563  1.00  0.00    -0.108 A  
HETATM   17  C   UNL     1      -6.785  16.121  68.704  1.00  0.00    -0.128 A  
HETATM   18  C   UNL     1      -8.160  16.335  68.628  1.00  0.00    -0.213 A  
HETATM   19  N   UNL     1      -8.543  13.961  68.478  1.00  0.00    -0.164 NA 
HETATM   20  C   UNL     1      -6.295  14.824  68.669  1.00  0.00    -0.085 A  
ENDBRANCH   7  15
ENDBRANCH   6   7
ENDBRANCH   5   6
ENDBRANCH   4   5
ENDBRANCH   2   4
TORSDOF 6
ENDMDL
MODEL      132
REMARK 921   NORMALIZED FREE ENERGY PREDICTED BY IDOCK:   -3.78 KCAL/MOL
REMARK 922        TOTAL FREE ENERGY PREDICTED BY IDOCK:   -5.75 KCAL/MOL
REMARK 923 INTER-LIGAND FREE ENERGY PREDICTED BY IDOCK:   -5.22 KCAL/MOL
REMARK 924 INTRA-LIGAND FREE ENERGY PREDICTED BY IDOCK:   -0.53 KCAL/MOL
REMARK 927      BINDING AFFINITY PREDICTED BY RF-SCORE:    0.00 PKD
ROOT
HETATM    1  C   UNL     1     -11.016   8.623  72.023  1.00  0.00    -0.362 C  
HETATM    2  N   UNL     1     -10.931   7.638  70.941  1.00  0.00    -0.246 NA 
HETATM    3  C   UNL     1     -12.220   6.952  70.806  1.00  0.00    -0.312 C  
ENDROOT
BRANCH   2   4
HETATM    4  C   UNL     1     -10.510   8.304  69.691  1.00  0.00    -0.221 C  
BRANCH   4   5
HETATM    5  C   UNL     1     -10.870   9.794  69.634  1.00  0.00    -0.250 C  
BRANCH   5   6
HETATM    6  O   UNL     1     -11.070  10.218  68.276  1.00  0.00    -0.261 OA 
BRANCH   6   7
HETATM    7  C   UNL     1     -10.016  11.108  67.823  1.00  0.00    -0.175 C  
BRANCH   7   8
HETATM    8  C   UNL     1      -9.429  10.575  66.517  1.00  0.00    -0.200 A  
HETATM    9  C   UNL     1      -8.935   9.259  66.467  1.00  0.00    -0.178 A  
HETATM   10  C   UNL     1      -9.541  11.302  65.319  1.00  0.00    -0.265 A  
HETATM   11 CL   UNL     1      -8.476   8.630  62.548  1.00  0.00    -0.200 Cl 
HETATM   12  C   UNL     1      -8.625   8.664  65.241  1.00  0.00    -0.206 A  
HETATM   13  C   UNL     1      -9.217  10.711  64.098  1.00  0.00    -0.267 A  
HETATM   14  C   UNL     1      -8.781   9.388  64.062  1.00  0.00    -0.200 A  
ENDBRANCH   7   8
BRANCH   7  15
HETATM   15  C   UNL     1     -10.513  12.551  67.719  1.00  0.00    -0.220 A  
HETATM   16  C   UNL     1     -10.098  14.810  68.062  1.00  0.00    -0.218 A  
HETATM   17  C   UNL     1     -12.145  14.183  67.035  1.00  0.00    -0.449 A  
HETATM   18  C   UNL     1     -11.753  12.851  67.149  1.00  0.00    -0.437 A  
HETATM   19  N   UNL     1      -9.682  13.528  68.179  1.00  0.00    -0.228 NA 
HETATM   20  C   UNL     1     -11.304  15.184  67.497  1.00  0.00    -0.325 A  
ENDBRANCH   7  15
ENDBRANCH   6   7
ENDBRANCH   5   6
ENDBRANCH   4   5
ENDBRANCH   2   4
TORSDOF 6
ENDMDL
MODEL      133
REMARK 921   NORMALIZED FREE ENERGY PREDICTED BY IDOCK:   -3.74 KCAL/MOL
REMARK 922        TOTAL FREE ENERGY PREDICTED BY IDOCK:   -5.71 KCAL/MOL
REMARK 923 INTER-LIGAND FREE ENERGY PREDICTED BY IDOCK:   -5.02 KCAL/MOL
REMARK 924 INTRA-LIGAND FREE ENERGY PREDICTED BY IDOCK:   -0.68 KCAL/MOL
REMARK 927      BINDING AFFINITY PREDICTED BY RF-SCORE:    0.00 PKD
ROOT
HETATM    1  C   UNL     1      -5.339  13.550  70.310  1.00  0.00    -0.112 C  
HETATM    2  N   UNL     1      -5.795  12.715  69.195  1.00  0.00    -0.075 NA 
HETATM    3  C   UNL     1      -5.623  11.301  69.544  1.00  0.00    -0.057 C  
ENDROOT
BRANCH   2   4
HETATM    4  C   UNL     1      -7.194  13.049  68.859  1.00  0.00    -0.047 C  
BRANCH   4   5
HETATM    5  C   UNL     1      -7.578  14.499  69.186  1.00  0.00    -0.102 C  
BRANCH   5   6
HETATM    6  O   UNL     1      -8.686  14.927  68.377  1.00  0.00    -0.159 OA 
BRANCH   6   7
HETATM    7  C   UNL     1      -9.560  15.839  69.092  1.00  0.00    -0.255 C  
BRANCH   7   8
HETATM    8  C   UNL     1     -10.091  16.897  68.126  1.00  0.00    -0.299 A  
HETATM    9  C   UNL     1     -10.139  18.242  68.531  1.00  0.00    -0.419 A  
HETATM   10  C   UNL     1     -10.356  16.585  66.781  1.00  0.00    -0.296 A  
HETATM   11 CL   UNL     1     -10.818  20.181  65.105  1.00  0.00    -0.054 Cl 
HETATM   12  C   UNL     1     -10.380  19.255  67.600  1.00  0.00    -0.532 A  
HETATM   13  C   UNL     1     -10.611  17.597  65.855  1.00  0.00    -0.203 A  
HETATM   14  C   UNL     1     -10.600  18.929  66.265  1.00  0.00    -0.392 A  
ENDBRANCH   7   8
BRANCH   7  15
HETATM   15  C   UNL     1     -10.668  15.082  69.829  1.00  0.00    -0.244 A  
HETATM   16  C   UNL     1     -12.085  14.953  71.664  1.00  0.00    -0.351 A  
HETATM   17  C   UNL     1     -12.282  13.301  69.969  1.00  0.00    -0.345 A  
HETATM   18  C   UNL     1     -11.246  13.933  69.284  1.00  0.00    -0.296 A  
HETATM   19  N   UNL     1     -11.083  15.596  71.020  1.00  0.00    -0.346 NA 
HETATM   20  C   UNL     1     -12.714  13.820  71.181  1.00  0.00    -0.438 A  
ENDBRANCH   7  15
ENDBRANCH   6   7
ENDBRANCH   5   6
ENDBRANCH   4   5
ENDBRANCH   2   4
TORSDOF 6
ENDMDL
MODEL      134
REMARK 921   NORMALIZED FREE ENERGY PREDICTED BY IDOCK:   -3.74 KCAL/MOL
REMARK 922        TOTAL FREE ENERGY PREDICTED BY IDOCK:   -5.71 KCAL/MOL
REMARK 923 INTER-LIGAND FREE ENERGY PREDICTED BY IDOCK:   -4.99 KCAL/MOL
REMARK 924 INTRA-LIGAND FREE ENERGY PREDICTED BY IDOCK:   -0.71 KCAL/MOL
REMARK 927      BINDING AFFINITY PREDICTED BY RF-SCORE:    0.00 PKD
ROOT
HETATM    1  C   UNL     1      -5.666  11.627  69.014  1.00  0.00    -0.051 C  
HETATM    2  N   UNL     1      -6.441  12.870  68.982  1.00  0.00    -0.098 NA 
HETATM    3  C   UNL     1      -5.578  13.992  69.368  1.00  0.00    -0.085 C  
ENDROOT
BRANCH   2   4
HETATM    4  C   UNL     1      -7.040  13.052  67.644  1.00  0.00    -0.156 C  
BRANCH   4   5
HETATM    5  C   UNL     1      -8.567  12.896  67.624  1.00  0.00    -0.182 C  
BRANCH   5   6
HETATM    6  O   UNL     1      -9.193  13.910  68.426  1.00  0.00    -0.200 OA 
BRANCH   6   7
HETATM    7  C   UNL     1     -10.638  13.898  68.287  1.00  0.00    -0.257 C  
BRANCH   7   8
HETATM    8  C   UNL     1     -11.271  14.550  69.515  1.00  0.00    -0.300 A  
HETATM    9  C   UNL     1     -12.596  14.230  69.862  1.00  0.00    -0.214 A  
HETATM   10  C   UNL     1     -10.504  15.316  70.409  1.00  0.00    -0.168 A  
HETATM   11 CL   UNL     1     -12.938  15.733  73.548  1.00  0.00    -0.652 Cl 
HETATM   12  C   UNL     1     -13.116  14.610  71.101  1.00  0.00    -0.428 A  
HETATM   13  C   UNL     1     -11.029  15.707  71.640  1.00  0.00    -0.042 A  
HETATM   14  C   UNL     1     -12.326  15.334  71.990  1.00  0.00    -0.365 A  
ENDBRANCH   7   8
BRANCH   7  15
HETATM   15  C   UNL     1     -11.074  14.540  66.968  1.00  0.00    -0.322 A  
HETATM   16  C   UNL     1     -10.984  16.370  65.540  1.00  0.00    -0.119 A  
HETATM   17  C   UNL     1     -12.202  14.454  64.843  1.00  0.00    -0.440 A  
HETATM   18  C   UNL     1     -11.866  13.845  66.051  1.00  0.00    -0.412 A  
HETATM   19  N   UNL     1     -10.631  15.804  66.718  1.00  0.00    -0.310 NA 
HETATM   20  C   UNL     1     -11.753  15.739  64.578  1.00  0.00    -0.191 A  
ENDBRANCH   7  15
ENDBRANCH   6   7
ENDBRANCH   5   6
ENDBRANCH   4   5
ENDBRANCH   2   4
TORSDOF 6
ENDMDL
MODEL      135
REMARK 921   NORMALIZED FREE ENERGY PREDICTED BY IDOCK:   -3.73 KCAL/MOL
REMARK 922        TOTAL FREE ENERGY PREDICTED BY IDOCK:   -5.69 KCAL/MOL
REMARK 923 INTER-LIGAND FREE ENERGY PREDICTED BY IDOCK:   -5.03 KCAL/MOL
REMARK 924 INTRA-LIGAND FREE ENERGY PREDICTED BY IDOCK:   -0.66 KCAL/MOL
REMARK 927      BINDING AFFINITY PREDICTED BY RF-SCORE:    0.00 PKD
ROOT
HETATM    1  C   UNL     1      -7.204  10.062  69.649  1.00  0.00    -0.119 C  
HETATM    2  N   UNL     1      -8.080   9.181  68.870  1.00  0.00    -0.099 NA 
HETATM    3  C   UNL     1      -9.094   8.597  69.754  1.00  0.00    -0.150 C  
ENDROOT
BRANCH   2   4
HETATM    4  C   UNL     1      -8.674   9.935  67.746  1.00  0.00    -0.129 C  
BRANCH   4   5
HETATM    5  C   UNL     1      -9.407  11.212  68.178  1.00  0.00    -0.176 C  
BRANCH   5   6
HETATM    6  O   UNL     1      -8.940  12.345  67.428  1.00  0.00    -0.171 OA 
BRANCH   6   7
HETATM    7  C   UNL     1      -9.954  13.379  67.319  1.00  0.00    -0.232 C  
BRANCH   7   8
HETATM    8  C   UNL     1      -9.304  14.748  67.515  1.00  0.00    -0.194 A  
HETATM    9  C   UNL     1      -9.143  15.257  68.817  1.00  0.00    -0.200 A  
HETATM   10  C   UNL     1      -8.699  15.427  66.443  1.00  0.00    -0.307 A  
HETATM   11 CL   UNL     1      -6.663  18.340  68.266  1.00  0.00    -0.211 Cl 
HETATM   12  C   UNL     1      -8.340  16.376  69.046  1.00  0.00    -0.225 A  
HETATM   13  C   UNL     1      -7.909  16.553  66.673  1.00  0.00    -0.321 A  
HETATM   14  C   UNL     1      -7.716  17.010  67.975  1.00  0.00    -0.180 A  
ENDBRANCH   7   8
BRANCH   7  15
HETATM   15  C   UNL     1     -10.729  13.260  66.005  1.00  0.00    -0.277 A  
HETATM   16  C   UNL     1     -12.639  13.775  64.788  1.00  0.00    -0.290 A  
HETATM   17  C   UNL     1     -10.908  12.558  63.709  1.00  0.00    -0.489 A  
HETATM   18  C   UNL     1     -10.183  12.604  64.899  1.00  0.00    -0.295 A  
HETATM   19  N   UNL     1     -11.958  13.846  65.955  1.00  0.00    -0.385 NA 
HETATM   20  C   UNL     1     -12.158  13.155  63.648  1.00  0.00    -0.583 A  
ENDBRANCH   7  15
ENDBRANCH   6   7
ENDBRANCH   5   6
ENDBRANCH   4   5
ENDBRANCH   2   4
TORSDOF 6
ENDMDL
MODEL      136
REMARK 921   NORMALIZED FREE ENERGY PREDICTED BY IDOCK:   -3.70 KCAL/MOL
REMARK 922        TOTAL FREE ENERGY PREDICTED BY IDOCK:   -5.65 KCAL/MOL
REMARK 923 INTER-LIGAND FREE ENERGY PREDICTED BY IDOCK:   -4.92 KCAL/MOL
REMARK 924 INTRA-LIGAND FREE ENERGY PREDICTED BY IDOCK:   -0.73 KCAL/MOL
REMARK 927      BINDING AFFINITY PREDICTED BY RF-SCORE:    0.00 PKD
ROOT
HETATM    1  C   UNL     1     -12.738  12.055  63.432  1.00  0.00    -0.398 C  
HETATM    2  N   UNL     1     -11.499  12.345  64.160  1.00  0.00    -0.352 NA 
HETATM    3  C   UNL     1     -11.826  12.921  65.468  1.00  0.00    -0.411 C  
ENDROOT
BRANCH   2   4
HETATM    4  C   UNL     1     -10.685  11.116  64.269  1.00  0.00    -0.333 C  
BRANCH   4   5
HETATM    5  C   UNL     1      -9.609  11.183  65.362  1.00  0.00    -0.229 C  
BRANCH   5   6
HETATM    6  O   UNL     1      -9.970  10.362  66.484  1.00  0.00    -0.200 OA 
BRANCH   6   7
HETATM    7  C   UNL     1      -9.209  10.700  67.673  1.00  0.00    -0.146 C  
BRANCH   7   8
HETATM    8  C   UNL     1      -9.856  11.899  68.365  1.00  0.00    -0.201 A  
HETATM    9  C   UNL     1      -9.254  13.166  68.260  1.00  0.00    -0.194 A  
HETATM   10  C   UNL     1     -11.131  11.801  68.947  1.00  0.00    -0.297 A  
HETATM   11 CL   UNL     1     -12.098  15.617  69.626  1.00  0.00    -0.371 Cl 
HETATM   12  C   UNL     1      -9.941  14.312  68.665  1.00  0.00    -0.234 A  
HETATM   13  C   UNL     1     -11.810  12.946  69.364  1.00  0.00    -0.371 A  
HETATM   14  C   UNL     1     -11.221  14.198  69.202  1.00  0.00    -0.272 A  
ENDBRANCH   7   8
BRANCH   7  15
HETATM   15  C   UNL     1      -9.044   9.487  68.591  1.00  0.00    -0.132 A  
HETATM   16  C   UNL     1      -9.157   7.182  68.854  1.00  0.00    -0.131 A  
HETATM   17  C   UNL     1      -8.414   8.492  70.691  1.00  0.00    -0.158 A  
HETATM   18  C   UNL     1      -8.591   9.629  69.905  1.00  0.00    -0.218 A  
HETATM   19  N   UNL     1      -9.331   8.265  68.061  1.00  0.00    -0.132 NA 
HETATM   20  C   UNL     1      -8.699   7.243  70.158  1.00  0.00    -0.140 A  
ENDBRANCH   7  15
ENDBRANCH   6   7
ENDBRANCH   5   6
ENDBRANCH   4   5
ENDBRANCH   2   4
TORSDOF 6
ENDMDL
MODEL      137
REMARK 921   NORMALIZED FREE ENERGY PREDICTED BY IDOCK:   -3.70 KCAL/MOL
REMARK 922        TOTAL FREE ENERGY PREDICTED BY IDOCK:   -5.65 KCAL/MOL
REMARK 923 INTER-LIGAND FREE ENERGY PREDICTED BY IDOCK:   -4.81 KCAL/MOL
REMARK 924 INTRA-LIGAND FREE ENERGY PREDICTED BY IDOCK:   -0.83 KCAL/MOL
REMARK 927      BINDING AFFINITY PREDICTED BY RF-SCORE:    0.00 PKD
ROOT
HETATM    1  C   UNL     1     -11.597   6.573  70.535  1.00  0.00    -0.393 C  
HETATM    2  N   UNL     1     -10.393   7.397  70.390  1.00  0.00    -0.206 NA 
HETATM    3  C   UNL     1      -9.426   6.700  69.535  1.00  0.00    -0.147 C  
ENDROOT
BRANCH   2   4
HETATM    4  C   UNL     1     -10.759   8.728  69.861  1.00  0.00    -0.223 C  
BRANCH   4   5
HETATM    5  C   UNL     1      -9.656   9.782  70.023  1.00  0.00    -0.241 C  
BRANCH   5   6
HETATM    6  O   UNL     1      -9.583  10.626  68.864  1.00  0.00    -0.181 OA 
BRANCH   6   7
HETATM    7  C   UNL     1      -9.561   9.858  67.632  1.00  0.00    -0.148 C  
BRANCH   7   8
HETATM    8  C   UNL     1     -10.387  10.580  66.569  1.00  0.00    -0.294 A  
HETATM    9  C   UNL     1     -11.279  11.596  66.958  1.00  0.00    -0.376 A  
HETATM   10  C   UNL     1     -10.142  10.382  65.199  1.00  0.00    -0.379 A  
HETATM   11 CL   UNL     1     -12.219  13.332  63.485  1.00  0.00    -0.568 Cl 
HETATM   12  C   UNL     1     -11.857  12.435  66.003  1.00  0.00    -0.459 A  
HETATM   13  C   UNL     1     -10.732  11.212  64.246  1.00  0.00    -0.403 A  
HETATM   14  C   UNL     1     -11.570  12.248  64.653  1.00  0.00    -0.344 A  
ENDBRANCH   7   8
BRANCH   7  15
HETATM   15  C   UNL     1      -8.127   9.563  67.187  1.00  0.00    -0.106 A  
HETATM   16  C   UNL     1      -5.972  10.351  66.824  1.00  0.00    -0.063 A  
HETATM   17  C   UNL     1      -6.403   8.041  66.474  1.00  0.00    -0.050 A  
HETATM   18  C   UNL     1      -7.730   8.272  66.830  1.00  0.00    -0.095 A  
HETATM   19  N   UNL     1      -7.251  10.607  67.184  1.00  0.00    -0.093 NA 
HETATM   20  C   UNL     1      -5.504   9.097  66.472  1.00  0.00    -0.042 A  
ENDBRANCH   7  15
ENDBRANCH   6   7
ENDBRANCH   5   6
ENDBRANCH   4   5
ENDBRANCH   2   4
TORSDOF 6
ENDMDL
MODEL      138
REMARK 921   NORMALIZED FREE ENERGY PREDICTED BY IDOCK:   -3.68 KCAL/MOL
REMARK 922        TOTAL FREE ENERGY PREDICTED BY IDOCK:   -5.62 KCAL/MOL
REMARK 923 INTER-LIGAND FREE ENERGY PREDICTED BY IDOCK:   -5.01 KCAL/MOL
REMARK 924 INTRA-LIGAND FREE ENERGY PREDICTED BY IDOCK:   -0.61 KCAL/MOL
REMARK 927      BINDING AFFINITY PREDICTED BY RF-SCORE:    0.00 PKD
ROOT
HETATM    1  C   UNL     1      -9.820   1.910  71.612  1.00  0.00    -0.148 C  
HETATM    2  N   UNL     1      -8.553   2.516  72.034  1.00  0.00    -0.068 NA 
HETATM    3  C   UNL     1      -7.597   2.471  70.923  1.00  0.00    -0.036 C  
ENDROOT
BRANCH   2   4
HETATM    4  C   UNL     1      -8.795   3.891  72.519  1.00  0.00    -0.105 C  
BRANCH   4   5
HETATM    5  C   UNL     1     -10.122   4.491  72.036  1.00  0.00    -0.196 C  
BRANCH   5   6
HETATM    6  O   UNL     1      -9.963   5.881  71.708  1.00  0.00    -0.163 OA 
BRANCH   6   7
HETATM    7  C   UNL     1     -10.972   6.336  70.768  1.00  0.00    -0.297 C  
BRANCH   7   8
HETATM    8  C   UNL     1     -11.467   7.720  71.185  1.00  0.00    -0.295 A  
HETATM    9  C   UNL     1     -10.747   8.861  70.788  1.00  0.00    -0.287 A  
HETATM   10  C   UNL     1     -12.721   7.889  71.798  1.00  0.00    -0.353 A  
HETATM   11 CL   UNL     1     -13.274  11.841  71.621  1.00  0.00    -0.462 Cl 
HETATM   12  C   UNL     1     -11.299  10.135  70.938  1.00  0.00    -0.420 A  
HETATM   13  C   UNL     1     -13.264   9.164  71.960  1.00  0.00    -0.505 A  
HETATM   14  C   UNL     1     -12.560  10.279  71.510  1.00  0.00    -0.440 A  
ENDBRANCH   7   8
BRANCH   7  15
HETATM   15  C   UNL     1     -10.452   6.288  69.329  1.00  0.00    -0.244 A  
HETATM   16  C   UNL     1     -10.928   6.334  67.057  1.00  0.00    -0.364 A  
HETATM   17  C   UNL     1      -8.653   6.223  67.730  1.00  0.00    -0.115 A  
HETATM   18  C   UNL     1      -9.083   6.221  69.056  1.00  0.00    -0.129 A  
HETATM   19  N   UNL     1     -11.378   6.343  68.333  1.00  0.00    -0.196 NA 
HETATM   20  C   UNL     1      -9.590   6.283  66.709  1.00  0.00    -0.183 A  
ENDBRANCH   7  15
ENDBRANCH   6   7
ENDBRANCH   5   6
ENDBRANCH   4   5
ENDBRANCH   2   4
TORSDOF 6
ENDMDL
MODEL      139
REMARK 921   NORMALIZED FREE ENERGY PREDICTED BY IDOCK:   -3.67 KCAL/MOL
REMARK 922        TOTAL FREE ENERGY PREDICTED BY IDOCK:   -5.61 KCAL/MOL
REMARK 923 INTER-LIGAND FREE ENERGY PREDICTED BY IDOCK:   -4.98 KCAL/MOL
REMARK 924 INTRA-LIGAND FREE ENERGY PREDICTED BY IDOCK:   -0.63 KCAL/MOL
REMARK 927      BINDING AFFINITY PREDICTED BY RF-SCORE:    0.00 PKD
ROOT
HETATM    1  C   UNL     1      -8.709   6.758  72.679  1.00  0.00    -0.122 C  
HETATM    2  N   UNL     1      -8.638   8.159  72.254  1.00  0.00    -0.157 NA 
HETATM    3  C   UNL     1      -7.261   8.480  71.865  1.00  0.00    -0.091 C  
ENDROOT
BRANCH   2   4
HETATM    4  C   UNL     1      -9.605   8.400  71.163  1.00  0.00    -0.177 C  
BRANCH   4   5
HETATM    5  C   UNL     1      -9.270   9.623  70.300  1.00  0.00    -0.236 C  
BRANCH   5   6
HETATM    6  O   UNL     1      -8.842   9.220  68.989  1.00  0.00    -0.131 OA 
BRANCH   6   7
HETATM    7  C   UNL     1      -9.961   8.851  68.141  1.00  0.00    -0.176 C  
BRANCH   7   8
HETATM    8  C   UNL     1     -10.195   9.949  67.104  1.00  0.00    -0.285 A  
HETATM    9  C   UNL     1      -9.684   9.791  65.803  1.00  0.00    -0.340 A  
HETATM   10  C   UNL     1     -11.064  11.023  67.365  1.00  0.00    -0.370 A  
HETATM   11 CL   UNL     1     -11.537  12.684  63.763  1.00  0.00    -0.501 Cl 
HETATM   12  C   UNL     1     -10.087  10.647  64.775  1.00  0.00    -0.412 A  
HETATM   13  C   UNL     1     -11.454  11.885  66.339  1.00  0.00    -0.371 A  
HETATM   14  C   UNL     1     -10.980  11.680  65.045  1.00  0.00    -0.273 A  
ENDBRANCH   7   8
BRANCH   7  15
HETATM   15  C   UNL     1      -9.756   7.467  67.522  1.00  0.00    -0.148 A  
HETATM   16  C   UNL     1      -8.289   5.759  66.952  1.00  0.00    -0.108 A  
HETATM   17  C   UNL     1     -10.607   5.438  66.545  1.00  0.00    -0.353 A  
HETATM   18  C   UNL     1     -10.837   6.712  67.061  1.00  0.00    -0.467 A  
HETATM   19  N   UNL     1      -8.479   6.995  67.467  1.00  0.00    -0.122 NA 
HETATM   20  C   UNL     1      -9.311   4.948  66.490  1.00  0.00    -0.142 A  
ENDBRANCH   7  15
ENDBRANCH   6   7
ENDBRANCH   5   6
ENDBRANCH   4   5
ENDBRANCH   2   4
TORSDOF 6
ENDMDL
MODEL      140
REMARK 921   NORMALIZED FREE ENERGY PREDICTED BY IDOCK:   -3.64 KCAL/MOL
REMARK 922        TOTAL FREE ENERGY PREDICTED BY IDOCK:   -5.56 KCAL/MOL
REMARK 923 INTER-LIGAND FREE ENERGY PREDICTED BY IDOCK:   -5.34 KCAL/MOL
REMARK 924 INTRA-LIGAND FREE ENERGY PREDICTED BY IDOCK:   -0.22 KCAL/MOL
REMARK 927      BINDING AFFINITY PREDICTED BY RF-SCORE:    0.00 PKD
ROOT
HETATM    1  C   UNL     1      -9.463  10.551  64.248  1.00  0.00    -0.285 C  
HETATM    2  N   UNL     1      -8.687   9.753  65.201  1.00  0.00    -0.156 NA 
HETATM    3  C   UNL     1      -7.886  10.646  66.045  1.00  0.00    -0.156 C  
ENDROOT
BRANCH   2   4
HETATM    4  C   UNL     1      -9.595   8.893  65.989  1.00  0.00    -0.250 C  
BRANCH   4   5
HETATM    5  C   UNL     1      -9.377   8.991  67.505  1.00  0.00    -0.135 C  
BRANCH   5   6
HETATM    6  O   UNL     1     -10.581   9.409  68.167  1.00  0.00    -0.221 OA 
BRANCH   6   7
HETATM    7  C   UNL     1     -10.303  10.205  69.349  1.00  0.00    -0.232 C  
BRANCH   7   8
HETATM    8  C   UNL     1     -10.971  11.572  69.208  1.00  0.00    -0.261 A  
HETATM    9  C   UNL     1     -11.796  12.049  70.242  1.00  0.00    -0.356 A  
HETATM   10  C   UNL     1     -10.634  12.442  68.156  1.00  0.00    -0.232 A  
HETATM   11 CL   UNL     1     -12.290  15.896  69.287  1.00  0.00    -0.086 Cl 
HETATM   12  C   UNL     1     -12.217  13.380  70.257  1.00  0.00    -0.405 A  
HETATM   13  C   UNL     1     -11.067  13.768  68.166  1.00  0.00    -0.282 A  
HETATM   14  C   UNL     1     -11.838  14.237  69.227  1.00  0.00    -0.330 A  
ENDBRANCH   7   8
BRANCH   7  15
HETATM   15  C   UNL     1     -10.704   9.464  70.626  1.00  0.00    -0.290 A  
HETATM   16  C   UNL     1     -12.399   8.561  71.932  1.00  0.00    -0.352 A  
HETATM   17  C   UNL     1     -10.153   8.299  72.659  1.00  0.00    -0.365 A  
HETATM   18  C   UNL     1      -9.743   9.008  71.531  1.00  0.00    -0.365 A  
HETATM   19  N   UNL     1     -12.034   9.244  70.823  1.00  0.00    -0.251 NA 
HETATM   20  C   UNL     1     -11.505   8.067  72.865  1.00  0.00    -0.329 A  
ENDBRANCH   7  15
ENDBRANCH   6   7
ENDBRANCH   5   6
ENDBRANCH   4   5
ENDBRANCH   2   4
TORSDOF 6
ENDMDL
MODEL      141
REMARK 921   NORMALIZED FREE ENERGY PREDICTED BY IDOCK:   -3.63 KCAL/MOL
REMARK 922        TOTAL FREE ENERGY PREDICTED BY IDOCK:   -5.56 KCAL/MOL
REMARK 923 INTER-LIGAND FREE ENERGY PREDICTED BY IDOCK:   -4.93 KCAL/MOL
REMARK 924 INTRA-LIGAND FREE ENERGY PREDICTED BY IDOCK:   -0.62 KCAL/MOL
REMARK 927      BINDING AFFINITY PREDICTED BY RF-SCORE:    0.00 PKD
ROOT
HETATM    1  C   UNL     1      -8.617   4.032  63.180  1.00  0.00    -0.098 C  
HETATM    2  N   UNL     1      -9.898   4.086  63.891  1.00  0.00    -0.162 NA 
HETATM    3  C   UNL     1     -10.781   3.030  63.382  1.00  0.00    -0.246 C  
ENDROOT
BRANCH   2   4
HETATM    4  C   UNL     1      -9.667   3.978  65.346  1.00  0.00    -0.196 C  
BRANCH   4   5
HETATM    5  C   UNL     1     -10.615   4.842  66.188  1.00  0.00    -0.271 C  
BRANCH   5   6
HETATM    6  O   UNL     1      -9.935   5.379  67.334  1.00  0.00    -0.143 OA 
BRANCH   6   7
HETATM    7  C   UNL     1     -10.745   6.356  68.038  1.00  0.00    -0.291 C  
BRANCH   7   8
HETATM    8  C   UNL     1     -10.928   5.912  69.489  1.00  0.00    -0.438 A  
HETATM    9  C   UNL     1     -10.117   4.884  70.005  1.00  0.00    -0.337 A  
HETATM   10  C   UNL     1     -11.756   6.628  70.370  1.00  0.00    -0.446 A  
HETATM   11 CL   UNL     1     -10.786   5.114  73.937  1.00  0.00    -0.340 Cl 
HETATM   12  C   UNL     1     -10.086   4.628  71.377  1.00  0.00    -0.248 A  
HETATM   13  C   UNL     1     -11.734   6.360  71.739  1.00  0.00    -0.376 A  
HETATM   14  C   UNL     1     -10.884   5.376  72.239  1.00  0.00    -0.227 A  
ENDBRANCH   7   8
BRANCH   7  15
HETATM   15  C   UNL     1     -10.158   7.763  67.906  1.00  0.00    -0.185 A  
HETATM   16  C   UNL     1     -10.168   9.810  66.808  1.00  0.00    -0.233 A  
HETATM   17  C   UNL     1      -8.700   9.527  68.654  1.00  0.00    -0.127 A  
HETATM   18  C   UNL     1      -9.175   8.223  68.785  1.00  0.00    -0.143 A  
HETATM   19  N   UNL     1     -10.657   8.552  66.914  1.00  0.00    -0.271 NA 
HETATM   20  C   UNL     1      -9.206  10.339  67.650  1.00  0.00    -0.154 A  
ENDBRANCH   7  15
ENDBRANCH   6   7
ENDBRANCH   5   6
ENDBRANCH   4   5
ENDBRANCH   2   4
TORSDOF 6
ENDMDL
MODEL      142
REMARK 921   NORMALIZED FREE ENERGY PREDICTED BY IDOCK:   -3.60 KCAL/MOL
REMARK 922        TOTAL FREE ENERGY PREDICTED BY IDOCK:   -5.51 KCAL/MOL
REMARK 923 INTER-LIGAND FREE ENERGY PREDICTED BY IDOCK:   -4.77 KCAL/MOL
REMARK 924 INTRA-LIGAND FREE ENERGY PREDICTED BY IDOCK:   -0.75 KCAL/MOL
REMARK 927      BINDING AFFINITY PREDICTED BY RF-SCORE:    0.00 PKD
ROOT
HETATM    1  C   UNL     1      -6.148  12.313  67.242  1.00  0.00    -0.153 C  
HETATM    2  N   UNL     1      -6.154  13.012  68.530  1.00  0.00    -0.071 NA 
HETATM    3  C   UNL     1      -7.185  14.056  68.513  1.00  0.00    -0.109 C  
ENDROOT
BRANCH   2   4
HETATM    4  C   UNL     1      -6.351  12.040  69.625  1.00  0.00    -0.120 C  
BRANCH   4   5
HETATM    5  C   UNL     1      -7.158  10.801  69.213  1.00  0.00    -0.116 C  
BRANCH   5   6
HETATM    6  O   UNL     1      -8.557  10.991  69.479  1.00  0.00     0.087 OA 
BRANCH   6   7
HETATM    7  C   UNL     1      -9.379  10.013  68.789  1.00  0.00    -0.162 C  
BRANCH   7   8
HETATM    8  C   UNL     1     -10.645   9.752  69.603  1.00  0.00    -0.260 A  
HETATM    9  C   UNL     1     -10.893   8.459  70.100  1.00  0.00    -0.238 A  
HETATM   10  C   UNL     1     -11.472  10.808  70.023  1.00  0.00    -0.412 A  
HETATM   11 CL   UNL     1     -13.867   9.061  72.700  1.00  0.00    -0.475 Cl 
HETATM   12  C   UNL     1     -11.899   8.244  71.045  1.00  0.00    -0.276 A  
HETATM   13  C   UNL     1     -12.486  10.588  70.955  1.00  0.00    -0.501 A  
HETATM   14  C   UNL     1     -12.681   9.312  71.478  1.00  0.00    -0.350 A  
ENDBRANCH   7   8
BRANCH   7  15
HETATM   15  C   UNL     1      -9.664  10.445  67.349  1.00  0.00    -0.163 A  
HETATM   16  C   UNL     1     -10.135  12.164  65.861  1.00  0.00    -0.245 A  
HETATM   17  C   UNL     1      -9.858   9.969  64.997  1.00  0.00    -0.374 A  
HETATM   18  C   UNL     1      -9.636   9.524  66.299  1.00  0.00    -0.287 A  
HETATM   19  N   UNL     1      -9.914  11.766  67.135  1.00  0.00    -0.202 NA 
HETATM   20  C   UNL     1     -10.110  11.314  64.770  1.00  0.00    -0.338 A  
ENDBRANCH   7  15
ENDBRANCH   6   7
ENDBRANCH   5   6
ENDBRANCH   4   5
ENDBRANCH   2   4
TORSDOF 6
ENDMDL
MODEL      143
REMARK 921   NORMALIZED FREE ENERGY PREDICTED BY IDOCK:   -3.59 KCAL/MOL
REMARK 922        TOTAL FREE ENERGY PREDICTED BY IDOCK:   -5.50 KCAL/MOL
REMARK 923 INTER-LIGAND FREE ENERGY PREDICTED BY IDOCK:   -5.08 KCAL/MOL
REMARK 924 INTRA-LIGAND FREE ENERGY PREDICTED BY IDOCK:   -0.42 KCAL/MOL
REMARK 927      BINDING AFFINITY PREDICTED BY RF-SCORE:    0.00 PKD
ROOT
HETATM    1  C   UNL     1      -5.982  12.130  67.131  1.00  0.00    -0.143 C  
HETATM    2  N   UNL     1      -7.004  11.080  67.097  1.00  0.00    -0.095 NA 
HETATM    3  C   UNL     1      -6.975  10.414  65.790  1.00  0.00    -0.136 C  
ENDROOT
BRANCH   2   4
HETATM    4  C   UNL     1      -6.790  10.139  68.216  1.00  0.00    -0.062 C  
BRANCH   4   5
HETATM    5  C   UNL     1      -7.636  10.454  69.458  1.00  0.00    -0.156 C  
BRANCH   5   6
HETATM    6  O   UNL     1      -8.426   9.316  69.838  1.00  0.00    -0.132 OA 
BRANCH   6   7
HETATM    7  C   UNL     1      -9.725   9.706  70.357  1.00  0.00    -0.245 C  
BRANCH   7   8
HETATM    8  C   UNL     1     -10.540  10.361  69.243  1.00  0.00    -0.259 A  
HETATM    9  C   UNL     1     -11.235  11.556  69.505  1.00  0.00    -0.305 A  
HETATM   10  C   UNL     1     -10.462   9.900  67.917  1.00  0.00    -0.282 A  
HETATM   11 CL   UNL     1     -12.255  12.811  65.852  1.00  0.00    -0.476 Cl 
HETATM   12  C   UNL     1     -11.778  12.304  68.458  1.00  0.00    -0.381 A  
HETATM   13  C   UNL     1     -11.018  10.642  66.875  1.00  0.00    -0.228 A  
HETATM   14  C   UNL     1     -11.655  11.850  67.147  1.00  0.00    -0.290 A  
ENDBRANCH   7   8
BRANCH   7  15
HETATM   15  C   UNL     1     -10.439   8.522  71.014  1.00  0.00    -0.212 A  
HETATM   16  C   UNL     1     -11.103   7.456  72.967  1.00  0.00    -0.343 A  
HETATM   17  C   UNL     1     -11.754   6.510  70.888  1.00  0.00    -0.416 A  
HETATM   18  C   UNL     1     -11.079   7.546  70.246  1.00  0.00    -0.263 A  
HETATM   19  N   UNL     1     -10.447   8.481  72.375  1.00  0.00    -0.325 NA 
HETATM   20  C   UNL     1     -11.770   6.462  72.274  1.00  0.00    -0.333 A  
ENDBRANCH   7  15
ENDBRANCH   6   7
ENDBRANCH   5   6
ENDBRANCH   4   5
ENDBRANCH   2   4
TORSDOF 6
ENDMDL
MODEL      144
REMARK 921   NORMALIZED FREE ENERGY PREDICTED BY IDOCK:   -3.57 KCAL/MOL
REMARK 922        TOTAL FREE ENERGY PREDICTED BY IDOCK:   -5.46 KCAL/MOL
REMARK 923 INTER-LIGAND FREE ENERGY PREDICTED BY IDOCK:   -4.76 KCAL/MOL
REMARK 924 INTRA-LIGAND FREE ENERGY PREDICTED BY IDOCK:   -0.71 KCAL/MOL
REMARK 927      BINDING AFFINITY PREDICTED BY RF-SCORE:    0.00 PKD
ROOT
HETATM    1  C   UNL     1      -7.488   8.953  62.534  1.00  0.00    -0.100 C  
HETATM    2  N   UNL     1      -6.468   9.156  63.567  1.00  0.00    -0.090 NA 
HETATM    3  C   UNL     1      -5.717  10.382  63.275  1.00  0.00    -0.149 C  
ENDROOT
BRANCH   2   4
HETATM    4  C   UNL     1      -7.106   9.187  64.900  1.00  0.00    -0.096 C  
BRANCH   4   5
HETATM    5  C   UNL     1      -8.165   8.095  65.103  1.00  0.00    -0.154 C  
BRANCH   5   6
HETATM    6  O   UNL     1      -9.428   8.672  65.474  1.00  0.00    -0.123 OA 
BRANCH   6   7
HETATM    7  C   UNL     1      -9.263   9.910  66.214  1.00  0.00    -0.168 C  
BRANCH   7   8
HETATM    8  C   UNL     1     -10.249  10.951  65.685  1.00  0.00    -0.323 A  
HETATM    9  C   UNL     1     -10.867  11.838  66.585  1.00  0.00    -0.318 A  
HETATM   10  C   UNL     1     -10.411  11.164  64.305  1.00  0.00    -0.427 A  
HETATM   11 CL   UNL     1     -12.486  14.575  64.166  1.00  0.00    -0.371 Cl 
HETATM   12  C   UNL     1     -11.571  12.949  66.115  1.00  0.00    -0.423 A  
HETATM   13  C   UNL     1     -11.128  12.266  63.838  1.00  0.00    -0.475 A  
HETATM   14  C   UNL     1     -11.686  13.165  64.744  1.00  0.00    -0.347 A  
ENDBRANCH   7   8
BRANCH   7  15
HETATM   15  C   UNL     1      -9.381   9.676  67.722  1.00  0.00    -0.127 A  
HETATM   16  C   UNL     1      -8.499  10.007  69.844  1.00  0.00    -0.150 A  
HETATM   17  C   UNL     1     -10.563   8.848  69.649  1.00  0.00    -0.230 A  
HETATM   18  C   UNL     1     -10.476   9.000  68.266  1.00  0.00    -0.247 A  
HETATM   19  N   UNL     1      -8.389  10.180  68.507  1.00  0.00    -0.112 NA 
HETATM   20  C   UNL     1      -9.560   9.362  70.456  1.00  0.00    -0.330 A  
ENDBRANCH   7  15
ENDBRANCH   6   7
ENDBRANCH   5   6
ENDBRANCH   4   5
ENDBRANCH   2   4
TORSDOF 6
ENDMDL
MODEL      145
REMARK 921   NORMALIZED FREE ENERGY PREDICTED BY IDOCK:   -3.56 KCAL/MOL
REMARK 922        TOTAL FREE ENERGY PREDICTED BY IDOCK:   -5.45 KCAL/MOL
REMARK 923 INTER-LIGAND FREE ENERGY PREDICTED BY IDOCK:   -4.72 KCAL/MOL
REMARK 924 INTRA-LIGAND FREE ENERGY PREDICTED BY IDOCK:   -0.74 KCAL/MOL
REMARK 927      BINDING AFFINITY PREDICTED BY RF-SCORE:    0.00 PKD
ROOT
HETATM    1  C   UNL     1     -11.204   5.243  73.130  1.00  0.00    -0.318 C  
HETATM    2  N   UNL     1     -11.464   6.233  72.081  1.00  0.00    -0.294 NA 
HETATM    3  C   UNL     1     -11.215   7.579  72.609  1.00  0.00    -0.348 C  
ENDROOT
BRANCH   2   4
HETATM    4  C   UNL     1     -10.640   5.930  70.893  1.00  0.00    -0.256 C  
BRANCH   4   5
HETATM    5  C   UNL     1     -11.294   6.339  69.566  1.00  0.00    -0.404 C  
BRANCH   5   6
HETATM    6  O   UNL     1     -10.703   7.546  69.057  1.00  0.00    -0.207 OA 
BRANCH   6   7
HETATM    7  C   UNL     1     -10.586   7.525  67.610  1.00  0.00    -0.233 C  
BRANCH   7   8
HETATM    8  C   UNL     1     -10.628   8.957  67.078  1.00  0.00    -0.279 A  
HETATM    9  C   UNL     1     -11.141   9.983  67.891  1.00  0.00    -0.260 A  
HETATM   10  C   UNL     1      -9.997   9.302  65.870  1.00  0.00    -0.289 A  
HETATM   11 CL   UNL     1     -10.019  13.295  65.961  1.00  0.00    -0.296 Cl 
HETATM   12  C   UNL     1     -10.967  11.322  67.537  1.00  0.00    -0.319 A  
HETATM   13  C   UNL     1      -9.837  10.641  65.511  1.00  0.00    -0.316 A  
HETATM   14  C   UNL     1     -10.304  11.645  66.357  1.00  0.00    -0.230 A  
ENDBRANCH   7   8
BRANCH   7  15
HETATM   15  C   UNL     1      -9.344   6.749  67.164  1.00  0.00    -0.136 A  
HETATM   16  C   UNL     1      -8.416   5.151  65.759  1.00  0.00    -0.124 A  
HETATM   17  C   UNL     1      -6.979   6.309  67.253  1.00  0.00    -0.072 A  
HETATM   18  C   UNL     1      -8.090   7.009  67.721  1.00  0.00    -0.114 A  
HETATM   19  N   UNL     1      -9.513   5.819  66.184  1.00  0.00    -0.151 NA 
HETATM   20  C   UNL     1      -7.141   5.363  66.252  1.00  0.00    -0.072 A  
ENDBRANCH   7  15
ENDBRANCH   6   7
ENDBRANCH   5   6
ENDBRANCH   4   5
ENDBRANCH   2   4
TORSDOF 6
ENDMDL
MODEL      146
REMARK 921   NORMALIZED FREE ENERGY PREDICTED BY IDOCK:   -3.51 KCAL/MOL
REMARK 922        TOTAL FREE ENERGY PREDICTED BY IDOCK:   -5.39 KCAL/MOL
REMARK 923 INTER-LIGAND FREE ENERGY PREDICTED BY IDOCK:   -4.67 KCAL/MOL
REMARK 924 INTRA-LIGAND FREE ENERGY PREDICTED BY IDOCK:   -0.72 KCAL/MOL
REMARK 927      BINDING AFFINITY PREDICTED BY RF-SCORE:    0.00 PKD
ROOT
HETATM    1  C   UNL     1      -9.540   9.166  65.926  1.00  0.00    -0.273 C  
HETATM    2  N   UNL     1      -8.650   9.117  67.090  1.00  0.00    -0.120 NA 
HETATM    3  C   UNL     1      -9.335   9.694  68.251  1.00  0.00    -0.133 C  
ENDROOT
BRANCH   2   4
HETATM    4  C   UNL     1      -8.212   7.726  67.325  1.00  0.00    -0.119 C  
BRANCH   4   5
HETATM    5  C   UNL     1      -8.100   7.356  68.810  1.00  0.00    -0.128 C  
BRANCH   5   6
HETATM    6  O   UNL     1      -8.955   6.245  69.125  1.00  0.00    -0.127 OA 
BRANCH   6   7
HETATM    7  C   UNL     1      -9.237   6.163  70.547  1.00  0.00    -0.157 C  
BRANCH   7   8
HETATM    8  C   UNL     1     -10.458   7.022  70.872  1.00  0.00    -0.233 A  
HETATM    9  C   UNL     1     -11.747   6.508  70.643  1.00  0.00    -0.436 A  
HETATM   10  C   UNL     1     -10.327   8.238  71.565  1.00  0.00    -0.276 A  
HETATM   11 CL   UNL     1     -14.095   9.102  72.571  1.00  0.00    -0.479 Cl 
HETATM   12  C   UNL     1     -12.871   7.159  71.155  1.00  0.00    -0.340 A  
HETATM   13  C   UNL     1     -11.453   8.895  72.062  1.00  0.00    -0.431 A  
HETATM   14  C   UNL     1     -12.717   8.342  71.873  1.00  0.00    -0.355 A  
ENDBRANCH   7   8
BRANCH   7  15
HETATM   15  C   UNL     1      -9.382   4.708  71.000  1.00  0.00    -0.147 A  
HETATM   16  C   UNL     1      -9.760   3.212  72.736  1.00  0.00    -0.129 A  
HETATM   17  C   UNL     1      -9.507   2.349  70.537  1.00  0.00    -0.185 A  
HETATM   18  C   UNL     1      -9.326   3.655  70.085  1.00  0.00    -0.243 A  
HETATM   19  N   UNL     1      -9.597   4.492  72.328  1.00  0.00    -0.147 NA 
HETATM   20  C   UNL     1      -9.731   2.120  71.886  1.00  0.00    -0.210 A  
ENDBRANCH   7  15
ENDBRANCH   6   7
ENDBRANCH   5   6
ENDBRANCH   4   5
ENDBRANCH   2   4
TORSDOF 6
ENDMDL
MODEL      147
REMARK 921   NORMALIZED FREE ENERGY PREDICTED BY IDOCK:   -3.51 KCAL/MOL
REMARK 922        TOTAL FREE ENERGY PREDICTED BY IDOCK:   -5.38 KCAL/MOL
REMARK 923 INTER-LIGAND FREE ENERGY PREDICTED BY IDOCK:   -6.08 KCAL/MOL
REMARK 924 INTRA-LIGAND FREE ENERGY PREDICTED BY IDOCK:    0.70 KCAL/MOL
REMARK 927      BINDING AFFINITY PREDICTED BY RF-SCORE:    0.00 PKD
ROOT
HETATM    1  C   UNL     1     -12.182   7.229  71.578  1.00  0.00    -0.352 C  
HETATM    2  N   UNL     1     -11.410   8.474  71.574  1.00  0.00    -0.265 NA 
HETATM    3  C   UNL     1     -10.170   8.281  72.334  1.00  0.00    -0.327 C  
ENDROOT
BRANCH   2   4
HETATM    4  C   UNL     1     -11.160   8.903  70.182  1.00  0.00    -0.201 C  
BRANCH   4   5
HETATM    5  C   UNL     1     -11.063  10.426  70.013  1.00  0.00    -0.314 C  
BRANCH   5   6
HETATM    6  O   UNL     1     -11.995  10.889  69.023  1.00  0.00    -0.342 OA 
BRANCH   6   7
HETATM    7  C   UNL     1     -11.757  12.274  68.658  1.00  0.00    -0.328 C  
BRANCH   7   8
HETATM    8  C   UNL     1     -12.093  13.175  69.846  1.00  0.00    -0.357 A  
HETATM    9  C   UNL     1     -11.976  14.570  69.710  1.00  0.00    -0.383 A  
HETATM   10  C   UNL     1     -12.691  12.655  71.007  1.00  0.00    -0.316 A  
HETATM   11 CL   UNL     1     -13.854  15.940  72.959  1.00  0.00    -0.610 Cl 
HETATM   12  C   UNL     1     -12.507  15.423  70.680  1.00  0.00    -0.478 A  
HETATM   13  C   UNL     1     -13.207  13.510  71.982  1.00  0.00    -0.529 A  
HETATM   14  C   UNL     1     -13.131  14.889  71.804  1.00  0.00    -0.339 A  
ENDBRANCH   7   8
BRANCH   7  15
HETATM   15  C   UNL     1     -10.334  12.473  68.131  1.00  0.00    -0.232 A  
HETATM   16  C   UNL     1      -8.633  11.752  66.724  1.00  0.00    -0.185 A  
HETATM   17  C   UNL     1      -8.280  13.721  68.004  1.00  0.00    -0.164 A  
HETATM   18  C   UNL     1      -9.554  13.555  68.544  1.00  0.00    -0.151 A  
HETATM   19  N   UNL     1      -9.878  11.567  67.222  1.00  0.00    -0.189 NA 
HETATM   20  C   UNL     1      -7.808  12.806  67.075  1.00  0.00    -0.022 A  
ENDBRANCH   7  15
ENDBRANCH   6   7
ENDBRANCH   5   6
ENDBRANCH   4   5
ENDBRANCH   2   4
TORSDOF 6
ENDMDL
MODEL      148
REMARK 921   NORMALIZED FREE ENERGY PREDICTED BY IDOCK:   -3.50 KCAL/MOL
REMARK 922        TOTAL FREE ENERGY PREDICTED BY IDOCK:   -5.38 KCAL/MOL
REMARK 923 INTER-LIGAND FREE ENERGY PREDICTED BY IDOCK:   -4.59 KCAL/MOL
REMARK 924 INTRA-LIGAND FREE ENERGY PREDICTED BY IDOCK:   -0.79 KCAL/MOL
REMARK 927      BINDING AFFINITY PREDICTED BY RF-SCORE:    0.00 PKD
ROOT
HETATM    1  C   UNL     1      -5.717  11.021  66.023  1.00  0.00    -0.135 C  
HETATM    2  N   UNL     1      -7.078  11.129  66.557  1.00  0.00    -0.140 NA 
HETATM    3  C   UNL     1      -7.983  10.299  65.754  1.00  0.00    -0.144 C  
ENDROOT
BRANCH   2   4
HETATM    4  C   UNL     1      -7.085  10.755  67.986  1.00  0.00    -0.081 C  
BRANCH   4   5
HETATM    5  C   UNL     1      -8.430  11.005  68.683  1.00  0.00    -0.157 C  
BRANCH   5   6
HETATM    6  O   UNL     1      -8.824   9.861  69.456  1.00  0.00    -0.168 OA 
BRANCH   6   7
HETATM    7  C   UNL     1     -10.109   9.334  69.032  1.00  0.00    -0.199 C  
BRANCH   7   8
HETATM    8  C   UNL     1      -9.944   7.875  68.609  1.00  0.00    -0.201 A  
HETATM    9  C   UNL     1     -10.817   7.330  67.650  1.00  0.00    -0.251 A  
HETATM   10  C   UNL     1      -8.830   7.121  69.016  1.00  0.00    -0.131 A  
HETATM   11 CL   UNL     1      -9.033   3.891  66.675  1.00  0.00    -0.128 Cl 
HETATM   12  C   UNL     1     -10.543   6.092  67.065  1.00  0.00    -0.384 A  
HETATM   13  C   UNL     1      -8.567   5.878  68.441  1.00  0.00    -0.113 A  
HETATM   14  C   UNL     1      -9.412   5.379  67.453  1.00  0.00    -0.120 A  
ENDBRANCH   7   8
BRANCH   7  15
HETATM   15  C   UNL     1     -11.175   9.535  70.111  1.00  0.00    -0.234 A  
HETATM   16  C   UNL     1     -12.839  10.881  71.014  1.00  0.00    -0.376 A  
HETATM   17  C   UNL     1     -12.450   8.754  71.998  1.00  0.00    -0.452 A  
HETATM   18  C   UNL     1     -11.440   8.546  71.061  1.00  0.00    -0.313 A  
HETATM   19  N   UNL     1     -11.871  10.706  70.084  1.00  0.00    -0.308 NA 
HETATM   20  C   UNL     1     -13.166   9.941  71.975  1.00  0.00    -0.555 A  
ENDBRANCH   7  15
ENDBRANCH   6   7
ENDBRANCH   5   6
ENDBRANCH   4   5
ENDBRANCH   2   4
TORSDOF 6
ENDMDL
MODEL      149
REMARK 921   NORMALIZED FREE ENERGY PREDICTED BY IDOCK:   -3.49 KCAL/MOL
REMARK 922        TOTAL FREE ENERGY PREDICTED BY IDOCK:   -5.37 KCAL/MOL
REMARK 923 INTER-LIGAND FREE ENERGY PREDICTED BY IDOCK:   -4.72 KCAL/MOL
REMARK 924 INTRA-LIGAND FREE ENERGY PREDICTED BY IDOCK:   -0.65 KCAL/MOL
REMARK 927      BINDING AFFINITY PREDICTED BY RF-SCORE:    0.00 PKD
ROOT
HETATM    1  C   UNL     1     -11.841   6.581  71.266  1.00  0.00    -0.329 C  
HETATM    2  N   UNL     1     -10.784   6.969  70.327  1.00  0.00    -0.233 NA 
HETATM    3  C   UNL     1     -10.957   6.235  69.069  1.00  0.00    -0.372 C  
ENDROOT
BRANCH   2   4
HETATM    4  C   UNL     1     -10.800   8.434  70.135  1.00  0.00    -0.236 C  
BRANCH   4   5
HETATM    5  C   UNL     1     -10.118   8.894  68.839  1.00  0.00    -0.197 C  
BRANCH   5   6
HETATM    6  O   UNL     1      -9.609  10.230  68.978  1.00  0.00    -0.182 OA 
BRANCH   6   7
HETATM    7  C   UNL     1      -8.784  10.617  67.847  1.00  0.00    -0.127 C  
BRANCH   7   8
HETATM    8  C   UNL     1      -9.669  11.212  66.753  1.00  0.00    -0.220 A  
HETATM    9  C   UNL     1      -9.627  10.668  65.457  1.00  0.00    -0.271 A  
HETATM   10  C   UNL     1     -10.657  12.165  67.056  1.00  0.00    -0.256 A  
HETATM   11 CL   UNL     1     -12.820  12.306  63.700  1.00  0.00    -0.505 Cl 
HETATM   12  C   UNL     1     -10.591  11.018  64.509  1.00  0.00    -0.383 A  
HETATM   13  C   UNL     1     -11.611  12.525  66.102  1.00  0.00    -0.448 A  
HETATM   14  C   UNL     1     -11.586  11.934  64.841  1.00  0.00    -0.226 A  
ENDBRANCH   7   8
BRANCH   7  15
HETATM   15  C   UNL     1      -7.649  11.549  68.281  1.00  0.00    -0.115 A  
HETATM   16  C   UNL     1      -6.032  12.086  69.858  1.00  0.00    -0.149 A  
HETATM   17  C   UNL     1      -6.158  13.395  67.881  1.00  0.00    -0.146 A  
HETATM   18  C   UNL     1      -7.224  12.600  67.465  1.00  0.00    -0.155 A  
HETATM   19  N   UNL     1      -7.057  11.288  69.480  1.00  0.00    -0.098 NA 
HETATM   20  C   UNL     1      -5.547  13.135  69.098  1.00  0.00    -0.073 A  
ENDBRANCH   7  15
ENDBRANCH   6   7
ENDBRANCH   5   6
ENDBRANCH   4   5
ENDBRANCH   2   4
TORSDOF 6
ENDMDL
MODEL      150
REMARK 921   NORMALIZED FREE ENERGY PREDICTED BY IDOCK:   -3.49 KCAL/MOL
REMARK 922        TOTAL FREE ENERGY PREDICTED BY IDOCK:   -5.36 KCAL/MOL
REMARK 923 INTER-LIGAND FREE ENERGY PREDICTED BY IDOCK:   -4.68 KCAL/MOL
REMARK 924 INTRA-LIGAND FREE ENERGY PREDICTED BY IDOCK:   -0.67 KCAL/MOL
REMARK 927      BINDING AFFINITY PREDICTED BY RF-SCORE:    0.00 PKD
ROOT
HETATM    1  C   UNL     1      -5.328  16.135  68.714  1.00  0.00    -0.111 C  
HETATM    2  N   UNL     1      -5.778  14.923  69.406  1.00  0.00    -0.095 NA 
HETATM    3  C   UNL     1      -5.214  14.898  70.760  1.00  0.00    -0.131 C  
ENDROOT
BRANCH   2   4
HETATM    4  C   UNL     1      -7.255  14.868  69.407  1.00  0.00    -0.182 C  
BRANCH   4   5
HETATM    5  C   UNL     1      -7.859  14.466  68.055  1.00  0.00    -0.140 C  
BRANCH   5   6
HETATM    6  O   UNL     1      -9.056  13.693  68.241  1.00  0.00    -0.191 OA 
BRANCH   6   7
HETATM    7  C   UNL     1      -9.290  12.779  67.138  1.00  0.00    -0.216 C  
BRANCH   7   8
HETATM    8  C   UNL     1      -9.500  11.368  67.685  1.00  0.00    -0.165 A  
HETATM    9  C   UNL     1      -9.176  11.090  69.025  1.00  0.00    -0.077 A  
HETATM   10  C   UNL     1     -10.180  10.392  66.936  1.00  0.00    -0.281 A  
HETATM   11 CL   UNL     1     -10.861   7.518  69.626  1.00  0.00    -0.236 Cl 
HETATM   12  C   UNL     1      -9.583   9.894  69.619  1.00  0.00    -0.249 A  
HETATM   13  C   UNL     1     -10.572   9.191  67.528  1.00  0.00    -0.317 A  
HETATM   14  C   UNL     1     -10.291   8.956  68.872  1.00  0.00    -0.212 A  
ENDBRANCH   7   8
BRANCH   7  15
HETATM   15  C   UNL     1     -10.440  13.262  66.251  1.00  0.00    -0.287 A  
HETATM   16  C   UNL     1     -11.243  13.668  64.110  1.00  0.00    -0.272 A  
HETATM   17  C   UNL     1     -12.700  14.034  65.950  1.00  0.00    -0.436 A  
HETATM   18  C   UNL     1     -11.666  13.643  66.799  1.00  0.00    -0.426 A  
HETATM   19  N   UNL     1     -10.222  13.274  64.906  1.00  0.00    -0.318 NA 
HETATM   20  C   UNL     1     -12.489  14.046  64.579  1.00  0.00    -0.342 A  
ENDBRANCH   7  15
ENDBRANCH   6   7
ENDBRANCH   5   6
ENDBRANCH   4   5
ENDBRANCH   2   4
TORSDOF 6
ENDMDL
MODEL      151
REMARK 921   NORMALIZED FREE ENERGY PREDICTED BY IDOCK:   -3.47 KCAL/MOL
REMARK 922        TOTAL FREE ENERGY PREDICTED BY IDOCK:   -5.34 KCAL/MOL
REMARK 923 INTER-LIGAND FREE ENERGY PREDICTED BY IDOCK:   -4.95 KCAL/MOL
REMARK 924 INTRA-LIGAND FREE ENERGY PREDICTED BY IDOCK:   -0.39 KCAL/MOL
REMARK 927      BINDING AFFINITY PREDICTED BY RF-SCORE:    0.00 PKD
ROOT
HETATM    1  C   UNL     1      -9.164   9.742  64.356  1.00  0.00    -0.245 C  
HETATM    2  N   UNL     1      -9.394  11.042  63.719  1.00  0.00    -0.228 NA 
HETATM    3  C   UNL     1      -8.911  10.997  62.334  1.00  0.00    -0.297 C  
ENDROOT
BRANCH   2   4
HETATM    4  C   UNL     1     -10.825  11.396  63.808  1.00  0.00    -0.395 C  
BRANCH   4   5
HETATM    5  C   UNL     1     -11.079  12.817  64.331  1.00  0.00    -0.349 C  
BRANCH   5   6
HETATM    6  O   UNL     1     -11.422  12.793  65.726  1.00  0.00    -0.316 OA 
BRANCH   6   7
HETATM    7  C   UNL     1     -10.249  12.894  66.576  1.00  0.00    -0.259 C  
BRANCH   7   8
HETATM    8  C   UNL     1     -10.514  13.909  67.687  1.00  0.00    -0.245 A  
HETATM    9  C   UNL     1     -11.787  14.495  67.799  1.00  0.00    -0.390 A  
HETATM   10  C   UNL     1      -9.574  14.130  68.708  1.00  0.00    -0.122 A  
HETATM   11 CL   UNL     1     -11.652  16.235  71.393  1.00  0.00    -0.479 Cl 
HETATM   12  C   UNL     1     -12.132  15.227  68.937  1.00  0.00    -0.223 A  
HETATM   13  C   UNL     1      -9.916  14.875  69.838  1.00  0.00     0.080 A  
HETATM   14  C   UNL     1     -11.200  15.401  69.957  1.00  0.00    -0.300 A  
ENDBRANCH   7   8
BRANCH   7  15
HETATM   15  C   UNL     1      -9.824  11.520  67.099  1.00  0.00    -0.191 A  
HETATM   16  C   UNL     1      -8.103  10.106  67.758  1.00  0.00    -0.109 A  
HETATM   17  C   UNL     1     -10.338   9.322  67.935  1.00  0.00    -0.279 A  
HETATM   18  C   UNL     1     -10.769  10.543  67.420  1.00  0.00    -0.334 A  
HETATM   19  N   UNL     1      -8.489  11.306  67.265  1.00  0.00    -0.140 NA 
HETATM   20  C   UNL     1      -8.981   9.097  68.111  1.00  0.00    -0.129 A  
ENDBRANCH   7  15
ENDBRANCH   6   7
ENDBRANCH   5   6
ENDBRANCH   4   5
ENDBRANCH   2   4
TORSDOF 6
ENDMDL
MODEL      152
REMARK 921   NORMALIZED FREE ENERGY PREDICTED BY IDOCK:   -3.45 KCAL/MOL
REMARK 922        TOTAL FREE ENERGY PREDICTED BY IDOCK:   -5.31 KCAL/MOL
REMARK 923 INTER-LIGAND FREE ENERGY PREDICTED BY IDOCK:   -5.63 KCAL/MOL
REMARK 924 INTRA-LIGAND FREE ENERGY PREDICTED BY IDOCK:    0.32 KCAL/MOL
REMARK 927      BINDING AFFINITY PREDICTED BY RF-SCORE:    0.00 PKD
ROOT
HETATM    1  C   UNL     1     -14.081  14.271  72.263  1.00  0.00    -0.526 C  
HETATM    2  N   UNL     1     -13.248  15.401  71.843  1.00  0.00    -0.411 NA 
HETATM    3  C   UNL     1     -12.702  16.071  73.029  1.00  0.00    -0.493 C  
ENDROOT
BRANCH   2   4
HETATM    4  C   UNL     1     -12.192  14.929  70.924  1.00  0.00    -0.326 C  
BRANCH   4   5
HETATM    5  C   UNL     1     -12.325  13.450  70.537  1.00  0.00    -0.329 C  
BRANCH   5   6
HETATM    6  O   UNL     1     -12.308  13.293  69.110  1.00  0.00    -0.197 OA 
BRANCH   6   7
HETATM    7  C   UNL     1     -10.960  13.126  68.597  1.00  0.00    -0.265 C  
BRANCH   7   8
HETATM    8  C   UNL     1     -11.023  12.588  67.169  1.00  0.00    -0.302 A  
HETATM    9  C   UNL     1     -12.104  12.945  66.343  1.00  0.00    -0.400 A  
HETATM   10  C   UNL     1      -9.937  11.899  66.602  1.00  0.00    -0.220 A  
HETATM   11 CL   UNL     1     -10.883  11.773  62.724  1.00  0.00     0.136 Cl 
HETATM   12  C   UNL     1     -12.067  12.678  64.972  1.00  0.00    -0.497 A  
HETATM   13  C   UNL     1      -9.908  11.621  65.235  1.00  0.00    -0.279 A  
HETATM   14  C   UNL     1     -10.963  12.030  64.423  1.00  0.00    -0.333 A  
ENDBRANCH   7   8
BRANCH   7  15
HETATM   15  C   UNL     1     -10.155  14.422  68.721  1.00  0.00    -0.234 A  
HETATM   16  C   UNL     1      -8.131  15.447  69.218  1.00  0.00    -0.246 A  
HETATM   17  C   UNL     1      -9.933  16.807  68.479  1.00  0.00    -0.271 A  
HETATM   18  C   UNL     1     -10.717  15.658  68.393  1.00  0.00    -0.271 A  
HETATM   19  N   UNL     1      -8.862  14.312  69.136  1.00  0.00     0.070 NA 
HETATM   20  C   UNL     1      -8.615  16.703  68.897  1.00  0.00    -0.235 A  
ENDBRANCH   7  15
ENDBRANCH   6   7
ENDBRANCH   5   6
ENDBRANCH   4   5
ENDBRANCH   2   4
TORSDOF 6
ENDMDL
MODEL      153
REMARK 921   NORMALIZED FREE ENERGY PREDICTED BY IDOCK:   -3.43 KCAL/MOL
REMARK 922        TOTAL FREE ENERGY PREDICTED BY IDOCK:   -5.28 KCAL/MOL
REMARK 923 INTER-LIGAND FREE ENERGY PREDICTED BY IDOCK:   -4.76 KCAL/MOL
REMARK 924 INTRA-LIGAND FREE ENERGY PREDICTED BY IDOCK:   -0.52 KCAL/MOL
REMARK 927      BINDING AFFINITY PREDICTED BY RF-SCORE:    0.00 PKD
ROOT
HETATM    1  C   UNL     1      -6.782   6.153  72.299  1.00  0.00    -0.068 C  
HETATM    2  N   UNL     1      -7.327   7.503  72.129  1.00  0.00    -0.067 NA 
HETATM    3  C   UNL     1      -6.439   8.281  71.260  1.00  0.00    -0.046 C  
ENDROOT
BRANCH   2   4
HETATM    4  C   UNL     1      -8.706   7.422  71.603  1.00  0.00    -0.116 C  
BRANCH   4   5
HETATM    5  C   UNL     1      -9.443   8.767  71.594  1.00  0.00    -0.288 C  
BRANCH   5   6
HETATM    6  O   UNL     1      -9.353   9.390  70.302  1.00  0.00    -0.215 OA 
BRANCH   6   7
HETATM    7  C   UNL     1     -10.476   9.039  69.450  1.00  0.00    -0.222 C  
BRANCH   7   8
HETATM    8  C   UNL     1     -11.077  10.311  68.854  1.00  0.00    -0.278 A  
HETATM    9  C   UNL     1     -11.469  11.357  69.709  1.00  0.00    -0.376 A  
HETATM   10  C   UNL     1     -11.075  10.535  67.466  1.00  0.00    -0.358 A  
HETATM   11 CL   UNL     1     -12.051  14.398  67.184  1.00  0.00    -0.425 Cl 
HETATM   12  C   UNL     1     -11.785  12.615  69.191  1.00  0.00    -0.375 A  
HETATM   13  C   UNL     1     -11.405  11.789  66.950  1.00  0.00    -0.386 A  
HETATM   14  C   UNL     1     -11.739  12.828  67.816  1.00  0.00    -0.359 A  
ENDBRANCH   7   8
BRANCH   7  15
HETATM   15  C   UNL     1     -10.071   8.008  68.394  1.00  0.00    -0.195 A  
HETATM   16  C   UNL     1      -8.397   7.095  67.068  1.00  0.00    -0.118 A  
HETATM   17  C   UNL     1     -10.564   6.127  66.975  1.00  0.00    -0.384 A  
HETATM   18  C   UNL     1     -10.988   7.075  67.904  1.00  0.00    -0.202 A  
HETATM   19  N   UNL     1      -8.774   8.024  67.978  1.00  0.00    -0.125 NA 
HETATM   20  C   UNL     1      -9.244   6.132  66.549  1.00  0.00    -0.161 A  
ENDBRANCH   7  15
ENDBRANCH   6   7
ENDBRANCH   5   6
ENDBRANCH   4   5
ENDBRANCH   2   4
TORSDOF 6
ENDMDL
MODEL      154
REMARK 921   NORMALIZED FREE ENERGY PREDICTED BY IDOCK:   -3.42 KCAL/MOL
REMARK 922        TOTAL FREE ENERGY PREDICTED BY IDOCK:   -5.27 KCAL/MOL
REMARK 923 INTER-LIGAND FREE ENERGY PREDICTED BY IDOCK:   -4.59 KCAL/MOL
REMARK 924 INTRA-LIGAND FREE ENERGY PREDICTED BY IDOCK:   -0.68 KCAL/MOL
REMARK 927      BINDING AFFINITY PREDICTED BY RF-SCORE:    0.00 PKD
ROOT
HETATM    1  C   UNL     1      -5.672  12.947  68.574  1.00  0.00    -0.067 C  
HETATM    2  N   UNL     1      -6.713  13.472  69.463  1.00  0.00    -0.060 NA 
HETATM    3  C   UNL     1      -6.128  14.476  70.358  1.00  0.00    -0.176 C  
ENDROOT
BRANCH   2   4
HETATM    4  C   UNL     1      -7.830  14.011  68.660  1.00  0.00    -0.130 C  
BRANCH   4   5
HETATM    5  C   UNL     1      -8.085  13.239  67.358  1.00  0.00    -0.175 C  
BRANCH   5   6
HETATM    6  O   UNL     1      -9.300  12.478  67.446  1.00  0.00    -0.177 OA 
BRANCH   6   7
HETATM    7  C   UNL     1      -9.398  11.486  66.390  1.00  0.00    -0.209 C  
BRANCH   7   8
HETATM    8  C   UNL     1      -9.474  10.092  67.010  1.00  0.00    -0.197 A  
HETATM    9  C   UNL     1      -8.303   9.320  67.122  1.00  0.00    -0.124 A  
HETATM   10  C   UNL     1     -10.647   9.637  67.637  1.00  0.00    -0.334 A  
HETATM   11 CL   UNL     1      -9.417   6.362  69.566  1.00  0.00    -0.148 Cl 
HETATM   12  C   UNL     1      -8.291   8.159  67.899  1.00  0.00    -0.129 A  
HETATM   13  C   UNL     1     -10.636   8.469  68.400  1.00  0.00    -0.161 A  
HETATM   14  C   UNL     1      -9.453   7.747  68.545  1.00  0.00    -0.148 A  
ENDBRANCH   7   8
BRANCH   7  15
HETATM   15  C   UNL     1     -10.563  11.793  65.446  1.00  0.00    -0.277 A  
HETATM   16  C   UNL     1     -12.585  12.881  65.097  1.00  0.00    -0.471 A  
HETATM   17  C   UNL     1     -11.637  11.656  63.296  1.00  0.00    -0.246 A  
HETATM   18  C   UNL     1     -10.577  11.315  64.134  1.00  0.00    -0.437 A  
HETATM   19  N   UNL     1     -11.565  12.576  65.934  1.00  0.00    -0.384 NA 
HETATM   20  C   UNL     1     -12.660  12.456  63.783  1.00  0.00    -0.541 A  
ENDBRANCH   7  15
ENDBRANCH   6   7
ENDBRANCH   5   6
ENDBRANCH   4   5
ENDBRANCH   2   4
TORSDOF 6
ENDMDL
MODEL      155
REMARK 921   NORMALIZED FREE ENERGY PREDICTED BY IDOCK:   -3.39 KCAL/MOL
REMARK 922        TOTAL FREE ENERGY PREDICTED BY IDOCK:   -5.23 KCAL/MOL
REMARK 923 INTER-LIGAND FREE ENERGY PREDICTED BY IDOCK:   -4.67 KCAL/MOL
REMARK 924 INTRA-LIGAND FREE ENERGY PREDICTED BY IDOCK:   -0.56 KCAL/MOL
REMARK 927      BINDING AFFINITY PREDICTED BY RF-SCORE:    0.00 PKD
ROOT
HETATM    1  C   UNL     1      -8.229   5.287  65.661  1.00  0.00    -0.121 C  
HETATM    2  N   UNL     1      -8.405   4.838  67.045  1.00  0.00    -0.106 NA 
HETATM    3  C   UNL     1      -7.092   4.566  67.639  1.00  0.00    -0.065 C  
ENDROOT
BRANCH   2   4
HETATM    4  C   UNL     1      -9.172   5.846  67.804  1.00  0.00    -0.108 C  
BRANCH   4   5
HETATM    5  C   UNL     1      -9.786   6.945  66.926  1.00  0.00    -0.171 C  
BRANCH   5   6
HETATM    6  O   UNL     1     -10.782   7.682  67.653  1.00  0.00    -0.232 OA 
BRANCH   6   7
HETATM    7  C   UNL     1     -10.189   8.601  68.608  1.00  0.00    -0.194 C  
BRANCH   7   8
HETATM    8  C   UNL     1      -9.972   9.958  67.939  1.00  0.00    -0.190 A  
HETATM    9  C   UNL     1     -10.880  10.399  66.959  1.00  0.00    -0.269 A  
HETATM   10  C   UNL     1      -8.995  10.853  68.409  1.00  0.00    -0.154 A  
HETATM   11 CL   UNL     1      -9.923  14.254  66.530  1.00  0.00    -0.276 Cl 
HETATM   12  C   UNL     1     -10.854  11.722  66.513  1.00  0.00    -0.323 A  
HETATM   13  C   UNL     1      -8.962  12.170  67.951  1.00  0.00    -0.184 A  
HETATM   14  C   UNL     1      -9.904  12.604  67.021  1.00  0.00    -0.225 A  
ENDBRANCH   7   8
BRANCH   7  15
HETATM   15  C   UNL     1     -11.021   8.685  69.889  1.00  0.00    -0.168 A  
HETATM   16  C   UNL     1     -11.916   7.595  71.735  1.00  0.00    -0.299 A  
HETATM   17  C   UNL     1     -12.253   9.938  71.535  1.00  0.00    -0.505 A  
HETATM   18  C   UNL     1     -11.538   9.902  70.339  1.00  0.00    -0.356 A  
HETATM   19  N   UNL     1     -11.209   7.528  70.583  1.00  0.00    -0.266 NA 
HETATM   20  C   UNL     1     -12.446   8.765  72.249  1.00  0.00    -0.455 A  
ENDBRANCH   7  15
ENDBRANCH   6   7
ENDBRANCH   5   6
ENDBRANCH   4   5
ENDBRANCH   2   4
TORSDOF 6
ENDMDL
MODEL      156
REMARK 921   NORMALIZED FREE ENERGY PREDICTED BY IDOCK:   -3.37 KCAL/MOL
REMARK 922        TOTAL FREE ENERGY PREDICTED BY IDOCK:   -5.20 KCAL/MOL
REMARK 923 INTER-LIGAND FREE ENERGY PREDICTED BY IDOCK:   -4.41 KCAL/MOL
REMARK 924 INTRA-LIGAND FREE ENERGY PREDICTED BY IDOCK:   -0.79 KCAL/MOL
REMARK 927      BINDING AFFINITY PREDICTED BY RF-SCORE:    0.00 PKD
ROOT
HETATM    1  C   UNL     1      -5.178  13.210  70.640  1.00  0.00    -0.135 C  
HETATM    2  N   UNL     1      -5.863  12.635  69.479  1.00  0.00    -0.096 NA 
HETATM    3  C   UNL     1      -6.417  11.326  69.839  1.00  0.00    -0.132 C  
ENDROOT
BRANCH   2   4
HETATM    4  C   UNL     1      -6.897  13.574  68.994  1.00  0.00    -0.107 C  
BRANCH   4   5
HETATM    5  C   UNL     1      -6.468  15.046  69.046  1.00  0.00    -0.102 C  
BRANCH   5   6
HETATM    6  O   UNL     1      -6.676  15.683  67.776  1.00  0.00    -0.129 OA 
BRANCH   6   7
HETATM    7  C   UNL     1      -7.718  16.692  67.838  1.00  0.00    -0.161 C  
BRANCH   7   8
HETATM    8  C   UNL     1      -7.303  17.902  67.002  1.00  0.00    -0.218 A  
HETATM    9  C   UNL     1      -6.127  17.841  66.232  1.00  0.00    -0.255 A  
HETATM   10  C   UNL     1      -8.162  19.003  66.840  1.00  0.00    -0.286 A  
HETATM   11 CL   UNL     1      -6.441  21.048  63.871  1.00  0.00    -0.316 Cl 
HETATM   12  C   UNL     1      -5.854  18.821  65.277  1.00  0.00    -0.283 A  
HETATM   13  C   UNL     1      -7.879  19.990  65.895  1.00  0.00    -0.277 A  
HETATM   14  C   UNL     1      -6.738  19.883  65.103  1.00  0.00    -0.272 A  
ENDBRANCH   7   8
BRANCH   7  15
HETATM   15  C   UNL     1      -9.076  16.114  67.432  1.00  0.00    -0.195 A  
HETATM   16  C   UNL     1     -11.261  15.604  68.031  1.00  0.00    -0.339 A  
HETATM   17  C   UNL     1     -10.578  15.188  65.794  1.00  0.00    -0.364 A  
HETATM   18  C   UNL     1      -9.313  15.667  66.130  1.00  0.00    -0.382 A  
HETATM   19  N   UNL     1     -10.047  16.083  68.387  1.00  0.00    -0.225 NA 
HETATM   20  C   UNL     1     -11.574  15.157  66.759  1.00  0.00    -0.136 A  
ENDBRANCH   7  15
ENDBRANCH   6   7
ENDBRANCH   5   6
ENDBRANCH   4   5
ENDBRANCH   2   4
TORSDOF 6
ENDMDL
MODEL      157
REMARK 921   NORMALIZED FREE ENERGY PREDICTED BY IDOCK:   -3.37 KCAL/MOL
REMARK 922        TOTAL FREE ENERGY PREDICTED BY IDOCK:   -5.20 KCAL/MOL
REMARK 923 INTER-LIGAND FREE ENERGY PREDICTED BY IDOCK:   -4.60 KCAL/MOL
REMARK 924 INTRA-LIGAND FREE ENERGY PREDICTED BY IDOCK:   -0.60 KCAL/MOL
REMARK 927      BINDING AFFINITY PREDICTED BY RF-SCORE:    0.00 PKD
ROOT
HETATM    1  C   UNL     1      -8.497   9.218  63.072  1.00  0.00    -0.212 C  
HETATM    2  N   UNL     1      -7.234   8.522  63.332  1.00  0.00    -0.093 NA 
HETATM    3  C   UNL     1      -6.127   9.289  62.752  1.00  0.00    -0.093 C  
ENDROOT
BRANCH   2   4
HETATM    4  C   UNL     1      -7.073   8.306  64.785  1.00  0.00    -0.080 C  
BRANCH   4   5
HETATM    5  C   UNL     1      -8.372   7.907  65.498  1.00  0.00    -0.147 C  
BRANCH   5   6
HETATM    6  O   UNL     1      -8.653   8.803  66.586  1.00  0.00    -0.109 OA 
BRANCH   6   7
HETATM    7  C   UNL     1     -10.046   8.747  66.990  1.00  0.00    -0.265 C  
BRANCH   7   8
HETATM    8  C   UNL     1     -10.169   7.927  68.273  1.00  0.00    -0.240 A  
HETATM    9  C   UNL     1     -11.028   6.814  68.303  1.00  0.00    -0.270 A  
HETATM   10  C   UNL     1      -9.307   8.147  69.362  1.00  0.00    -0.155 A  
HETATM   11 CL   UNL     1      -9.969   4.962  71.681  1.00  0.00    -0.244 Cl 
HETATM   12  C   UNL     1     -10.977   5.907  69.364  1.00  0.00    -0.421 A  
HETATM   13  C   UNL     1      -9.268   7.247  70.428  1.00  0.00    -0.158 A  
HETATM   14  C   UNL     1     -10.088   6.121  70.414  1.00  0.00    -0.189 A  
ENDBRANCH   7   8
BRANCH   7  15
HETATM   15  C   UNL     1     -10.647  10.150  67.108  1.00  0.00    -0.246 A  
HETATM   16  C   UNL     1     -11.126  12.183  66.093  1.00  0.00    -0.312 A  
HETATM   17  C   UNL     1     -11.844  11.843  68.331  1.00  0.00    -0.352 A  
HETATM   18  C   UNL     1     -11.273  10.573  68.284  1.00  0.00    -0.354 A  
HETATM   19  N   UNL     1     -10.569  10.952  66.010  1.00  0.00    -0.224 NA 
HETATM   20  C   UNL     1     -11.774  12.665  67.216  1.00  0.00    -0.435 A  
ENDBRANCH   7  15
ENDBRANCH   6   7
ENDBRANCH   5   6
ENDBRANCH   4   5
ENDBRANCH   2   4
TORSDOF 6
ENDMDL
MODEL      158
REMARK 921   NORMALIZED FREE ENERGY PREDICTED BY IDOCK:   -3.33 KCAL/MOL
REMARK 922        TOTAL FREE ENERGY PREDICTED BY IDOCK:   -5.15 KCAL/MOL
REMARK 923 INTER-LIGAND FREE ENERGY PREDICTED BY IDOCK:   -4.76 KCAL/MOL
REMARK 924 INTRA-LIGAND FREE ENERGY PREDICTED BY IDOCK:   -0.39 KCAL/MOL
REMARK 927      BINDING AFFINITY PREDICTED BY RF-SCORE:    0.00 PKD
ROOT
HETATM    1  C   UNL     1      -5.275  14.532  67.866  1.00  0.00    -0.061 C  
HETATM    2  N   UNL     1      -6.089  13.422  67.364  1.00  0.00    -0.334 NA 
HETATM    3  C   UNL     1      -5.211  12.316  66.966  1.00  0.00     0.004 C  
ENDROOT
BRANCH   2   4
HETATM    4  C   UNL     1      -7.075  13.021  68.389  1.00  0.00    -0.103 C  
BRANCH   4   5
HETATM    5  C   UNL     1      -7.306  11.506  68.465  1.00  0.00    -0.104 C  
BRANCH   5   6
HETATM    6  O   UNL     1      -8.525  11.142  67.797  1.00  0.00    -0.120 OA 
BRANCH   6   7
HETATM    7  C   UNL     1      -9.635  11.991  68.192  1.00  0.00    -0.200 C  
BRANCH   7   8
HETATM    8  C   UNL     1     -10.384  12.459  66.945  1.00  0.00    -0.240 A  
HETATM    9  C   UNL     1      -9.754  12.379  65.690  1.00  0.00    -0.183 A  
HETATM   10  C   UNL     1     -11.748  12.794  66.998  1.00  0.00    -0.440 A  
HETATM   11 CL   UNL     1     -12.769  12.999  63.142  1.00  0.00    -0.078 Cl 
HETATM   12  C   UNL     1     -10.489  12.562  64.516  1.00  0.00    -0.366 A  
HETATM   13  C   UNL     1     -12.476  12.991  65.825  1.00  0.00    -0.394 A  
HETATM   14  C   UNL     1     -11.848  12.853  64.589  1.00  0.00    -0.372 A  
ENDBRANCH   7   8
BRANCH   7  15
HETATM   15  C   UNL     1     -10.536  11.289  69.211  1.00  0.00    -0.148 A  
HETATM   16  C   UNL     1     -11.111   9.328  70.314  1.00  0.00    -0.251 A  
HETATM   17  C   UNL     1     -12.261  11.324  70.889  1.00  0.00    -0.460 A  
HETATM   18  C   UNL     1     -11.493  11.997  69.941  1.00  0.00    -0.239 A  
HETATM   19  N   UNL     1     -10.342   9.953  69.393  1.00  0.00    -0.206 NA 
HETATM   20  C   UNL     1     -12.068   9.965  71.084  1.00  0.00    -0.466 A  
ENDBRANCH   7  15
ENDBRANCH   6   7
ENDBRANCH   5   6
ENDBRANCH   4   5
ENDBRANCH   2   4
TORSDOF 6
ENDMDL
MODEL      159
REMARK 921   NORMALIZED FREE ENERGY PREDICTED BY IDOCK:   -3.33 KCAL/MOL
REMARK 922        TOTAL FREE ENERGY PREDICTED BY IDOCK:   -5.14 KCAL/MOL
REMARK 923 INTER-LIGAND FREE ENERGY PREDICTED BY IDOCK:   -4.79 KCAL/MOL
REMARK 924 INTRA-LIGAND FREE ENERGY PREDICTED BY IDOCK:   -0.36 KCAL/MOL
REMARK 927      BINDING AFFINITY PREDICTED BY RF-SCORE:    0.00 PKD
ROOT
HETATM    1  C   UNL     1     -11.331   6.300  70.611  1.00  0.00    -0.343 C  
HETATM    2  N   UNL     1     -10.391   7.389  70.329  1.00  0.00    -0.208 NA 
HETATM    3  C   UNL     1      -9.423   6.946  69.320  1.00  0.00    -0.147 C  
ENDROOT
BRANCH   2   4
HETATM    4  C   UNL     1     -11.134   8.595  69.910  1.00  0.00    -0.116 C  
BRANCH   4   5
HETATM    5  C   UNL     1     -10.711   9.870  70.653  1.00  0.00    -0.303 C  
BRANCH   5   6
HETATM    6  O   UNL     1     -10.928  11.032  69.836  1.00  0.00    -0.239 OA 
BRANCH   6   7
HETATM    7  C   UNL     1     -10.247  10.932  68.558  1.00  0.00    -0.185 C  
BRANCH   7   8
HETATM    8  C   UNL     1     -11.015  11.739  67.511  1.00  0.00    -0.310 A  
HETATM    9  C   UNL     1     -11.652  12.934  67.889  1.00  0.00    -0.391 A  
HETATM   10  C   UNL     1     -10.943  11.412  66.145  1.00  0.00    -0.294 A  
HETATM   11 CL   UNL     1     -12.562  14.607  64.377  1.00  0.00    -0.320 Cl 
HETATM   12  C   UNL     1     -12.144  13.812  66.921  1.00  0.00    -0.454 A  
HETATM   13  C   UNL     1     -11.448  12.284  65.180  1.00  0.00    -0.390 A  
HETATM   14  C   UNL     1     -12.027  13.489  65.571  1.00  0.00    -0.390 A  
ENDBRANCH   7   8
BRANCH   7  15
HETATM   15  C   UNL     1      -8.777  11.341  68.678  1.00  0.00    -0.136 A  
HETATM   16  C   UNL     1      -7.164  12.995  68.448  1.00  0.00    -0.110 A  
HETATM   17  C   UNL     1      -6.498  10.882  69.303  1.00  0.00    -0.071 A  
HETATM   18  C   UNL     1      -7.817  10.452  69.169  1.00  0.00    -0.134 A  
HETATM   19  N   UNL     1      -8.456  12.613  68.314  1.00  0.00    -0.172 NA 
HETATM   20  C   UNL     1      -6.162  12.177  68.938  1.00  0.00    -0.077 A  
ENDBRANCH   7  15
ENDBRANCH   6   7
ENDBRANCH   5   6
ENDBRANCH   4   5
ENDBRANCH   2   4
TORSDOF 6
ENDMDL
MODEL      160
REMARK 921   NORMALIZED FREE ENERGY PREDICTED BY IDOCK:   -3.30 KCAL/MOL
REMARK 922        TOTAL FREE ENERGY PREDICTED BY IDOCK:   -5.11 KCAL/MOL
REMARK 923 INTER-LIGAND FREE ENERGY PREDICTED BY IDOCK:   -5.29 KCAL/MOL
REMARK 924 INTRA-LIGAND FREE ENERGY PREDICTED BY IDOCK:    0.18 KCAL/MOL
REMARK 927      BINDING AFFINITY PREDICTED BY RF-SCORE:    0.00 PKD
ROOT
HETATM    1  C   UNL     1      -8.833   8.808  69.716  1.00  0.00    -0.142 C  
HETATM    2  N   UNL     1      -7.975   9.994  69.780  1.00  0.00    -0.171 NA 
HETATM    3  C   UNL     1      -6.735   9.659  70.490  1.00  0.00    -0.119 C  
ENDROOT
BRANCH   2   4
HETATM    4  C   UNL     1      -7.725  10.505  68.417  1.00  0.00    -0.104 C  
BRANCH   4   5
HETATM    5  C   UNL     1      -8.467  11.812  68.102  1.00  0.00    -0.158 C  
BRANCH   5   6
HETATM    6  O   UNL     1      -8.909  11.830  66.735  1.00  0.00    -0.180 OA 
BRANCH   6   7
HETATM    7  C   UNL     1     -10.152  12.564  66.577  1.00  0.00    -0.238 C  
BRANCH   7   8
HETATM    8  C   UNL     1     -11.054  12.300  67.782  1.00  0.00    -0.304 A  
HETATM    9  C   UNL     1     -11.505  10.993  68.035  1.00  0.00    -0.365 A  
HETATM   10  C   UNL     1     -11.290  13.297  68.745  1.00  0.00    -0.331 A  
HETATM   11 CL   UNL     1     -12.986  11.264  71.736  1.00  0.00    -0.559 Cl 
HETATM   12  C   UNL     1     -12.117  10.677  69.250  1.00  0.00    -0.206 A  
HETATM   13  C   UNL     1     -11.914  12.982  69.952  1.00  0.00    -0.381 A  
HETATM   14  C   UNL     1     -12.305  11.670  70.208  1.00  0.00    -0.258 A  
ENDBRANCH   7   8
BRANCH   7  15
HETATM   15  C   UNL     1      -9.891  14.051  66.329  1.00  0.00    -0.305 A  
HETATM   16  C   UNL     1      -8.443  15.857  66.513  1.00  0.00    -0.313 A  
HETATM   17  C   UNL     1     -10.528  16.190  65.426  1.00  0.00    -0.396 A  
HETATM   18  C   UNL     1     -10.827  14.850  65.668  1.00  0.00    -0.347 A  
HETATM   19  N   UNL     1      -8.698  14.551  66.756  1.00  0.00    -0.218 NA 
HETATM   20  C   UNL     1      -9.314  16.706  65.853  1.00  0.00    -0.192 A  
ENDBRANCH   7  15
ENDBRANCH   6   7
ENDBRANCH   5   6
ENDBRANCH   4   5
ENDBRANCH   2   4
TORSDOF 6
ENDMDL
MODEL      161
REMARK 921   NORMALIZED FREE ENERGY PREDICTED BY IDOCK:   -3.27 KCAL/MOL
REMARK 922        TOTAL FREE ENERGY PREDICTED BY IDOCK:   -5.07 KCAL/MOL
REMARK 923 INTER-LIGAND FREE ENERGY PREDICTED BY IDOCK:   -4.34 KCAL/MOL
REMARK 924 INTRA-LIGAND FREE ENERGY PREDICTED BY IDOCK:   -0.73 KCAL/MOL
REMARK 927      BINDING AFFINITY PREDICTED BY RF-SCORE:    0.00 PKD
ROOT
HETATM    1  C   UNL     1      -7.545   5.584  66.051  1.00  0.00    -0.087 C  
HETATM    2  N   UNL     1      -8.847   6.147  65.684  1.00  0.00    -0.131 NA 
HETATM    3  C   UNL     1      -9.911   5.386  66.346  1.00  0.00    -0.191 C  
ENDROOT
BRANCH   2   4
HETATM    4  C   UNL     1      -8.883   7.585  66.023  1.00  0.00    -0.150 C  
BRANCH   4   5
HETATM    5  C   UNL     1      -7.758   8.024  66.970  1.00  0.00    -0.100 C  
BRANCH   5   6
HETATM    6  O   UNL     1      -8.196   9.095  67.821  1.00  0.00    -0.108 OA 
BRANCH   6   7
HETATM    7  C   UNL     1      -9.617   9.357  67.677  1.00  0.00    -0.134 C  
BRANCH   7   8
HETATM    8  C   UNL     1     -10.338   8.965  68.965  1.00  0.00    -0.226 A  
HETATM    9  C   UNL     1     -10.641   7.613  69.205  1.00  0.00    -0.195 A  
HETATM   10  C   UNL     1     -10.540   9.898  69.998  1.00  0.00    -0.335 A  
HETATM   11 CL   UNL     1     -11.675   7.603  73.064  1.00  0.00    -0.210 Cl 
HETATM   12  C   UNL     1     -11.069   7.195  70.467  1.00  0.00    -0.299 A  
HETATM   13  C   UNL     1     -10.982   9.480  71.254  1.00  0.00    -0.440 A  
HETATM   14  C   UNL     1     -11.224   8.128  71.488  1.00  0.00    -0.259 A  
ENDBRANCH   7   8
BRANCH   7  15
HETATM   15  C   UNL     1      -9.874  10.806  67.255  1.00  0.00    -0.179 A  
HETATM   16  C   UNL     1      -9.073  12.977  67.063  1.00  0.00    -0.230 A  
HETATM   17  C   UNL     1     -11.253  12.504  66.248  1.00  0.00    -0.359 A  
HETATM   18  C   UNL     1     -11.079  11.182  66.656  1.00  0.00    -0.255 A  
HETATM   19  N   UNL     1      -8.868  11.700  67.462  1.00  0.00    -0.154 NA 
HETATM   20  C   UNL     1     -10.232  13.420  66.452  1.00  0.00    -0.293 A  
ENDBRANCH   7  15
ENDBRANCH   6   7
ENDBRANCH   5   6
ENDBRANCH   4   5
ENDBRANCH   2   4
TORSDOF 6
ENDMDL
MODEL      162
REMARK 921   NORMALIZED FREE ENERGY PREDICTED BY IDOCK:   -3.26 KCAL/MOL
REMARK 922        TOTAL FREE ENERGY PREDICTED BY IDOCK:   -5.06 KCAL/MOL
REMARK 923 INTER-LIGAND FREE ENERGY PREDICTED BY IDOCK:   -4.35 KCAL/MOL
REMARK 924 INTRA-LIGAND FREE ENERGY PREDICTED BY IDOCK:   -0.70 KCAL/MOL
REMARK 927      BINDING AFFINITY PREDICTED BY RF-SCORE:    0.00 PKD
ROOT
HETATM    1  C   UNL     1      -6.636   6.818  71.160  1.00  0.00    -0.053 C  
HETATM    2  N   UNL     1      -7.227   8.113  71.511  1.00  0.00    -0.071 NA 
HETATM    3  C   UNL     1      -6.204   9.159  71.408  1.00  0.00    -0.078 C  
ENDROOT
BRANCH   2   4
HETATM    4  C   UNL     1      -8.397   8.379  70.648  1.00  0.00    -0.125 C  
BRANCH   4   5
HETATM    5  C   UNL     1      -8.237   9.617  69.756  1.00  0.00    -0.161 C  
BRANCH   5   6
HETATM    6  O   UNL     1      -9.431   9.853  68.992  1.00  0.00    -0.166 OA 
BRANCH   6   7
HETATM    7  C   UNL     1      -9.188   9.770  67.564  1.00  0.00    -0.130 C  
BRANCH   7   8
HETATM    8  C   UNL     1      -9.352   8.321  67.105  1.00  0.00    -0.189 A  
HETATM    9  C   UNL     1      -8.211   7.560  66.797  1.00  0.00    -0.124 A  
HETATM   10  C   UNL     1     -10.600   7.677  67.163  1.00  0.00    -0.410 A  
HETATM   11 CL   UNL     1      -9.654   3.841  66.578  1.00  0.00    -0.211 Cl 
HETATM   12  C   UNL     1      -8.307   6.178  66.618  1.00  0.00    -0.111 A  
HETATM   13  C   UNL     1     -10.697   6.299  66.969  1.00  0.00    -0.435 A  
HETATM   14  C   UNL     1      -9.547   5.553  66.719  1.00  0.00    -0.146 A  
ENDBRANCH   7   8
BRANCH   7  15
HETATM   15  C   UNL     1     -10.071  10.753  66.792  1.00  0.00    -0.222 A  
HETATM   16  C   UNL     1     -10.690  11.662  64.746  1.00  0.00    -0.309 A  
HETATM   17  C   UNL     1     -11.850  12.372  66.693  1.00  0.00    -0.394 A  
HETATM   18  C   UNL     1     -11.038  11.522  67.442  1.00  0.00    -0.339 A  
HETATM   19  N   UNL     1      -9.892  10.820  65.443  1.00  0.00    -0.243 NA 
HETATM   20  C   UNL     1     -11.677  12.444  65.319  1.00  0.00    -0.437 A  
ENDBRANCH   7  15
ENDBRANCH   6   7
ENDBRANCH   5   6
ENDBRANCH   4   5
ENDBRANCH   2   4
TORSDOF 6
ENDMDL
MODEL      163
REMARK 921   NORMALIZED FREE ENERGY PREDICTED BY IDOCK:   -3.22 KCAL/MOL
REMARK 922        TOTAL FREE ENERGY PREDICTED BY IDOCK:   -4.99 KCAL/MOL
REMARK 923 INTER-LIGAND FREE ENERGY PREDICTED BY IDOCK:   -4.10 KCAL/MOL
REMARK 924 INTRA-LIGAND FREE ENERGY PREDICTED BY IDOCK:   -0.89 KCAL/MOL
REMARK 927      BINDING AFFINITY PREDICTED BY RF-SCORE:    0.00 PKD
ROOT
HETATM    1  C   UNL     1      -8.785   9.986  66.631  1.00  0.00    -0.129 C  
HETATM    2  N   UNL     1      -8.785  10.333  68.056  1.00  0.00    -0.122 NA 
HETATM    3  C   UNL     1     -10.168  10.399  68.540  1.00  0.00    -0.173 C  
ENDROOT
BRANCH   2   4
HETATM    4  C   UNL     1      -7.967   9.359  68.807  1.00  0.00    -0.092 C  
BRANCH   4   5
HETATM    5  C   UNL     1      -8.574   8.955  70.158  1.00  0.00    -0.155 C  
BRANCH   5   6
HETATM    6  O   UNL     1      -8.580   7.527  70.308  1.00  0.00    -0.140 OA 
BRANCH   6   7
HETATM    7  C   UNL     1      -9.928   6.992  70.370  1.00  0.00    -0.179 C  
BRANCH   7   8
HETATM    8  C   UNL     1     -10.216   6.192  69.101  1.00  0.00    -0.242 A  
HETATM    9  C   UNL     1     -10.858   6.820  68.018  1.00  0.00    -0.306 A  
HETATM   10  C   UNL     1      -9.690   4.901  68.920  1.00  0.00    -0.242 A  
HETATM   11 CL   UNL     1     -10.344   4.204  65.042  1.00  0.00    -0.243 Cl 
HETATM   12  C   UNL     1     -10.911   6.198  66.769  1.00  0.00    -0.360 A  
HETATM   13  C   UNL     1      -9.758   4.275  67.675  1.00  0.00    -0.186 A  
HETATM   14  C   UNL     1     -10.349   4.936  66.600  1.00  0.00    -0.242 A  
ENDBRANCH   7   8
BRANCH   7  15
HETATM   15  C   UNL     1     -10.148   6.190  71.655  1.00  0.00    -0.187 A  
HETATM   16  C   UNL     1     -11.634   5.108  73.075  1.00  0.00    -0.223 A  
HETATM   17  C   UNL     1      -9.318   5.036  73.598  1.00  0.00    -0.129 A  
HETATM   18  C   UNL     1      -9.074   5.804  72.460  1.00  0.00    -0.136 A  
HETATM   19  N   UNL     1     -11.431   5.846  71.958  1.00  0.00    -0.278 NA 
HETATM   20  C   UNL     1     -10.620   4.678  73.912  1.00  0.00    -0.337 A  
ENDBRANCH   7  15
ENDBRANCH   6   7
ENDBRANCH   5   6
ENDBRANCH   4   5
ENDBRANCH   2   4
TORSDOF 6
ENDMDL
MODEL      164
REMARK 921   NORMALIZED FREE ENERGY PREDICTED BY IDOCK:   -3.20 KCAL/MOL
REMARK 922        TOTAL FREE ENERGY PREDICTED BY IDOCK:   -4.97 KCAL/MOL
REMARK 923 INTER-LIGAND FREE ENERGY PREDICTED BY IDOCK:   -4.19 KCAL/MOL
REMARK 924 INTRA-LIGAND FREE ENERGY PREDICTED BY IDOCK:   -0.79 KCAL/MOL
REMARK 927      BINDING AFFINITY PREDICTED BY RF-SCORE:    0.00 PKD
ROOT
HETATM    1  C   UNL     1     -10.092   9.751  66.519  1.00  0.00    -0.239 C  
HETATM    2  N   UNL     1      -9.644  10.710  65.505  1.00  0.00    -0.205 NA 
HETATM    3  C   UNL     1     -10.802  11.447  64.988  1.00  0.00    -0.246 C  
ENDROOT
BRANCH   2   4
HETATM    4  C   UNL     1      -8.616  11.602  66.081  1.00  0.00    -0.053 C  
BRANCH   4   5
HETATM    5  C   UNL     1      -8.135  11.172  67.473  1.00  0.00    -0.119 C  
BRANCH   5   6
HETATM    6  O   UNL     1      -8.543  12.123  68.470  1.00  0.00    -0.153 OA 
BRANCH   6   7
HETATM    7  C   UNL     1      -8.858  13.416  67.890  1.00  0.00    -0.194 C  
BRANCH   7   8
HETATM    8  C   UNL     1     -10.160  13.939  68.495  1.00  0.00    -0.234 A  
HETATM    9  C   UNL     1     -11.193  13.034  68.800  1.00  0.00    -0.325 A  
HETATM   10  C   UNL     1     -10.279  15.272  68.925  1.00  0.00    -0.232 A  
HETATM   11 CL   UNL     1     -13.666  15.229  71.043  1.00  0.00    -0.490 Cl 
HETATM   12  C   UNL     1     -12.284  13.438  69.574  1.00  0.00    -0.260 A  
HETATM   13  C   UNL     1     -11.377  15.677  69.685  1.00  0.00    -0.331 A  
HETATM   14  C   UNL     1     -12.363  14.753  70.024  1.00  0.00    -0.316 A  
ENDBRANCH   7   8
BRANCH   7  15
HETATM   15  C   UNL     1      -7.688  14.391  68.038  1.00  0.00    -0.138 A  
HETATM   16  C   UNL     1      -6.426  16.112  67.120  1.00  0.00    -0.149 A  
HETATM   17  C   UNL     1      -5.903  15.378  69.318  1.00  0.00    -0.104 A  
HETATM   18  C   UNL     1      -6.932  14.443  69.211  1.00  0.00    -0.129 A  
HETATM   19  N   UNL     1      -7.438  15.223  66.988  1.00  0.00    -0.163 NA 
HETATM   20  C   UNL     1      -5.644  16.231  68.256  1.00  0.00    -0.108 A  
ENDBRANCH   7  15
ENDBRANCH   6   7
ENDBRANCH   5   6
ENDBRANCH   4   5
ENDBRANCH   2   4
TORSDOF 6
ENDMDL
MODEL      165
REMARK 921   NORMALIZED FREE ENERGY PREDICTED BY IDOCK:   -3.18 KCAL/MOL
REMARK 922        TOTAL FREE ENERGY PREDICTED BY IDOCK:   -4.95 KCAL/MOL
REMARK 923 INTER-LIGAND FREE ENERGY PREDICTED BY IDOCK:   -4.09 KCAL/MOL
REMARK 924 INTRA-LIGAND FREE ENERGY PREDICTED BY IDOCK:   -0.86 KCAL/MOL
REMARK 927      BINDING AFFINITY PREDICTED BY RF-SCORE:    0.00 PKD
ROOT
HETATM    1  C   UNL     1      -8.146   5.378  65.590  1.00  0.00    -0.115 C  
HETATM    2  N   UNL     1      -9.294   5.847  66.372  1.00  0.00    -0.155 NA 
HETATM    3  C   UNL     1      -9.129   5.439  67.772  1.00  0.00    -0.108 C  
ENDROOT
BRANCH   2   4
HETATM    4  C   UNL     1      -9.436   7.310  66.222  1.00  0.00    -0.073 C  
BRANCH   4   5
HETATM    5  C   UNL     1      -8.176   8.001  65.683  1.00  0.00    -0.135 C  
BRANCH   5   6
HETATM    6  O   UNL     1      -8.430   9.389  65.416  1.00  0.00    -0.133 OA 
BRANCH   6   7
HETATM    7  C   UNL     1      -9.320   9.978  66.400  1.00  0.00    -0.168 C  
BRANCH   7   8
HETATM    8  C   UNL     1      -8.493  10.603  67.522  1.00  0.00    -0.121 A  
HETATM    9  C   UNL     1      -8.592  10.084  68.826  1.00  0.00    -0.131 A  
HETATM   10  C   UNL     1      -7.500  11.560  67.248  1.00  0.00    -0.139 A  
HETATM   11 CL   UNL     1      -5.501  11.787  70.698  1.00  0.00    -0.145 Cl 
HETATM   12  C   UNL     1      -7.677  10.463  69.810  1.00  0.00    -0.126 A  
HETATM   13  C   UNL     1      -6.596  11.948  68.237  1.00  0.00    -0.054 A  
HETATM   14  C   UNL     1      -6.676  11.382  69.508  1.00  0.00    -0.119 A  
ENDBRANCH   7   8
BRANCH   7  15
HETATM   15  C   UNL     1     -10.297  10.960  65.748  1.00  0.00    -0.241 A  
HETATM   16  C   UNL     1     -11.220  11.825  63.801  1.00  0.00    -0.436 A  
HETATM   17  C   UNL     1     -12.034  12.622  65.885  1.00  0.00    -0.497 A  
HETATM   18  C   UNL     1     -11.129  11.774  66.521  1.00  0.00    -0.364 A  
HETATM   19  N   UNL     1     -10.337  10.983  64.387  1.00  0.00    -0.339 NA 
HETATM   20  C   UNL     1     -12.084  12.648  64.499  1.00  0.00    -0.485 A  
ENDBRANCH   7  15
ENDBRANCH   6   7
ENDBRANCH   5   6
ENDBRANCH   4   5
ENDBRANCH   2   4
TORSDOF 6
ENDMDL
MODEL      166
REMARK 921   NORMALIZED FREE ENERGY PREDICTED BY IDOCK:   -3.17 KCAL/MOL
REMARK 922        TOTAL FREE ENERGY PREDICTED BY IDOCK:   -4.93 KCAL/MOL
REMARK 923 INTER-LIGAND FREE ENERGY PREDICTED BY IDOCK:   -4.94 KCAL/MOL
REMARK 924 INTRA-LIGAND FREE ENERGY PREDICTED BY IDOCK:    0.02 KCAL/MOL
REMARK 927      BINDING AFFINITY PREDICTED BY RF-SCORE:    0.00 PKD
ROOT
HETATM    1  C   UNL     1      -7.882   8.530  63.475  1.00  0.00    -0.151 C  
HETATM    2  N   UNL     1      -6.527   8.198  63.928  1.00  0.00    -0.067 NA 
HETATM    3  C   UNL     1      -5.552   8.975  63.155  1.00  0.00    -0.069 C  
ENDROOT
BRANCH   2   4
HETATM    4  C   UNL     1      -6.415   8.435  65.382  1.00  0.00    -0.055 C  
BRANCH   4   5
HETATM    5  C   UNL     1      -7.767   8.485  66.106  1.00  0.00    -0.093 C  
BRANCH   5   6
HETATM    6  O   UNL     1      -7.942   9.744  66.776  1.00  0.00    -0.105 OA 
BRANCH   6   7
HETATM    7  C   UNL     1      -9.104   9.740  67.645  1.00  0.00    -0.131 C  
BRANCH   7   8
HETATM    8  C   UNL     1     -10.173  10.667  67.067  1.00  0.00    -0.267 A  
HETATM    9  C   UNL     1     -10.957  11.447  67.936  1.00  0.00    -0.295 A  
HETATM   10  C   UNL     1     -10.265  10.896  65.683  1.00  0.00    -0.323 A  
HETATM   11 CL   UNL     1     -12.733  14.029  65.458  1.00  0.00    -0.554 Cl 
HETATM   12  C   UNL     1     -11.759  12.475  67.437  1.00  0.00    -0.432 A  
HETATM   13  C   UNL     1     -11.079  11.914  65.185  1.00  0.00    -0.360 A  
HETATM   14  C   UNL     1     -11.806  12.712  66.066  1.00  0.00    -0.436 A  
ENDBRANCH   7   8
BRANCH   7  15
HETATM   15  C   UNL     1      -9.608   8.316  67.894  1.00  0.00    -0.152 A  
HETATM   16  C   UNL     1      -9.627   6.442  69.265  1.00  0.00    -0.137 A  
HETATM   17  C   UNL     1     -10.973   6.422  67.308  1.00  0.00    -0.474 A  
HETATM   18  C   UNL     1     -10.508   7.703  67.018  1.00  0.00    -0.419 A  
HETATM   19  N   UNL     1      -9.163   7.689  69.018  1.00  0.00    -0.141 NA 
HETATM   20  C   UNL     1     -10.529   5.778  68.452  1.00  0.00    -0.283 A  
ENDBRANCH   7  15
ENDBRANCH   6   7
ENDBRANCH   5   6
ENDBRANCH   4   5
ENDBRANCH   2   4
TORSDOF 6
ENDMDL
MODEL      167
REMARK 921   NORMALIZED FREE ENERGY PREDICTED BY IDOCK:   -3.17 KCAL/MOL
REMARK 922        TOTAL FREE ENERGY PREDICTED BY IDOCK:   -4.93 KCAL/MOL
REMARK 923 INTER-LIGAND FREE ENERGY PREDICTED BY IDOCK:   -4.29 KCAL/MOL
REMARK 924 INTRA-LIGAND FREE ENERGY PREDICTED BY IDOCK:   -0.63 KCAL/MOL
REMARK 927      BINDING AFFINITY PREDICTED BY RF-SCORE:    0.00 PKD
ROOT
HETATM    1  C   UNL     1      -9.603  10.941  62.966  1.00  0.00    -0.358 C  
HETATM    2  N   UNL     1      -9.445  10.167  64.201  1.00  0.00    -0.289 NA 
HETATM    3  C   UNL     1      -8.392   9.162  64.013  1.00  0.00    -0.180 C  
ENDROOT
BRANCH   2   4
HETATM    4  C   UNL     1      -9.163  11.078  65.329  1.00  0.00    -0.207 C  
BRANCH   4   5
HETATM    5  C   UNL     1     -10.001  10.788  66.581  1.00  0.00    -0.206 C  
BRANCH   5   6
HETATM    6  O   UNL     1      -9.635   9.525  67.159  1.00  0.00    -0.150 OA 
BRANCH   6   7
HETATM    7  C   UNL     1      -9.268   9.653  68.558  1.00  0.00    -0.137 C  
BRANCH   7   8
HETATM    8  C   UNL     1     -10.512   9.472  69.427  1.00  0.00    -0.231 A  
HETATM    9  C   UNL     1     -10.875   8.182  69.854  1.00  0.00    -0.215 A  
HETATM   10  C   UNL     1     -11.193  10.579  69.962  1.00  0.00    -0.386 A  
HETATM   11 CL   UNL     1     -13.624   8.915  72.659  1.00  0.00    -0.453 Cl 
HETATM   12  C   UNL     1     -11.848   8.010  70.841  1.00  0.00    -0.236 A  
HETATM   13  C   UNL     1     -12.175  10.404  70.937  1.00  0.00    -0.484 A  
HETATM   14  C   UNL     1     -12.483   9.123  71.387  1.00  0.00    -0.328 A  
ENDBRANCH   7   8
BRANCH   7  15
HETATM   15  C   UNL     1      -8.130   8.698  68.923  1.00  0.00    -0.118 A  
HETATM   16  C   UNL     1      -6.856   6.840  68.359  1.00  0.00    -0.074 A  
HETATM   17  C   UNL     1      -6.308   8.022  70.345  1.00  0.00    -0.036 A  
HETATM   18  C   UNL     1      -7.363   8.892  70.075  1.00  0.00    -0.056 A  
HETATM   19  N   UNL     1      -7.881   7.672  68.063  1.00  0.00    -0.119 NA 
HETATM   20  C   UNL     1      -6.045   6.977  69.472  1.00  0.00    -0.030 A  
ENDBRANCH   7  15
ENDBRANCH   6   7
ENDBRANCH   5   6
ENDBRANCH   4   5
ENDBRANCH   2   4
TORSDOF 6
ENDMDL
MODEL      168
REMARK 921   NORMALIZED FREE ENERGY PREDICTED BY IDOCK:   -3.16 KCAL/MOL
REMARK 922        TOTAL FREE ENERGY PREDICTED BY IDOCK:   -4.91 KCAL/MOL
REMARK 923 INTER-LIGAND FREE ENERGY PREDICTED BY IDOCK:   -4.52 KCAL/MOL
REMARK 924 INTRA-LIGAND FREE ENERGY PREDICTED BY IDOCK:   -0.39 KCAL/MOL
REMARK 927      BINDING AFFINITY PREDICTED BY RF-SCORE:    0.00 PKD
ROOT
HETATM    1  C   UNL     1      -9.008  11.088  62.344  1.00  0.00    -0.297 C  
HETATM    2  N   UNL     1      -9.274  10.008  63.299  1.00  0.00    -0.277 NA 
HETATM    3  C   UNL     1      -8.014   9.342  63.645  1.00  0.00    -0.142 C  
ENDROOT
BRANCH   2   4
HETATM    4  C   UNL     1      -9.972  10.550  64.484  1.00  0.00    -0.345 C  
BRANCH   4   5
HETATM    5  C   UNL     1      -9.026  11.023  65.595  1.00  0.00    -0.199 C  
BRANCH   5   6
HETATM    6  O   UNL     1      -9.220  10.252  66.792  1.00  0.00    -0.154 OA 
BRANCH   6   7
HETATM    7  C   UNL     1      -9.678  11.073  67.898  1.00  0.00    -0.172 C  
BRANCH   7   8
HETATM    8  C   UNL     1     -10.100  10.171  69.058  1.00  0.00    -0.216 A  
HETATM    9  C   UNL     1      -9.190   9.226  69.565  1.00  0.00    -0.168 A  
HETATM   10  C   UNL     1     -11.304  10.389  69.748  1.00  0.00    -0.353 A  
HETATM   11 CL   UNL     1     -10.913   8.075  72.980  1.00  0.00    -0.400 Cl 
HETATM   12  C   UNL     1      -9.449   8.567  70.768  1.00  0.00    -0.213 A  
HETATM   13  C   UNL     1     -11.568   9.719  70.943  1.00  0.00    -0.441 A  
HETATM   14  C   UNL     1     -10.630   8.827  71.458  1.00  0.00    -0.309 A  
ENDBRANCH   7   8
BRANCH   7  15
HETATM   15  C   UNL     1      -8.627  12.113  68.292  1.00  0.00    -0.175 A  
HETATM   16  C   UNL     1      -8.077  14.351  68.581  1.00  0.00    -0.146 A  
HETATM   17  C   UNL     1      -6.453  12.710  69.138  1.00  0.00    -0.106 A  
HETATM   18  C   UNL     1      -7.364  11.729  68.749  1.00  0.00    -0.114 A  
HETATM   19  N   UNL     1      -8.988  13.423  68.204  1.00  0.00    -0.185 NA 
HETATM   20  C   UNL     1      -6.814  14.046  69.056  1.00  0.00    -0.111 A  
ENDBRANCH   7  15
ENDBRANCH   6   7
ENDBRANCH   5   6
ENDBRANCH   4   5
ENDBRANCH   2   4
TORSDOF 6
ENDMDL
MODEL      169
REMARK 921   NORMALIZED FREE ENERGY PREDICTED BY IDOCK:   -3.09 KCAL/MOL
REMARK 922        TOTAL FREE ENERGY PREDICTED BY IDOCK:   -4.83 KCAL/MOL
REMARK 923 INTER-LIGAND FREE ENERGY PREDICTED BY IDOCK:   -4.44 KCAL/MOL
REMARK 924 INTRA-LIGAND FREE ENERGY PREDICTED BY IDOCK:   -0.39 KCAL/MOL
REMARK 927      BINDING AFFINITY PREDICTED BY RF-SCORE:    0.00 PKD
ROOT
HETATM    1  C   UNL     1      -7.277   6.796  64.755  1.00  0.00    -0.082 C  
HETATM    2  N   UNL     1      -6.219   7.806  64.844  1.00  0.00    -0.041 NA 
HETATM    3  C   UNL     1      -5.768   8.160  63.494  1.00  0.00    -0.062 C  
ENDROOT
BRANCH   2   4
HETATM    4  C   UNL     1      -6.708   8.976  65.602  1.00  0.00    -0.072 C  
BRANCH   4   5
HETATM    5  C   UNL     1      -8.238   9.051  65.703  1.00  0.00    -0.119 C  
BRANCH   5   6
HETATM    6  O   UNL     1      -8.661  10.378  66.055  1.00  0.00    -0.141 OA 
BRANCH   6   7
HETATM    7  C   UNL     1     -10.098  10.456  66.249  1.00  0.00    -0.231 C  
BRANCH   7   8
HETATM    8  C   UNL     1     -10.461   9.850  67.603  1.00  0.00    -0.296 A  
HETATM    9  C   UNL     1     -10.731   8.472  67.694  1.00  0.00    -0.189 A  
HETATM   10  C   UNL     1     -10.351  10.597  68.788  1.00  0.00    -0.210 A  
HETATM   11 CL   UNL     1     -10.699   7.817  71.635  1.00  0.00    -0.247 Cl 
HETATM   12  C   UNL     1     -10.821   7.848  68.940  1.00  0.00    -0.008 A  
HETATM   13  C   UNL     1     -10.455   9.974  70.032  1.00  0.00    -0.337 A  
HETATM   14  C   UNL     1     -10.668   8.599  70.102  1.00  0.00    -0.234 A  
ENDBRANCH   7   8
BRANCH   7  15
HETATM   15  C   UNL     1     -10.604  11.890  66.072  1.00  0.00    -0.265 A  
HETATM   16  C   UNL     1     -12.409  13.323  65.787  1.00  0.00    -0.447 A  
HETATM   17  C   UNL     1     -10.239  14.268  65.984  1.00  0.00    -0.327 A  
HETATM   18  C   UNL     1      -9.727  12.977  66.105  1.00  0.00    -0.255 A  
HETATM   19  N   UNL     1     -11.946  12.058  65.912  1.00  0.00    -0.519 NA 
HETATM   20  C   UNL     1     -11.604  14.448  65.824  1.00  0.00    -0.353 A  
ENDBRANCH   7  15
ENDBRANCH   6   7
ENDBRANCH   5   6
ENDBRANCH   4   5
ENDBRANCH   2   4
TORSDOF 6
ENDMDL
MODEL      170
REMARK 921   NORMALIZED FREE ENERGY PREDICTED BY IDOCK:   -3.06 KCAL/MOL
REMARK 922        TOTAL FREE ENERGY PREDICTED BY IDOCK:   -4.78 KCAL/MOL
REMARK 923 INTER-LIGAND FREE ENERGY PREDICTED BY IDOCK:   -5.47 KCAL/MOL
REMARK 924 INTRA-LIGAND FREE ENERGY PREDICTED BY IDOCK:    0.69 KCAL/MOL
REMARK 927      BINDING AFFINITY PREDICTED BY RF-SCORE:    0.00 PKD
ROOT
HETATM    1  C   UNL     1      -9.298  10.319  65.029  1.00  0.00    -0.237 C  
HETATM    2  N   UNL     1      -9.943  11.568  64.611  1.00  0.00    -0.251 NA 
HETATM    3  C   UNL     1      -9.901  11.672  63.149  1.00  0.00    -0.382 C  
ENDROOT
BRANCH   2   4
HETATM    4  C   UNL     1     -11.321  11.621  65.143  1.00  0.00    -0.156 C  
BRANCH   4   5
HETATM    5  C   UNL     1     -11.776  13.032  65.538  1.00  0.00    -0.368 C  
BRANCH   5   6
HETATM    6  O   UNL     1     -12.439  13.017  66.812  1.00  0.00    -0.324 OA 
BRANCH   6   7
HETATM    7  C   UNL     1     -11.652  13.673  67.841  1.00  0.00    -0.341 C  
BRANCH   7   8
HETATM    8  C   UNL     1     -10.552  12.726  68.319  1.00  0.00    -0.251 A  
HETATM    9  C   UNL     1     -10.903  11.495  68.902  1.00  0.00    -0.263 A  
HETATM   10  C   UNL     1      -9.200  12.974  68.023  1.00  0.00    -0.212 A  
HETATM   11 CL   UNL     1      -7.431   9.521  68.974  1.00  0.00    -0.072 Cl 
HETATM   12  C   UNL     1      -9.936  10.511  69.118  1.00  0.00    -0.236 A  
HETATM   13  C   UNL     1      -8.233  11.995  68.254  1.00  0.00    -0.161 A  
HETATM   14  C   UNL     1      -8.608  10.761  68.781  1.00  0.00    -0.156 A  
ENDBRANCH   7   8
BRANCH   7  15
HETATM   15  C   UNL     1     -11.120  15.023  67.357  1.00  0.00    -0.324 A  
HETATM   16  C   UNL     1     -10.364  16.327  65.591  1.00  0.00    -0.363 A  
HETATM   17  C   UNL     1     -10.548  17.331  67.735  1.00  0.00    -0.367 A  
HETATM   18  C   UNL     1     -10.995  16.107  68.230  1.00  0.00    -0.340 A  
HETATM   19  N   UNL     1     -10.804  15.128  66.036  1.00  0.00    -0.329 NA 
HETATM   20  C   UNL     1     -10.228  17.448  66.391  1.00  0.00    -0.339 A  
ENDBRANCH   7  15
ENDBRANCH   6   7
ENDBRANCH   5   6
ENDBRANCH   4   5
ENDBRANCH   2   4
TORSDOF 6
ENDMDL
MODEL      171
REMARK 921   NORMALIZED FREE ENERGY PREDICTED BY IDOCK:   -3.05 KCAL/MOL
REMARK 922        TOTAL FREE ENERGY PREDICTED BY IDOCK:   -4.77 KCAL/MOL
REMARK 923 INTER-LIGAND FREE ENERGY PREDICTED BY IDOCK:   -4.31 KCAL/MOL
REMARK 924 INTRA-LIGAND FREE ENERGY PREDICTED BY IDOCK:   -0.46 KCAL/MOL
REMARK 927      BINDING AFFINITY PREDICTED BY RF-SCORE:    0.00 PKD
ROOT
HETATM    1  C   UNL     1      -9.307   3.883  63.403  1.00  0.00    -0.127 C  
HETATM    2  N   UNL     1      -9.502   3.234  64.703  1.00  0.00    -0.145 NA 
HETATM    3  C   UNL     1      -9.030   1.847  64.631  1.00  0.00    -0.118 C  
ENDROOT
BRANCH   2   4
HETATM    4  C   UNL     1      -8.816   4.011  65.757  1.00  0.00    -0.123 C  
BRANCH   4   5
HETATM    5  C   UNL     1      -9.219   5.492  65.793  1.00  0.00    -0.120 C  
BRANCH   5   6
HETATM    6  O   UNL     1      -9.329   5.957  67.148  1.00  0.00    -0.114 OA 
BRANCH   6   7
HETATM    7  C   UNL     1     -10.049   7.214  67.235  1.00  0.00    -0.215 C  
BRANCH   7   8
HETATM    8  C   UNL     1     -10.512   7.436  68.674  1.00  0.00    -0.211 A  
HETATM    9  C   UNL     1     -10.425   8.721  69.238  1.00  0.00    -0.228 A  
HETATM   10  C   UNL     1     -11.191   6.430  69.382  1.00  0.00    -0.459 A  
HETATM   11 CL   UNL     1     -12.613   8.382  72.564  1.00  0.00    -0.367 Cl 
HETATM   12  C   UNL     1     -11.061   9.008  70.448  1.00  0.00    -0.279 A  
HETATM   13  C   UNL     1     -11.813   6.715  70.598  1.00  0.00    -0.443 A  
HETATM   14  C   UNL     1     -11.763   8.008  71.115  1.00  0.00    -0.284 A  
ENDBRANCH   7   8
BRANCH   7  15
HETATM   15  C   UNL     1      -9.214   8.372  66.682  1.00  0.00    -0.180 A  
HETATM   16  C   UNL     1      -7.141   9.407  66.520  1.00  0.00    -0.085 A  
HETATM   17  C   UNL     1      -8.966  10.342  65.322  1.00  0.00    -0.212 A  
HETATM   18  C   UNL     1      -9.775   9.331  65.836  1.00  0.00    -0.355 A  
HETATM   19  N   UNL     1      -7.897   8.406  67.029  1.00  0.00    -0.095 NA 
HETATM   20  C   UNL     1      -7.624  10.383  65.666  1.00  0.00    -0.150 A  
ENDBRANCH   7  15
ENDBRANCH   6   7
ENDBRANCH   5   6
ENDBRANCH   4   5
ENDBRANCH   2   4
TORSDOF 6
ENDMDL
MODEL      172
REMARK 921   NORMALIZED FREE ENERGY PREDICTED BY IDOCK:   -3.02 KCAL/MOL
REMARK 922        TOTAL FREE ENERGY PREDICTED BY IDOCK:   -4.73 KCAL/MOL
REMARK 923 INTER-LIGAND FREE ENERGY PREDICTED BY IDOCK:   -4.21 KCAL/MOL
REMARK 924 INTRA-LIGAND FREE ENERGY PREDICTED BY IDOCK:   -0.52 KCAL/MOL
REMARK 927      BINDING AFFINITY PREDICTED BY RF-SCORE:    0.00 PKD
ROOT
HETATM    1  C   UNL     1     -11.692  12.312  68.871  1.00  0.00    -0.328 C  
HETATM    2  N   UNL     1     -10.773  13.019  67.973  1.00  0.00    -0.226 NA 
HETATM    3  C   UNL     1     -11.109  14.447  67.960  1.00  0.00    -0.272 C  
ENDROOT
BRANCH   2   4
HETATM    4  C   UNL     1      -9.377  12.769  68.389  1.00  0.00    -0.143 C  
BRANCH   4   5
HETATM    5  C   UNL     1      -8.602  11.856  67.430  1.00  0.00    -0.164 C  
BRANCH   5   6
HETATM    6  O   UNL     1      -9.168  10.536  67.414  1.00  0.00    -0.142 OA 
BRANCH   6   7
HETATM    7  C   UNL     1      -8.546   9.690  66.411  1.00  0.00    -0.127 C  
BRANCH   7   8
HETATM    8  C   UNL     1      -9.012   8.247  66.605  1.00  0.00    -0.179 A  
HETATM    9  C   UNL     1      -8.063   7.209  66.612  1.00  0.00    -0.109 A  
HETATM   10  C   UNL     1     -10.340   7.954  66.959  1.00  0.00    -0.411 A  
HETATM   11 CL   UNL     1     -10.154   4.103  68.006  1.00  0.00    -0.000 Cl 
HETATM   12  C   UNL     1      -8.421   5.925  67.030  1.00  0.00    -0.107 A  
HETATM   13  C   UNL     1     -10.698   6.667  67.362  1.00  0.00    -0.409 A  
HETATM   14  C   UNL     1      -9.733   5.664  67.416  1.00  0.00    -0.127 A  
ENDBRANCH   7   8
BRANCH   7  15
HETATM   15  C   UNL     1      -8.798  10.223  64.999  1.00  0.00    -0.187 A  
HETATM   16  C   UNL     1      -7.964  10.659  62.876  1.00  0.00    -0.076 A  
HETATM   17  C   UNL     1     -10.259  11.102  63.299  1.00  0.00    -0.403 A  
HETATM   18  C   UNL     1     -10.064  10.665  64.608  1.00  0.00    -0.417 A  
HETATM   19  N   UNL     1      -7.744  10.220  64.137  1.00  0.00    -0.132 NA 
HETATM   20  C   UNL     1      -9.191  11.098  62.413  1.00  0.00    -0.244 A  
ENDBRANCH   7  15
ENDBRANCH   6   7
ENDBRANCH   5   6
ENDBRANCH   4   5
ENDBRANCH   2   4
TORSDOF 6
ENDMDL
MODEL      173
REMARK 921   NORMALIZED FREE ENERGY PREDICTED BY IDOCK:   -2.96 KCAL/MOL
REMARK 922        TOTAL FREE ENERGY PREDICTED BY IDOCK:   -4.65 KCAL/MOL
REMARK 923 INTER-LIGAND FREE ENERGY PREDICTED BY IDOCK:   -4.21 KCAL/MOL
REMARK 924 INTRA-LIGAND FREE ENERGY PREDICTED BY IDOCK:   -0.44 KCAL/MOL
REMARK 927      BINDING AFFINITY PREDICTED BY RF-SCORE:    0.00 PKD
ROOT
HETATM    1  C   UNL     1     -12.765  11.770  63.212  1.00  0.00    -0.180 C  
HETATM    2  N   UNL     1     -11.843  12.289  64.226  1.00  0.00    -0.385 NA 
HETATM    3  C   UNL     1     -12.610  12.793  65.369  1.00  0.00    -0.320 C  
ENDROOT
BRANCH   2   4
HETATM    4  C   UNL     1     -10.879  11.237  64.610  1.00  0.00    -0.265 C  
BRANCH   4   5
HETATM    5  C   UNL     1     -10.103  11.551  65.897  1.00  0.00    -0.231 C  
BRANCH   5   6
HETATM    6  O   UNL     1     -10.352  10.552  66.899  1.00  0.00    -0.219 OA 
BRANCH   6   7
HETATM    7  C   UNL     1      -9.730  10.888  68.167  1.00  0.00    -0.166 C  
BRANCH   7   8
HETATM    8  C   UNL     1     -10.446  10.145  69.295  1.00  0.00    -0.246 A  
HETATM    9  C   UNL     1     -11.564  10.735  69.911  1.00  0.00    -0.410 A  
HETATM   10  C   UNL     1     -10.127   8.812  69.604  1.00  0.00    -0.204 A  
HETATM   11 CL   UNL     1     -13.122   7.712  72.008  1.00  0.00    -0.257 Cl 
HETATM   12  C   UNL     1     -12.381   9.987  70.761  1.00  0.00    -0.396 A  
HETATM   13  C   UNL     1     -10.936   8.071  70.466  1.00  0.00    -0.247 A  
HETATM   14  C   UNL     1     -12.071   8.656  71.024  1.00  0.00    -0.215 A  
ENDBRANCH   7   8
BRANCH   7  15
HETATM   15  C   UNL     1      -8.223  10.628  68.132  1.00  0.00    -0.116 A  
HETATM   16  C   UNL     1      -6.470   9.272  67.435  1.00  0.00    -0.063 A  
HETATM   17  C   UNL     1      -5.952  11.274  68.604  1.00  0.00    -0.042 A  
HETATM   18  C   UNL     1      -7.319  11.530  68.698  1.00  0.00    -0.106 A  
HETATM   19  N   UNL     1      -7.803   9.496  67.501  1.00  0.00    -0.102 NA 
HETATM   20  C   UNL     1      -5.516  10.126  67.959  1.00  0.00    -0.038 A  
ENDBRANCH   7  15
ENDBRANCH   6   7
ENDBRANCH   5   6
ENDBRANCH   4   5
ENDBRANCH   2   4
TORSDOF 6
ENDMDL
MODEL      174
REMARK 921   NORMALIZED FREE ENERGY PREDICTED BY IDOCK:   -2.94 KCAL/MOL
REMARK 922        TOTAL FREE ENERGY PREDICTED BY IDOCK:   -4.62 KCAL/MOL
REMARK 923 INTER-LIGAND FREE ENERGY PREDICTED BY IDOCK:   -4.07 KCAL/MOL
REMARK 924 INTRA-LIGAND FREE ENERGY PREDICTED BY IDOCK:   -0.55 KCAL/MOL
REMARK 927      BINDING AFFINITY PREDICTED BY RF-SCORE:    0.00 PKD
ROOT
HETATM    1  C   UNL     1      -7.887   5.665  66.593  1.00  0.00    -0.101 C  
HETATM    2  N   UNL     1      -9.343   5.498  66.628  1.00  0.00    -0.136 NA 
HETATM    3  C   UNL     1      -9.702   4.574  67.708  1.00  0.00    -0.145 C  
ENDROOT
BRANCH   2   4
HETATM    4  C   UNL     1      -9.993   6.817  66.772  1.00  0.00    -0.178 C  
BRANCH   4   5
HETATM    5  C   UNL     1      -9.162   7.980  66.212  1.00  0.00    -0.184 C  
BRANCH   5   6
HETATM    6  O   UNL     1      -9.382   9.177  66.975  1.00  0.00    -0.140 OA 
BRANCH   6   7
HETATM    7  C   UNL     1      -8.736  10.330  66.375  1.00  0.00    -0.135 C  
BRANCH   7   8
HETATM    8  C   UNL     1      -9.800  11.322  65.907  1.00  0.00    -0.272 A  
HETATM    9  C   UNL     1     -10.037  12.488  66.656  1.00  0.00    -0.241 A  
HETATM   10  C   UNL     1     -10.416  11.187  64.650  1.00  0.00    -0.400 A  
HETATM   11 CL   UNL     1     -12.275  14.693  64.188  1.00  0.00    -0.450 Cl 
HETATM   12  C   UNL     1     -10.814  13.522  66.131  1.00  0.00    -0.284 A  
HETATM   13  C   UNL     1     -11.205  12.216  64.134  1.00  0.00    -0.433 A  
HETATM   14  C   UNL     1     -11.383  13.387  64.867  1.00  0.00    -0.328 A  
ENDBRANCH   7   8
BRANCH   7  15
HETATM   15  C   UNL     1      -7.709  10.949  67.327  1.00  0.00    -0.112 A  
HETATM   16  C   UNL     1      -5.789  12.227  67.597  1.00  0.00    -0.118 A  
HETATM   17  C   UNL     1      -6.905  11.443  69.542  1.00  0.00    -0.097 A  
HETATM   18  C   UNL     1      -7.840  10.826  68.712  1.00  0.00    -0.129 A  
HETATM   19  N   UNL     1      -6.684  11.648  66.764  1.00  0.00    -0.121 NA 
HETATM   20  C   UNL     1      -5.861  12.160  68.977  1.00  0.00    -0.065 A  
ENDBRANCH   7  15
ENDBRANCH   6   7
ENDBRANCH   5   6
ENDBRANCH   4   5
ENDBRANCH   2   4
TORSDOF 6
ENDMDL
MODEL      175
REMARK 921   NORMALIZED FREE ENERGY PREDICTED BY IDOCK:   -2.91 KCAL/MOL
REMARK 922        TOTAL FREE ENERGY PREDICTED BY IDOCK:   -4.58 KCAL/MOL
REMARK 923 INTER-LIGAND FREE ENERGY PREDICTED BY IDOCK:   -4.34 KCAL/MOL
REMARK 924 INTRA-LIGAND FREE ENERGY PREDICTED BY IDOCK:   -0.25 KCAL/MOL
REMARK 927      BINDING AFFINITY PREDICTED BY RF-SCORE:    0.00 PKD
ROOT
HETATM    1  C   UNL     1     -10.973  11.355  64.759  1.00  0.00    -0.234 C  
HETATM    2  N   UNL     1     -11.716  12.534  64.304  1.00  0.00    -0.356 NA 
HETATM    3  C   UNL     1     -12.557  12.167  63.159  1.00  0.00    -0.197 C  
ENDROOT
BRANCH   2   4
HETATM    4  C   UNL     1     -12.498  13.095  65.424  1.00  0.00    -0.481 C  
BRANCH   4   5
HETATM    5  C   UNL     1     -11.660  13.394  66.674  1.00  0.00    -0.362 C  
BRANCH   5   6
HETATM    6  O   UNL     1     -10.342  13.835  66.311  1.00  0.00    -0.281 OA 
BRANCH   6   7
HETATM    7  C   UNL     1      -9.456  13.904  67.459  1.00  0.00    -0.216 C  
BRANCH   7   8
HETATM    8  C   UNL     1      -8.847  12.526  67.713  1.00  0.00    -0.178 A  
HETATM    9  C   UNL     1      -9.333  11.740  68.774  1.00  0.00    -0.019 A  
HETATM   10  C   UNL     1      -7.944  11.950  66.802  1.00  0.00    -0.087 A  
HETATM   11 CL   UNL     1      -7.739   8.153  68.027  1.00  0.00    -0.111 Cl 
HETATM   12  C   UNL     1      -8.977  10.393  68.879  1.00  0.00    -0.170 A  
HETATM   13  C   UNL     1      -7.579  10.608  66.918  1.00  0.00    -0.115 A  
HETATM   14  C   UNL     1      -8.114   9.831  67.943  1.00  0.00    -0.112 A  
ENDBRANCH   7   8
BRANCH   7  15
HETATM   15  C   UNL     1      -8.408  15.006  67.286  1.00  0.00    -0.205 A  
HETATM   16  C   UNL     1      -6.287  15.808  67.789  1.00  0.00    -0.153 A  
HETATM   17  C   UNL     1      -7.639  17.057  66.289  1.00  0.00    -0.340 A  
HETATM   18  C   UNL     1      -8.639  16.100  66.450  1.00  0.00    -0.365 A  
HETATM   19  N   UNL     1      -7.234  14.856  67.960  1.00  0.00    -0.120 NA 
HETATM   20  C   UNL     1      -6.438  16.910  66.968  1.00  0.00    -0.235 A  
ENDBRANCH   7  15
ENDBRANCH   6   7
ENDBRANCH   5   6
ENDBRANCH   4   5
ENDBRANCH   2   4
TORSDOF 6
ENDMDL
MODEL      176
REMARK 921   NORMALIZED FREE ENERGY PREDICTED BY IDOCK:   -2.89 KCAL/MOL
REMARK 922        TOTAL FREE ENERGY PREDICTED BY IDOCK:   -4.56 KCAL/MOL
REMARK 923 INTER-LIGAND FREE ENERGY PREDICTED BY IDOCK:   -4.56 KCAL/MOL
REMARK 924 INTRA-LIGAND FREE ENERGY PREDICTED BY IDOCK:    0.00 KCAL/MOL
REMARK 927      BINDING AFFINITY PREDICTED BY RF-SCORE:    0.00 PKD
ROOT
HETATM    1  C   UNL     1      -9.823  11.286  63.343  1.00  0.00    -0.385 C  
HETATM    2  N   UNL     1      -9.420  10.124  64.141  1.00  0.00    -0.289 NA 
HETATM    3  C   UNL     1      -7.961  10.120  64.293  1.00  0.00    -0.155 C  
ENDROOT
BRANCH   2   4
HETATM    4  C   UNL     1     -10.125  10.141  65.440  1.00  0.00    -0.272 C  
BRANCH   4   5
HETATM    5  C   UNL     1      -9.492   9.228  66.498  1.00  0.00    -0.202 C  
BRANCH   5   6
HETATM    6  O   UNL     1     -10.493   8.706  67.386  1.00  0.00    -0.263 OA 
BRANCH   6   7
HETATM    7  C   UNL     1     -10.412   9.303  68.707  1.00  0.00    -0.210 C  
BRANCH   7   8
HETATM    8  C   UNL     1     -10.867   8.285  69.752  1.00  0.00    -0.186 A  
HETATM    9  C   UNL     1     -10.738   6.911  69.481  1.00  0.00    -0.276 A  
HETATM   10  C   UNL     1     -11.238   8.688  71.047  1.00  0.00    -0.321 A  
HETATM   11 CL   UNL     1     -11.368   5.236  73.053  1.00  0.00    -0.380 Cl 
HETATM   12  C   UNL     1     -10.909   5.969  70.498  1.00  0.00    -0.382 A  
HETATM   13  C   UNL     1     -11.422   7.744  72.057  1.00  0.00    -0.337 A  
HETATM   14  C   UNL     1     -11.236   6.391  71.784  1.00  0.00    -0.277 A  
ENDBRANCH   7   8
BRANCH   7  15
HETATM   15  C   UNL     1      -9.015   9.865  68.978  1.00  0.00    -0.160 A  
HETATM   16  C   UNL     1      -6.831   9.476  69.663  1.00  0.00    -0.063 A  
HETATM   17  C   UNL     1      -7.413  11.662  68.941  1.00  0.00    -0.092 A  
HETATM   18  C   UNL     1      -8.711  11.204  68.720  1.00  0.00    -0.130 A  
HETATM   19  N   UNL     1      -8.078   8.997  69.451  1.00  0.00    -0.105 NA 
HETATM   20  C   UNL     1      -6.452  10.784  69.419  1.00  0.00    -0.076 A  
ENDBRANCH   7  15
ENDBRANCH   6   7
ENDBRANCH   5   6
ENDBRANCH   4   5
ENDBRANCH   2   4
TORSDOF 6
ENDMDL
MODEL      177
REMARK 921   NORMALIZED FREE ENERGY PREDICTED BY IDOCK:   -2.89 KCAL/MOL
REMARK 922        TOTAL FREE ENERGY PREDICTED BY IDOCK:   -4.56 KCAL/MOL
REMARK 923 INTER-LIGAND FREE ENERGY PREDICTED BY IDOCK:   -4.43 KCAL/MOL
REMARK 924 INTRA-LIGAND FREE ENERGY PREDICTED BY IDOCK:   -0.13 KCAL/MOL
REMARK 927      BINDING AFFINITY PREDICTED BY RF-SCORE:    0.00 PKD
ROOT
HETATM    1  C   UNL     1     -11.182   6.378  67.224  1.00  0.00    -0.206 C  
HETATM    2  N   UNL     1     -10.496   5.286  67.920  1.00  0.00    -0.131 NA 
HETATM    3  C   UNL     1      -9.755   4.478  66.946  1.00  0.00    -0.205 C  
ENDROOT
BRANCH   2   4
HETATM    4  C   UNL     1      -9.625   5.837  68.979  1.00  0.00    -0.135 C  
BRANCH   4   5
HETATM    5  C   UNL     1     -10.358   6.753  69.968  1.00  0.00    -0.199 C  
BRANCH   5   6
HETATM    6  O   UNL     1      -9.786   8.071  69.963  1.00  0.00    -0.183 OA 
BRANCH   6   7
HETATM    7  C   UNL     1     -10.253   8.862  68.838  1.00  0.00    -0.206 C  
BRANCH   7   8
HETATM    8  C   UNL     1     -11.110  10.017  69.352  1.00  0.00    -0.265 A  
HETATM    9  C   UNL     1     -11.810   9.874  70.564  1.00  0.00    -0.350 A  
HETATM   10  C   UNL     1     -11.069  11.282  68.740  1.00  0.00    -0.288 A  
HETATM   11 CL   UNL     1     -12.958  13.613  71.376  1.00  0.00    -0.428 Cl 
HETATM   12  C   UNL     1     -12.394  10.983  71.180  1.00  0.00    -0.465 A  
HETATM   13  C   UNL     1     -11.666  12.385  69.350  1.00  0.00    -0.384 A  
HETATM   14  C   UNL     1     -12.308  12.235  70.577  1.00  0.00    -0.264 A  
ENDBRANCH   7   8
BRANCH   7  15
HETATM   15  C   UNL     1      -9.087   9.318  67.958  1.00  0.00    -0.127 A  
HETATM   16  C   UNL     1      -6.986  10.298  67.819  1.00  0.00    -0.083 A  
HETATM   17  C   UNL     1      -7.988   9.489  65.823  1.00  0.00    -0.111 A  
HETATM   18  C   UNL     1      -9.091   9.096  66.579  1.00  0.00    -0.194 A  
HETATM   19  N   UNL     1      -8.037   9.920  68.583  1.00  0.00    -0.096 NA 
HETATM   20  C   UNL     1      -6.913  10.099  66.452  1.00  0.00    -0.105 A  
ENDBRANCH   7  15
ENDBRANCH   6   7
ENDBRANCH   5   6
ENDBRANCH   4   5
ENDBRANCH   2   4
TORSDOF 6
ENDMDL
MODEL      178
REMARK 921   NORMALIZED FREE ENERGY PREDICTED BY IDOCK:   -2.84 KCAL/MOL
REMARK 922        TOTAL FREE ENERGY PREDICTED BY IDOCK:   -4.49 KCAL/MOL
REMARK 923 INTER-LIGAND FREE ENERGY PREDICTED BY IDOCK:   -3.62 KCAL/MOL
REMARK 924 INTRA-LIGAND FREE ENERGY PREDICTED BY IDOCK:   -0.86 KCAL/MOL
REMARK 927      BINDING AFFINITY PREDICTED BY RF-SCORE:    0.00 PKD
ROOT
HETATM    1  C   UNL     1      -8.379   5.910  63.561  1.00  0.00     0.020 C  
HETATM    2  N   UNL     1      -7.450   6.565  64.487  1.00  0.00    -0.083 NA 
HETATM    3  C   UNL     1      -7.599   8.020  64.378  1.00  0.00    -0.116 C  
ENDROOT
BRANCH   2   4
HETATM    4  C   UNL     1      -7.683   6.073  65.860  1.00  0.00    -0.096 C  
BRANCH   4   5
HETATM    5  C   UNL     1      -9.115   5.579  66.105  1.00  0.00    -0.150 C  
BRANCH   5   6
HETATM    6  O   UNL     1      -9.929   6.627  66.656  1.00  0.00    -0.175 OA 
BRANCH   6   7
HETATM    7  C   UNL     1      -9.315   7.236  67.822  1.00  0.00    -0.128 C  
BRANCH   7   8
HETATM    8  C   UNL     1      -9.447   8.755  67.730  1.00  0.00    -0.164 A  
HETATM    9  C   UNL     1     -10.315   9.318  66.776  1.00  0.00    -0.296 A  
HETATM   10  C   UNL     1      -8.864   9.596  68.694  1.00  0.00    -0.128 A  
HETATM   11 CL   UNL     1     -10.555  13.134  67.933  1.00  0.00    -0.235 Cl 
HETATM   12  C   UNL     1     -10.644  10.674  66.830  1.00  0.00    -0.311 A  
HETATM   13  C   UNL     1      -9.183  10.954  68.737  1.00  0.00    -0.187 A  
HETATM   14  C   UNL     1     -10.088  11.482  67.818  1.00  0.00    -0.182 A  
ENDBRANCH   7   8
BRANCH   7  15
HETATM   15  C   UNL     1      -9.887   6.656  69.118  1.00  0.00    -0.148 A  
HETATM   16  C   UNL     1     -11.636   6.588  70.644  1.00  0.00    -0.381 A  
HETATM   17  C   UNL     1      -9.781   5.145  70.989  1.00  0.00    -0.245 A  
HETATM   18  C   UNL     1      -9.201   5.676  69.838  1.00  0.00    -0.173 A  
HETATM   19  N   UNL     1     -11.105   7.117  69.518  1.00  0.00    -0.186 NA 
HETATM   20  C   UNL     1     -11.022   5.606  71.401  1.00  0.00    -0.260 A  
ENDBRANCH   7  15
ENDBRANCH   6   7
ENDBRANCH   5   6
ENDBRANCH   4   5
ENDBRANCH   2   4
TORSDOF 6
ENDMDL
MODEL      179
REMARK 921   NORMALIZED FREE ENERGY PREDICTED BY IDOCK:   -2.83 KCAL/MOL
REMARK 922        TOTAL FREE ENERGY PREDICTED BY IDOCK:   -4.48 KCAL/MOL
REMARK 923 INTER-LIGAND FREE ENERGY PREDICTED BY IDOCK:   -4.90 KCAL/MOL
REMARK 924 INTRA-LIGAND FREE ENERGY PREDICTED BY IDOCK:    0.43 KCAL/MOL
REMARK 927      BINDING AFFINITY PREDICTED BY RF-SCORE:    0.00 PKD
ROOT
HETATM    1  C   UNL     1     -11.052   6.148  69.041  1.00  0.00    -0.367 C  
HETATM    2  N   UNL     1     -10.041   6.555  68.061  1.00  0.00    -0.141 NA 
HETATM    3  C   UNL     1      -9.458   5.362  67.439  1.00  0.00    -0.120 C  
ENDROOT
BRANCH   2   4
HETATM    4  C   UNL     1     -10.646   7.472  67.072  1.00  0.00    -0.339 C  
BRANCH   4   5
HETATM    5  C   UNL     1     -10.276   8.945  67.289  1.00  0.00    -0.258 C  
BRANCH   5   6
HETATM    6  O   UNL     1     -11.456   9.761  67.368  1.00  0.00     0.081 OA 
BRANCH   6   7
HETATM    7  C   UNL     1     -11.488  10.555  68.583  1.00  0.00    -0.223 C  
BRANCH   7   8
HETATM    8  C   UNL     1     -10.878   9.751  69.730  1.00  0.00    -0.285 A  
HETATM    9  C   UNL     1      -9.478   9.658  69.842  1.00  0.00    -0.260 A  
HETATM   10  C   UNL     1     -11.675   9.258  70.777  1.00  0.00    -0.328 A  
HETATM   11 CL   UNL     1      -8.978   8.148  73.507  1.00  0.00    -0.320 Cl 
HETATM   12  C   UNL     1      -8.893   9.148  71.003  1.00  0.00    -0.267 A  
HETATM   13  C   UNL     1     -11.087   8.735  71.930  1.00  0.00    -0.434 A  
HETATM   14  C   UNL     1      -9.699   8.702  72.046  1.00  0.00    -0.321 A  
ENDBRANCH   7   8
BRANCH   7  15
HETATM   15  C   UNL     1     -10.820  11.916  68.375  1.00  0.00    -0.228 A  
HETATM   16  C   UNL     1     -10.655  14.148  68.995  1.00  0.00    -0.213 A  
HETATM   17  C   UNL     1      -9.174  13.328  67.330  1.00  0.00    -0.222 A  
HETATM   18  C   UNL     1      -9.783  12.080  67.454  1.00  0.00    -0.185 A  
HETATM   19  N   UNL     1     -11.261  12.947  69.147  1.00  0.00    -0.254 NA 
HETATM   20  C   UNL     1      -9.614  14.383  68.115  1.00  0.00    -0.218 A  
ENDBRANCH   7  15
ENDBRANCH   6   7
ENDBRANCH   5   6
ENDBRANCH   4   5
ENDBRANCH   2   4
TORSDOF 6
ENDMDL
MODEL      180
REMARK 921   NORMALIZED FREE ENERGY PREDICTED BY IDOCK:   -2.81 KCAL/MOL
REMARK 922        TOTAL FREE ENERGY PREDICTED BY IDOCK:   -4.44 KCAL/MOL
REMARK 923 INTER-LIGAND FREE ENERGY PREDICTED BY IDOCK:   -4.58 KCAL/MOL
REMARK 924 INTRA-LIGAND FREE ENERGY PREDICTED BY IDOCK:    0.14 KCAL/MOL
REMARK 927      BINDING AFFINITY PREDICTED BY RF-SCORE:    0.00 PKD
ROOT
HETATM    1  C   UNL     1     -10.783   5.810  69.384  1.00  0.00    -0.326 C  
HETATM    2  N   UNL     1      -9.505   6.277  68.837  1.00  0.00    -0.127 NA 
HETATM    3  C   UNL     1      -8.594   5.137  68.688  1.00  0.00    -0.087 C  
ENDROOT
BRANCH   2   4
HETATM    4  C   UNL     1      -9.737   6.987  67.563  1.00  0.00    -0.136 C  
BRANCH   4   5
HETATM    5  C   UNL     1      -9.635   8.514  67.679  1.00  0.00    -0.153 C  
BRANCH   5   6
HETATM    6  O   UNL     1     -10.937   9.104  67.818  1.00  0.00    -0.160 OA 
BRANCH   6   7
HETATM    7  C   UNL     1     -10.983  10.072  68.899  1.00  0.00    -0.207 C  
BRANCH   7   8
HETATM    8  C   UNL     1      -9.660  10.041  69.663  1.00  0.00    -0.251 A  
HETATM    9  C   UNL     1      -9.517   9.178  70.764  1.00  0.00    -0.334 A  
HETATM   10  C   UNL     1      -8.526  10.717  69.181  1.00  0.00    -0.134 A  
HETATM   11 CL   UNL     1      -5.580   9.246  71.442  1.00  0.00    -0.058 Cl 
HETATM   12  C   UNL     1      -8.259   8.945  71.323  1.00  0.00    -0.207 A  
HETATM   13  C   UNL     1      -7.272  10.494  69.750  1.00  0.00    -0.152 A  
HETATM   14  C   UNL     1      -7.141   9.593  70.805  1.00  0.00    -0.068 A  
ENDBRANCH   7   8
BRANCH   7  15
HETATM   15  C   UNL     1     -11.352  11.464  68.382  1.00  0.00    -0.281 A  
HETATM   16  C   UNL     1     -11.962  13.651  68.869  1.00  0.00    -0.356 A  
HETATM   17  C   UNL     1     -11.636  13.051  66.594  1.00  0.00    -0.410 A  
HETATM   18  C   UNL     1     -11.336  11.757  67.016  1.00  0.00    -0.387 A  
HETATM   19  N   UNL     1     -11.666  12.408  69.313  1.00  0.00    -0.315 NA 
HETATM   20  C   UNL     1     -11.953  14.019  67.535  1.00  0.00    -0.430 A  
ENDBRANCH   7  15
ENDBRANCH   6   7
ENDBRANCH   5   6
ENDBRANCH   4   5
ENDBRANCH   2   4
TORSDOF 6
ENDMDL
MODEL      181
REMARK 921   NORMALIZED FREE ENERGY PREDICTED BY IDOCK:   -2.73 KCAL/MOL
REMARK 922        TOTAL FREE ENERGY PREDICTED BY IDOCK:   -4.33 KCAL/MOL
REMARK 923 INTER-LIGAND FREE ENERGY PREDICTED BY IDOCK:   -4.27 KCAL/MOL
REMARK 924 INTRA-LIGAND FREE ENERGY PREDICTED BY IDOCK:   -0.06 KCAL/MOL
REMARK 927      BINDING AFFINITY PREDICTED BY RF-SCORE:    0.00 PKD
ROOT
HETATM    1  C   UNL     1      -7.365   9.088  70.472  1.00  0.00    -0.086 C  
HETATM    2  N   UNL     1      -8.295   8.441  69.541  1.00  0.00    -0.118 NA 
HETATM    3  C   UNL     1      -8.369   7.008  69.844  1.00  0.00    -0.139 C  
ENDROOT
BRANCH   2   4
HETATM    4  C   UNL     1      -9.614   9.103  69.612  1.00  0.00    -0.176 C  
BRANCH   4   5
HETATM    5  C   UNL     1      -9.895  10.047  68.435  1.00  0.00    -0.154 C  
BRANCH   5   6
HETATM    6  O   UNL     1      -9.565  11.403  68.778  1.00  0.00    -0.190 OA 
BRANCH   6   7
HETATM    7  C   UNL     1      -8.986  12.121  67.657  1.00  0.00    -0.178 C  
BRANCH   7   8
HETATM    8  C   UNL     1      -8.993  11.223  66.421  1.00  0.00    -0.194 A  
HETATM    9  C   UNL     1     -10.102  11.246  65.556  1.00  0.00    -0.306 A  
HETATM   10  C   UNL     1      -7.843  10.516  66.030  1.00  0.00    -0.147 A  
HETATM   11 CL   UNL     1      -8.763   9.286  62.342  1.00  0.00    -0.227 Cl 
HETATM   12  C   UNL     1     -10.035  10.633  64.302  1.00  0.00    -0.413 A  
HETATM   13  C   UNL     1      -7.784   9.892  64.783  1.00  0.00    -0.138 A  
HETATM   14  C   UNL     1      -8.873   9.972  63.917  1.00  0.00    -0.229 A  
ENDBRANCH   7   8
BRANCH   7  15
HETATM   15  C   UNL     1      -9.689  13.463  67.435  1.00  0.00    -0.221 A  
HETATM   16  C   UNL     1     -11.593  14.762  67.715  1.00  0.00    -0.357 A  
HETATM   17  C   UNL     1      -9.693  15.752  66.690  1.00  0.00    -0.266 A  
HETATM   18  C   UNL     1      -9.028  14.535  66.832  1.00  0.00    -0.267 A  
HETATM   19  N   UNL     1     -10.973  13.570  67.877  1.00  0.00    -0.250 NA 
HETATM   20  C   UNL     1     -10.999  15.872  67.141  1.00  0.00    -0.214 A  
ENDBRANCH   7  15
ENDBRANCH   6   7
ENDBRANCH   5   6
ENDBRANCH   4   5
ENDBRANCH   2   4
TORSDOF 6
ENDMDL
MODEL      182
REMARK 921   NORMALIZED FREE ENERGY PREDICTED BY IDOCK:   -2.70 KCAL/MOL
REMARK 922        TOTAL FREE ENERGY PREDICTED BY IDOCK:   -4.29 KCAL/MOL
REMARK 923 INTER-LIGAND FREE ENERGY PREDICTED BY IDOCK:   -4.53 KCAL/MOL
REMARK 924 INTRA-LIGAND FREE ENERGY PREDICTED BY IDOCK:    0.24 KCAL/MOL
REMARK 927      BINDING AFFINITY PREDICTED BY RF-SCORE:    0.00 PKD
ROOT
HETATM    1  C   UNL     1      -7.839   8.701  69.513  1.00  0.00    -0.095 C  
HETATM    2  N   UNL     1      -9.232   8.507  69.101  1.00  0.00    -0.149 NA 
HETATM    3  C   UNL     1      -9.819   7.405  69.872  1.00  0.00    -0.178 C  
ENDROOT
BRANCH   2   4
HETATM    4  C   UNL     1      -9.981   9.771  69.261  1.00  0.00    -0.192 C  
BRANCH   4   5
HETATM    5  C   UNL     1     -10.256  10.497  67.937  1.00  0.00    -0.183 C  
BRANCH   5   6
HETATM    6  O   UNL     1     -10.072  11.914  68.085  1.00  0.00    -0.186 OA 
BRANCH   6   7
HETATM    7  C   UNL     1      -9.486  12.512  66.899  1.00  0.00    -0.219 C  
BRANCH   7   8
HETATM    8  C   UNL     1      -8.759  11.435  66.094  1.00  0.00    -0.153 A  
HETATM    9  C   UNL     1      -7.520  10.949  66.551  1.00  0.00    -0.142 A  
HETATM   10  C   UNL     1      -9.383  10.789  65.013  1.00  0.00    -0.261 A  
HETATM   11 CL   UNL     1      -6.954   7.701  64.295  1.00  0.00    -0.058 Cl 
HETATM   12  C   UNL     1      -6.956   9.804  65.984  1.00  0.00    -0.099 A  
HETATM   13  C   UNL     1      -8.810   9.655  64.438  1.00  0.00    -0.263 A  
HETATM   14  C   UNL     1      -7.610   9.155  64.940  1.00  0.00    -0.107 A  
ENDBRANCH   7   8
BRANCH   7  15
HETATM   15  C   UNL     1     -10.535  13.271  66.083  1.00  0.00    -0.293 A  
HETATM   16  C   UNL     1     -12.740  13.441  65.376  1.00  0.00    -0.426 A  
HETATM   17  C   UNL     1     -11.212  15.136  64.718  1.00  0.00    -0.396 A  
HETATM   18  C   UNL     1     -10.214  14.454  65.412  1.00  0.00    -0.408 A  
HETATM   19  N   UNL     1     -11.797  12.760  66.067  1.00  0.00    -0.420 NA 
HETATM   20  C   UNL     1     -12.500  14.624  64.700  1.00  0.00    -0.302 A  
ENDBRANCH   7  15
ENDBRANCH   6   7
ENDBRANCH   5   6
ENDBRANCH   4   5
ENDBRANCH   2   4
TORSDOF 6
ENDMDL
MODEL      183
REMARK 921   NORMALIZED FREE ENERGY PREDICTED BY IDOCK:   -2.66 KCAL/MOL
REMARK 922        TOTAL FREE ENERGY PREDICTED BY IDOCK:   -4.24 KCAL/MOL
REMARK 923 INTER-LIGAND FREE ENERGY PREDICTED BY IDOCK:   -4.89 KCAL/MOL
REMARK 924 INTRA-LIGAND FREE ENERGY PREDICTED BY IDOCK:    0.64 KCAL/MOL
REMARK 927      BINDING AFFINITY PREDICTED BY RF-SCORE:    0.00 PKD
ROOT
HETATM    1  C   UNL     1      -6.041  11.284  69.995  1.00  0.00    -0.142 C  
HETATM    2  N   UNL     1      -6.443  12.680  69.804  1.00  0.00    -0.065 NA 
HETATM    3  C   UNL     1      -5.415  13.564  70.365  1.00  0.00    -0.136 C  
ENDROOT
BRANCH   2   4
HETATM    4  C   UNL     1      -6.688  12.937  68.369  1.00  0.00    -0.092 C  
BRANCH   4   5
HETATM    5  C   UNL     1      -8.144  13.301  68.047  1.00  0.00    -0.157 C  
BRANCH   5   6
HETATM    6  O   UNL     1      -8.206  14.478  67.226  1.00  0.00    -0.192 OA 
BRANCH   6   7
HETATM    7  C   UNL     1      -9.569  14.944  67.046  1.00  0.00    -0.238 C  
BRANCH   7   8
HETATM    8  C   UNL     1     -10.233  14.148  65.924  1.00  0.00    -0.332 A  
HETATM    9  C   UNL     1     -10.300  12.746  66.016  1.00  0.00    -0.291 A  
HETATM   10  C   UNL     1     -10.941  14.794  64.895  1.00  0.00    -0.425 A  
HETATM   11 CL   UNL     1     -12.891  11.787  63.131  1.00  0.00    -0.414 Cl 
HETATM   12  C   UNL     1     -11.109  12.016  65.143  1.00  0.00    -0.369 A  
HETATM   13  C   UNL     1     -11.736  14.061  64.014  1.00  0.00    -0.276 A  
HETATM   14  C   UNL     1     -11.834  12.678  64.155  1.00  0.00    -0.410 A  
ENDBRANCH   7   8
BRANCH   7  15
HETATM   15  C   UNL     1     -10.349  14.901  68.363  1.00  0.00    -0.233 A  
HETATM   16  C   UNL     1     -12.291  14.303  69.486  1.00  0.00    -0.230 A  
HETATM   17  C   UNL     1     -10.512  15.255  70.738  1.00  0.00     0.054 A  
HETATM   18  C   UNL     1      -9.781  15.354  69.556  1.00  0.00    -0.259 A  
HETATM   19  N   UNL     1     -11.605  14.376  68.322  1.00  0.00    -0.310 NA 
HETATM   20  C   UNL     1     -11.790  14.718  70.707  1.00  0.00    -0.370 A  
ENDBRANCH   7  15
ENDBRANCH   6   7
ENDBRANCH   5   6
ENDBRANCH   4   5
ENDBRANCH   2   4
TORSDOF 6
ENDMDL
MODEL      184
REMARK 921   NORMALIZED FREE ENERGY PREDICTED BY IDOCK:   -2.65 KCAL/MOL
REMARK 922        TOTAL FREE ENERGY PREDICTED BY IDOCK:   -4.22 KCAL/MOL
REMARK 923 INTER-LIGAND FREE ENERGY PREDICTED BY IDOCK:   -3.59 KCAL/MOL
REMARK 924 INTRA-LIGAND FREE ENERGY PREDICTED BY IDOCK:   -0.64 KCAL/MOL
REMARK 927      BINDING AFFINITY PREDICTED BY RF-SCORE:    0.00 PKD
ROOT
HETATM    1  C   UNL     1      -8.138   5.334  66.499  1.00  0.00    -0.108 C  
HETATM    2  N   UNL     1      -9.548   5.196  66.874  1.00  0.00    -0.137 NA 
HETATM    3  C   UNL     1      -9.647   4.445  68.130  1.00  0.00    -0.142 C  
ENDROOT
BRANCH   2   4
HETATM    4  C   UNL     1     -10.175   6.532  66.963  1.00  0.00    -0.215 C  
BRANCH   4   5
HETATM    5  C   UNL     1      -9.315   7.657  66.373  1.00  0.00    -0.172 C  
BRANCH   5   6
HETATM    6  O   UNL     1      -9.361   8.825  67.208  1.00  0.00    -0.142 OA 
BRANCH   6   7
HETATM    7  C   UNL     1      -9.912   8.534  68.519  1.00  0.00    -0.184 C  
BRANCH   7   8
HETATM    8  C   UNL     1      -8.779   8.158  69.473  1.00  0.00    -0.142 A  
HETATM    9  C   UNL     1      -7.662   9.005  69.590  1.00  0.00    -0.075 A  
HETATM   10  C   UNL     1      -8.910   7.084  70.370  1.00  0.00    -0.155 A  
HETATM   11 CL   UNL     1      -5.815   7.599  72.841  1.00  0.00    -0.044 Cl 
HETATM   12  C   UNL     1      -6.739   8.822  70.621  1.00  0.00    -0.048 A  
HETATM   13  C   UNL     1      -7.978   6.894  71.390  1.00  0.00    -0.108 A  
HETATM   14  C   UNL     1      -6.908   7.776  71.524  1.00  0.00    -0.050 A  
ENDBRANCH   7   8
BRANCH   7  15
HETATM   15  C   UNL     1     -10.772   9.692  69.029  1.00  0.00    -0.211 A  
HETATM   16  C   UNL     1     -11.900  10.680  70.803  1.00  0.00    -0.357 A  
HETATM   17  C   UNL     1     -11.860  11.817  68.718  1.00  0.00    -0.380 A  
HETATM   18  C   UNL     1     -11.111  10.763  68.198  1.00  0.00    -0.337 A  
HETATM   19  N   UNL     1     -11.166   9.645  70.332  1.00  0.00    -0.265 NA 
HETATM   20  C   UNL     1     -12.262  11.780  70.045  1.00  0.00    -0.317 A  
ENDBRANCH   7  15
ENDBRANCH   6   7
ENDBRANCH   5   6
ENDBRANCH   4   5
ENDBRANCH   2   4
TORSDOF 6
ENDMDL
MODEL      185
REMARK 921   NORMALIZED FREE ENERGY PREDICTED BY IDOCK:   -2.56 KCAL/MOL
REMARK 922        TOTAL FREE ENERGY PREDICTED BY IDOCK:   -4.11 KCAL/MOL
REMARK 923 INTER-LIGAND FREE ENERGY PREDICTED BY IDOCK:   -3.52 KCAL/MOL
REMARK 924 INTRA-LIGAND FREE ENERGY PREDICTED BY IDOCK:   -0.59 KCAL/MOL
REMARK 927      BINDING AFFINITY PREDICTED BY RF-SCORE:    0.00 PKD
ROOT
HETATM    1  C   UNL     1      -9.323   3.873  63.426  1.00  0.00    -0.127 C  
HETATM    2  N   UNL     1      -9.713   2.782  64.324  1.00  0.00    -0.152 NA 
HETATM    3  C   UNL     1      -9.314   1.500  63.734  1.00  0.00    -0.109 C  
ENDROOT
BRANCH   2   4
HETATM    4  C   UNL     1      -9.120   3.000  65.660  1.00  0.00    -0.149 C  
BRANCH   4   5
HETATM    5  C   UNL     1      -9.619   4.272  66.358  1.00  0.00    -0.198 C  
BRANCH   5   6
HETATM    6  O   UNL     1      -9.098   4.359  67.694  1.00  0.00    -0.113 OA 
BRANCH   6   7
HETATM    7  C   UNL     1      -9.960   5.139  68.564  1.00  0.00    -0.154 C  
BRANCH   7   8
HETATM    8  C   UNL     1      -9.849   4.610  69.993  1.00  0.00    -0.294 A  
HETATM    9  C   UNL     1     -10.146   5.464  71.071  1.00  0.00    -0.281 A  
HETATM   10  C   UNL     1      -9.638   3.244  70.249  1.00  0.00    -0.198 A  
HETATM   11 CL   UNL     1     -10.384   2.943  74.161  1.00  0.00    -0.202 Cl 
HETATM   12  C   UNL     1     -10.295   4.950  72.361  1.00  0.00    -0.262 A  
HETATM   13  C   UNL     1      -9.774   2.736  71.541  1.00  0.00    -0.225 A  
HETATM   14  C   UNL     1     -10.122   3.587  72.587  1.00  0.00    -0.165 A  
ENDBRANCH   7   8
BRANCH   7  15
HETATM   15  C   UNL     1      -9.659   6.635  68.447  1.00  0.00    -0.123 A  
HETATM   16  C   UNL     1      -8.070   8.323  68.303  1.00  0.00    -0.124 A  
HETATM   17  C   UNL     1     -10.366   8.921  68.175  1.00  0.00    -0.261 A  
HETATM   18  C   UNL     1     -10.687   7.573  68.323  1.00  0.00    -0.128 A  
HETATM   19  N   UNL     1      -8.348   7.005  68.439  1.00  0.00    -0.124 NA 
HETATM   20  C   UNL     1      -9.034   9.306  68.162  1.00  0.00    -0.128 A  
ENDBRANCH   7  15
ENDBRANCH   6   7
ENDBRANCH   5   6
ENDBRANCH   4   5
ENDBRANCH   2   4
TORSDOF 6
ENDMDL
MODEL      186
REMARK 921   NORMALIZED FREE ENERGY PREDICTED BY IDOCK:   -2.52 KCAL/MOL
REMARK 922        TOTAL FREE ENERGY PREDICTED BY IDOCK:   -4.05 KCAL/MOL
REMARK 923 INTER-LIGAND FREE ENERGY PREDICTED BY IDOCK:   -4.44 KCAL/MOL
REMARK 924 INTRA-LIGAND FREE ENERGY PREDICTED BY IDOCK:    0.39 KCAL/MOL
REMARK 927      BINDING AFFINITY PREDICTED BY RF-SCORE:    0.00 PKD
ROOT
HETATM    1  C   UNL     1      -8.728  10.062  69.413  1.00  0.00    -0.186 C  
HETATM    2  N   UNL     1      -7.860  11.241  69.470  1.00  0.00     0.133 NA 
HETATM    3  C   UNL     1      -6.554  10.859  70.018  1.00  0.00    -0.151 C  
ENDROOT
BRANCH   2   4
HETATM    4  C   UNL     1      -7.754  11.850  68.127  1.00  0.00    -0.126 C  
BRANCH   4   5
HETATM    5  C   UNL     1      -8.296  13.283  68.054  1.00  0.00    -0.162 C  
BRANCH   5   6
HETATM    6  O   UNL     1      -8.853  13.553  66.758  1.00  0.00    -0.213 OA 
BRANCH   6   7
HETATM    7  C   UNL     1      -9.675  14.749  66.757  1.00  0.00    -0.254 C  
BRANCH   7   8
HETATM    8  C   UNL     1     -10.554  14.760  68.007  1.00  0.00    -0.244 A  
HETATM    9  C   UNL     1     -11.623  13.851  68.109  1.00  0.00    -0.370 A  
HETATM   10  C   UNL     1     -10.209  15.528  69.132  1.00  0.00    -0.240 A  
HETATM   11 CL   UNL     1     -12.658  14.125  71.958  1.00  0.00    -0.375 Cl 
HETATM   12  C   UNL     1     -12.283  13.667  69.326  1.00  0.00    -0.283 A  
HETATM   13  C   UNL     1     -10.879  15.353  70.343  1.00  0.00    -0.333 A  
HETATM   14  C   UNL     1     -11.899  14.409  70.440  1.00  0.00    -0.312 A  
ENDBRANCH   7   8
BRANCH   7  15
HETATM   15  C   UNL     1      -8.822  16.010  66.606  1.00  0.00    -0.272 A  
HETATM   16  C   UNL     1      -8.668  18.214  65.890  1.00  0.00     0.203 A  
HETATM   17  C   UNL     1      -6.790  17.247  66.976  1.00  0.00    -0.225 A  
HETATM   18  C   UNL     1      -7.515  16.063  67.097  1.00  0.00    -0.253 A  
HETATM   19  N   UNL     1      -9.403  17.083  66.000  1.00  0.00    -0.497 NA 
HETATM   20  C   UNL     1      -7.375  18.346  66.364  1.00  0.00    -0.279 A  
ENDBRANCH   7  15
ENDBRANCH   6   7
ENDBRANCH   5   6
ENDBRANCH   4   5
ENDBRANCH   2   4
TORSDOF 6
ENDMDL
MODEL      187
REMARK 921   NORMALIZED FREE ENERGY PREDICTED BY IDOCK:   -2.49 KCAL/MOL
REMARK 922        TOTAL FREE ENERGY PREDICTED BY IDOCK:   -4.01 KCAL/MOL
REMARK 923 INTER-LIGAND FREE ENERGY PREDICTED BY IDOCK:   -4.61 KCAL/MOL
REMARK 924 INTRA-LIGAND FREE ENERGY PREDICTED BY IDOCK:    0.59 KCAL/MOL
REMARK 927      BINDING AFFINITY PREDICTED BY RF-SCORE:    0.00 PKD
ROOT
HETATM    1  C   UNL     1      -5.807   6.412  68.813  1.00  0.00    -0.020 C  
HETATM    2  N   UNL     1      -7.175   6.668  69.276  1.00  0.00    -0.087 NA 
HETATM    3  C   UNL     1      -7.677   5.489  69.988  1.00  0.00    -0.078 C  
ENDROOT
BRANCH   2   4
HETATM    4  C   UNL     1      -7.199   7.887  70.111  1.00  0.00    -0.058 C  
BRANCH   4   5
HETATM    5  C   UNL     1      -8.586   8.220  70.678  1.00  0.00    -0.136 C  
BRANCH   5   6
HETATM    6  O   UNL     1      -8.965   9.564  70.341  1.00  0.00    -0.237 OA 
BRANCH   6   7
HETATM    7  C   UNL     1     -10.252   9.615  69.672  1.00  0.00    -0.222 C  
BRANCH   7   8
HETATM    8  C   UNL     1     -10.312   8.521  68.606  1.00  0.00    -0.224 A  
HETATM    9  C   UNL     1      -9.647   8.712  67.381  1.00  0.00    -0.204 A  
HETATM   10  C   UNL     1     -10.858   7.258  68.890  1.00  0.00    -0.119 A  
HETATM   11 CL   UNL     1      -9.705   5.062  65.758  1.00  0.00    -0.174 Cl 
HETATM   12  C   UNL     1      -9.474   7.647  66.495  1.00  0.00    -0.250 A  
HETATM   13  C   UNL     1     -10.697   6.198  67.996  1.00  0.00    -0.370 A  
HETATM   14  C   UNL     1      -9.987   6.392  66.813  1.00  0.00    -0.171 A  
ENDBRANCH   7   8
BRANCH   7  15
HETATM   15  C   UNL     1     -11.404   9.544  70.676  1.00  0.00    -0.301 A  
HETATM   16  C   UNL     1     -13.153  10.629  71.752  1.00  0.00    -0.466 A  
HETATM   17  C   UNL     1     -12.817   8.320  72.194  1.00  0.00    -0.348 A  
HETATM   18  C   UNL     1     -11.732   8.348  71.320  1.00  0.00    -0.325 A  
HETATM   19  N   UNL     1     -12.111  10.688  70.891  1.00  0.00    -0.361 NA 
HETATM   20  C   UNL     1     -13.544   9.479  72.415  1.00  0.00    -0.459 A  
ENDBRANCH   7  15
ENDBRANCH   6   7
ENDBRANCH   5   6
ENDBRANCH   4   5
ENDBRANCH   2   4
TORSDOF 6
ENDMDL
MODEL      188
REMARK 921   NORMALIZED FREE ENERGY PREDICTED BY IDOCK:   -2.49 KCAL/MOL
REMARK 922        TOTAL FREE ENERGY PREDICTED BY IDOCK:   -4.01 KCAL/MOL
REMARK 923 INTER-LIGAND FREE ENERGY PREDICTED BY IDOCK:   -3.12 KCAL/MOL
REMARK 924 INTRA-LIGAND FREE ENERGY PREDICTED BY IDOCK:   -0.89 KCAL/MOL
REMARK 927      BINDING AFFINITY PREDICTED BY RF-SCORE:    0.00 PKD
ROOT
HETATM    1  C   UNL     1      -6.044  10.732  65.995  1.00  0.00    -0.133 C  
HETATM    2  N   UNL     1      -7.431  10.616  66.454  1.00  0.00    -0.132 NA 
HETATM    3  C   UNL     1      -8.041   9.420  65.863  1.00  0.00    -0.114 C  
ENDROOT
BRANCH   2   4
HETATM    4  C   UNL     1      -7.469  10.599  67.931  1.00  0.00    -0.090 C  
BRANCH   4   5
HETATM    5  C   UNL     1      -8.849  10.259  68.510  1.00  0.00    -0.127 C  
BRANCH   5   6
HETATM    6  O   UNL     1      -8.750   9.200  69.475  1.00  0.00    -0.129 OA 
BRANCH   6   7
HETATM    7  C   UNL     1      -9.699   8.133  69.210  1.00  0.00    -0.170 C  
BRANCH   7   8
HETATM    8  C   UNL     1      -8.997   7.006  68.455  1.00  0.00    -0.122 A  
HETATM    9  C   UNL     1      -9.673   6.345  67.413  1.00  0.00    -0.141 A  
HETATM   10  C   UNL     1      -7.631   6.740  68.651  1.00  0.00    -0.105 A  
HETATM   11 CL   UNL     1      -6.755   4.285  65.623  1.00  0.00    -0.051 Cl 
HETATM   12  C   UNL     1      -8.983   5.492  66.549  1.00  0.00    -0.123 A  
HETATM   13  C   UNL     1      -6.947   5.876  67.795  1.00  0.00    -0.069 A  
HETATM   14  C   UNL     1      -7.621   5.273  66.736  1.00  0.00    -0.088 A  
ENDBRANCH   7   8
BRANCH   7  15
HETATM   15  C   UNL     1     -10.382   7.665  70.497  1.00  0.00    -0.211 A  
HETATM   16  C   UNL     1     -12.184   6.595  71.497  1.00  0.00    -0.340 A  
HETATM   17  C   UNL     1     -10.417   7.363  72.886  1.00  0.00    -0.344 A  
HETATM   18  C   UNL     1      -9.778   7.845  71.744  1.00  0.00    -0.219 A  
HETATM   19  N   UNL     1     -11.586   7.042  70.369  1.00  0.00    -0.309 NA 
HETATM   20  C   UNL     1     -11.641   6.724  72.763  1.00  0.00    -0.105 A  
ENDBRANCH   7  15
ENDBRANCH   6   7
ENDBRANCH   5   6
ENDBRANCH   4   5
ENDBRANCH   2   4
TORSDOF 6
ENDMDL
MODEL      189
REMARK 921   NORMALIZED FREE ENERGY PREDICTED BY IDOCK:   -2.45 KCAL/MOL
REMARK 922        TOTAL FREE ENERGY PREDICTED BY IDOCK:   -3.96 KCAL/MOL
REMARK 923 INTER-LIGAND FREE ENERGY PREDICTED BY IDOCK:   -4.27 KCAL/MOL
REMARK 924 INTRA-LIGAND FREE ENERGY PREDICTED BY IDOCK:    0.31 KCAL/MOL
REMARK 927      BINDING AFFINITY PREDICTED BY RF-SCORE:    0.00 PKD
ROOT
HETATM    1  C   UNL     1     -11.412   6.421  69.845  1.00  0.00    -0.415 C  
HETATM    2  N   UNL     1     -10.374   6.645  68.833  1.00  0.00    -0.180 NA 
HETATM    3  C   UNL     1      -9.466   5.494  68.804  1.00  0.00    -0.129 C  
ENDROOT
BRANCH   2   4
HETATM    4  C   UNL     1     -11.003   6.904  67.521  1.00  0.00    -0.270 C  
BRANCH   4   5
HETATM    5  C   UNL     1     -10.464   8.154  66.814  1.00  0.00    -0.246 C  
BRANCH   5   6
HETATM    6  O   UNL     1      -9.460   8.799  67.613  1.00  0.00    -0.138 OA 
BRANCH   6   7
HETATM    7  C   UNL     1      -8.969  10.016  66.991  1.00  0.00    -0.138 C  
BRANCH   7   8
HETATM    8  C   UNL     1      -8.169   9.658  65.740  1.00  0.00    -0.120 A  
HETATM    9  C   UNL     1      -7.022  10.405  65.415  1.00  0.00    -0.118 A  
HETATM   10  C   UNL     1      -8.445   8.489  65.010  1.00  0.00    -0.183 A  
HETATM   11 CL   UNL     1      -5.281   8.178  62.592  1.00  0.00    -0.062 Cl 
HETATM   12  C   UNL     1      -6.139   9.955  64.431  1.00  0.00    -0.117 A  
HETATM   13  C   UNL     1      -7.569   8.049  64.017  1.00  0.00    -0.124 A  
HETATM   14  C   UNL     1      -6.409   8.773  63.747  1.00  0.00    -0.080 A  
ENDBRANCH   7   8
BRANCH   7  15
HETATM   15  C   UNL     1     -10.109  11.000  66.720  1.00  0.00    -0.220 A  
HETATM   16  C   UNL     1     -11.685  12.478  67.573  1.00  0.00    -0.374 A  
HETATM   17  C   UNL     1     -11.519  12.243  65.216  1.00  0.00    -0.399 A  
HETATM   18  C   UNL     1     -10.505  11.308  65.416  1.00  0.00    -0.326 A  
HETATM   19  N   UNL     1     -10.697  11.581  67.803  1.00  0.00    -0.197 NA 
HETATM   20  C   UNL     1     -12.120  12.843  66.312  1.00  0.00    -0.433 A  
ENDBRANCH   7  15
ENDBRANCH   6   7
ENDBRANCH   5   6
ENDBRANCH   4   5
ENDBRANCH   2   4
TORSDOF 6
ENDMDL
MODEL      190
REMARK 921   NORMALIZED FREE ENERGY PREDICTED BY IDOCK:   -2.41 KCAL/MOL
REMARK 922        TOTAL FREE ENERGY PREDICTED BY IDOCK:   -3.90 KCAL/MOL
REMARK 923 INTER-LIGAND FREE ENERGY PREDICTED BY IDOCK:   -4.27 KCAL/MOL
REMARK 924 INTRA-LIGAND FREE ENERGY PREDICTED BY IDOCK:    0.37 KCAL/MOL
REMARK 927      BINDING AFFINITY PREDICTED BY RF-SCORE:    0.00 PKD
ROOT
HETATM    1  C   UNL     1      -8.955  12.483  66.720  1.00  0.00    -0.198 C  
HETATM    2  N   UNL     1      -8.553  11.909  68.008  1.00  0.00    -0.160 NA 
HETATM    3  C   UNL     1      -7.560  12.783  68.641  1.00  0.00    -0.085 C  
ENDROOT
BRANCH   2   4
HETATM    4  C   UNL     1      -9.745  11.699  68.855  1.00  0.00    -0.013 C  
BRANCH   4   5
HETATM    5  C   UNL     1      -9.858  10.278  69.422  1.00  0.00    -0.227 C  
BRANCH   5   6
HETATM    6  O   UNL     1      -8.654   9.906  70.111  1.00  0.00    -0.195 OA 
BRANCH   6   7
HETATM    7  C   UNL     1      -8.603   8.482  70.389  1.00  0.00    -0.143 C  
BRANCH   7   8
HETATM    8  C   UNL     1      -9.974   8.011  70.871  1.00  0.00    -0.207 A  
HETATM    9  C   UNL     1     -10.614   8.699  71.917  1.00  0.00    -0.411 A  
HETATM   10  C   UNL     1     -10.691   7.024  70.172  1.00  0.00    -0.265 A  
HETATM   11 CL   UNL     1     -14.336   7.253  71.789  1.00  0.00    -0.573 Cl 
HETATM   12  C   UNL     1     -11.957   8.453  72.211  1.00  0.00    -0.455 A  
HETATM   13  C   UNL     1     -12.028   6.769  70.477  1.00  0.00    -0.385 A  
HETATM   14  C   UNL     1     -12.661   7.500  71.480  1.00  0.00    -0.359 A  
ENDBRANCH   7   8
BRANCH   7  15
HETATM   15  C   UNL     1      -8.084   7.699  69.181  1.00  0.00    -0.125 A  
HETATM   16  C   UNL     1      -6.954   5.838  68.374  1.00  0.00    -0.068 A  
HETATM   17  C   UNL     1      -7.885   7.359  66.806  1.00  0.00    -0.110 A  
HETATM   18  C   UNL     1      -8.339   8.128  67.876  1.00  0.00    -0.129 A  
HETATM   19  N   UNL     1      -7.390   6.555  69.435  1.00  0.00    -0.089 NA 
HETATM   20  C   UNL     1      -7.181   6.191  67.055  1.00  0.00    -0.074 A  
ENDBRANCH   7  15
ENDBRANCH   6   7
ENDBRANCH   5   6
ENDBRANCH   4   5
ENDBRANCH   2   4
TORSDOF 6
ENDMDL
MODEL      191
REMARK 921   NORMALIZED FREE ENERGY PREDICTED BY IDOCK:   -2.39 KCAL/MOL
REMARK 922        TOTAL FREE ENERGY PREDICTED BY IDOCK:   -3.88 KCAL/MOL
REMARK 923 INTER-LIGAND FREE ENERGY PREDICTED BY IDOCK:   -3.74 KCAL/MOL
REMARK 924 INTRA-LIGAND FREE ENERGY PREDICTED BY IDOCK:   -0.13 KCAL/MOL
REMARK 927      BINDING AFFINITY PREDICTED BY RF-SCORE:    0.00 PKD
ROOT
HETATM    1  C   UNL     1      -6.915  11.560  66.982  1.00  0.00    -0.145 C  
HETATM    2  N   UNL     1      -7.485  11.402  68.323  1.00  0.00    -0.094 NA 
HETATM    3  C   UNL     1      -6.736  12.234  69.271  1.00  0.00    -0.075 C  
ENDROOT
BRANCH   2   4
HETATM    4  C   UNL     1      -8.925  11.731  68.296  1.00  0.00    -0.180 C  
BRANCH   4   5
HETATM    5  C   UNL     1      -9.808  10.696  69.006  1.00  0.00    -0.205 C  
BRANCH   5   6
HETATM    6  O   UNL     1     -10.710  10.072  68.078  1.00  0.00    -0.223 OA 
BRANCH   6   7
HETATM    7  C   UNL     1     -11.029   8.709  68.463  1.00  0.00     0.176 C  
BRANCH   7   8
HETATM    8  C   UNL     1     -10.266   7.736  67.564  1.00  0.00    -0.301 A  
HETATM    9  C   UNL     1     -10.673   6.392  67.497  1.00  0.00    -0.396 A  
HETATM   10  C   UNL     1      -9.287   8.193  66.665  1.00  0.00    -0.250 A  
HETATM   11 CL   UNL     1      -8.656   5.006  64.340  1.00  0.00    -0.142 Cl 
HETATM   12  C   UNL     1     -10.163   5.545  66.511  1.00  0.00    -0.273 A  
HETATM   13  C   UNL     1      -8.768   7.341  65.689  1.00  0.00    -0.092 A  
HETATM   14  C   UNL     1      -9.224   6.027  65.603  1.00  0.00     0.045 A  
ENDBRANCH   7   8
BRANCH   7  15
HETATM   15  C   UNL     1     -10.776   8.479  69.955  1.00  0.00    -0.224 A  
HETATM   16  C   UNL     1     -11.594   8.543  72.127  1.00  0.00    -0.377 A  
HETATM   17  C   UNL     1      -9.391   7.729  71.776  1.00  0.00    -0.179 A  
HETATM   18  C   UNL     1      -9.561   7.963  70.412  1.00  0.00    -0.171 A  
HETATM   19  N   UNL     1     -11.795   8.773  70.809  1.00  0.00    -0.230 NA 
HETATM   20  C   UNL     1     -10.425   8.022  72.652  1.00  0.00    -0.408 A  
ENDBRANCH   7  15
ENDBRANCH   6   7
ENDBRANCH   5   6
ENDBRANCH   4   5
ENDBRANCH   2   4
TORSDOF 6
ENDMDL
MODEL      192
REMARK 921   NORMALIZED FREE ENERGY PREDICTED BY IDOCK:   -2.14 KCAL/MOL
REMARK 922        TOTAL FREE ENERGY PREDICTED BY IDOCK:   -3.54 KCAL/MOL
REMARK 923 INTER-LIGAND FREE ENERGY PREDICTED BY IDOCK:   -3.15 KCAL/MOL
REMARK 924 INTRA-LIGAND FREE ENERGY PREDICTED BY IDOCK:   -0.39 KCAL/MOL
REMARK 927      BINDING AFFINITY PREDICTED BY RF-SCORE:    0.00 PKD
ROOT
HETATM    1  C   UNL     1     -12.696  12.058  63.456  1.00  0.00    -0.443 C  
HETATM    2  N   UNL     1     -11.437  12.634  63.937  1.00  0.00    -0.406 NA 
HETATM    3  C   UNL     1     -11.668  13.304  65.222  1.00  0.00    -0.330 C  
ENDROOT
BRANCH   2   4
HETATM    4  C   UNL     1     -10.406  11.579  64.027  1.00  0.00    -0.355 C  
BRANCH   4   5
HETATM    5  C   UNL     1      -9.110  12.038  64.708  1.00  0.00     0.506 C  
BRANCH   5   6
HETATM    6  O   UNL     1      -8.964  11.421  65.997  1.00  0.00    -0.206 OA 
BRANCH   6   7
HETATM    7  C   UNL     1      -9.488  10.067  66.013  1.00  0.00    -0.197 C  
BRANCH   7   8
HETATM    8  C   UNL     1      -8.479   9.125  65.360  1.00  0.00    -0.163 A  
HETATM    9  C   UNL     1      -8.720   8.645  64.060  1.00  0.00     0.061 A  
HETATM   10  C   UNL     1      -7.229   8.874  65.953  1.00  0.00    -0.089 A  
HETATM   11 CL   UNL     1      -5.203   7.055  63.030  1.00  0.00    -0.032 Cl 
HETATM   12  C   UNL     1      -7.713   7.992  63.347  1.00  0.00    -0.140 A  
HETATM   13  C   UNL     1      -6.229   8.208  65.244  1.00  0.00    -0.045 A  
HETATM   14  C   UNL     1      -6.468   7.789  63.937  1.00  0.00    -0.058 A  
ENDBRANCH   7   8
BRANCH   7  15
HETATM   15  C   UNL     1      -9.885   9.643  67.429  1.00  0.00    -0.171 A  
HETATM   16  C   UNL     1     -10.390  10.268  69.608  1.00  0.00    -0.248 A  
HETATM   17  C   UNL     1     -10.541   7.969  69.031  1.00  0.00    -0.169 A  
HETATM   18  C   UNL     1     -10.140   8.304  67.739  1.00  0.00    -0.262 A  
HETATM   19  N   UNL     1     -10.007  10.629  68.360  1.00  0.00    -0.158 NA 
HETATM   20  C   UNL     1     -10.672   8.967  69.985  1.00  0.00    -0.247 A  
ENDBRANCH   7  15
ENDBRANCH   6   7
ENDBRANCH   5   6
ENDBRANCH   4   5
ENDBRANCH   2   4
TORSDOF 6
ENDMDL
MODEL      193
REMARK 921   NORMALIZED FREE ENERGY PREDICTED BY IDOCK:   -2.09 KCAL/MOL
REMARK 922        TOTAL FREE ENERGY PREDICTED BY IDOCK:   -3.47 KCAL/MOL
REMARK 923 INTER-LIGAND FREE ENERGY PREDICTED BY IDOCK:   -4.07 KCAL/MOL
REMARK 924 INTRA-LIGAND FREE ENERGY PREDICTED BY IDOCK:    0.60 KCAL/MOL
REMARK 927      BINDING AFFINITY PREDICTED BY RF-SCORE:    0.00 PKD
ROOT
HETATM    1  C   UNL     1      -7.337  11.129  66.821  1.00  0.00    -0.146 C  
HETATM    2  N   UNL     1      -6.568  11.690  67.937  1.00  0.00    -0.062 NA 
HETATM    3  C   UNL     1      -6.676  13.152  67.916  1.00  0.00    -0.138 C  
ENDROOT
BRANCH   2   4
HETATM    4  C   UNL     1      -7.037  11.105  69.210  1.00  0.00    -0.123 C  
BRANCH   4   5
HETATM    5  C   UNL     1      -8.068   9.983  69.032  1.00  0.00    -0.118 C  
BRANCH   5   6
HETATM    6  O   UNL     1      -9.289  10.298  69.720  1.00  0.00    -0.188 OA 
BRANCH   6   7
HETATM    7  C   UNL     1      -9.862   9.133  70.371  1.00  0.00    -0.218 C  
BRANCH   7   8
HETATM    8  C   UNL     1     -10.337   8.142  69.309  1.00  0.00    -0.222 A  
HETATM    9  C   UNL     1     -10.386   8.542  67.962  1.00  0.00    -0.272 A  
HETATM   10  C   UNL     1     -10.549   6.788  69.621  1.00  0.00    -0.267 A  
HETATM   11 CL   UNL     1     -10.893   5.085  66.024  1.00  0.00    -0.271 Cl 
HETATM   12  C   UNL     1     -10.574   7.600  66.949  1.00  0.00    -0.359 A  
HETATM   13  C   UNL     1     -10.751   5.850  68.608  1.00  0.00    -0.339 A  
HETATM   14  C   UNL     1     -10.742   6.257  67.276  1.00  0.00    -0.349 A  
ENDBRANCH   7   8
BRANCH   7  15
HETATM   15  C   UNL     1      -8.884   8.521  71.376  1.00  0.00    -0.198 A  
HETATM   16  C   UNL     1      -8.333   8.114  73.595  1.00  0.00    -0.242 A  
HETATM   17  C   UNL     1      -6.922   7.228  71.902  1.00  0.00    -0.059 A  
HETATM   18  C   UNL     1      -7.762   7.806  70.951  1.00  0.00    -0.087 A  
HETATM   19  N   UNL     1      -9.173   8.679  72.698  1.00  0.00    -0.329 NA 
HETATM   20  C   UNL     1      -7.211   7.381  73.249  1.00  0.00    -0.084 A  
ENDBRANCH   7  15
ENDBRANCH   6   7
ENDBRANCH   5   6
ENDBRANCH   4   5
ENDBRANCH   2   4
TORSDOF 6
ENDMDL
MODEL      194
REMARK 921   NORMALIZED FREE ENERGY PREDICTED BY IDOCK:   -2.05 KCAL/MOL
REMARK 922        TOTAL FREE ENERGY PREDICTED BY IDOCK:   -3.42 KCAL/MOL
REMARK 923 INTER-LIGAND FREE ENERGY PREDICTED BY IDOCK:   -3.94 KCAL/MOL
REMARK 924 INTRA-LIGAND FREE ENERGY PREDICTED BY IDOCK:    0.52 KCAL/MOL
REMARK 927      BINDING AFFINITY PREDICTED BY RF-SCORE:    0.00 PKD
ROOT
HETATM    1  C   UNL     1      -5.467  10.395  71.006  1.00  0.00    -0.087 C  
HETATM    2  N   UNL     1      -5.985  11.253  69.937  1.00  0.00    -0.101 NA 
HETATM    3  C   UNL     1      -5.318  12.558  69.994  1.00  0.00    -0.103 C  
ENDROOT
BRANCH   2   4
HETATM    4  C   UNL     1      -5.809  10.585  68.630  1.00  0.00    -0.040 C  
BRANCH   4   5
HETATM    5  C   UNL     1      -7.048   9.812  68.161  1.00  0.00    -0.078 C  
BRANCH   5   6
HETATM    6  O   UNL     1      -7.258   9.993  66.751  1.00  0.00    -0.089 OA 
BRANCH   6   7
HETATM    7  C   UNL     1      -8.535   9.454  66.318  1.00  0.00    -0.126 C  
BRANCH   7   8
HETATM    8  C   UNL     1      -9.571   9.656  67.423  1.00  0.00    -0.183 A  
HETATM    9  C   UNL     1     -10.012   8.548  68.169  1.00  0.00    -0.214 A  
HETATM   10  C   UNL     1      -9.955  10.944  67.833  1.00  0.00    -0.195 A  
HETATM   11 CL   UNL     1     -11.949  10.245  71.223  1.00  0.00    -0.463 Cl 
HETATM   12  C   UNL     1     -10.760   8.730  69.334  1.00  0.00    -0.180 A  
HETATM   13  C   UNL     1     -10.715  11.123  68.989  1.00  0.00    -0.265 A  
HETATM   14  C   UNL     1     -11.096  10.017  69.746  1.00  0.00    -0.274 A  
ENDBRANCH   7   8
BRANCH   7  15
HETATM   15  C   UNL     1      -8.961  10.047  64.973  1.00  0.00    -0.199 A  
HETATM   16  C   UNL     1      -8.896   9.925  62.655  1.00  0.00    -0.239 A  
HETATM   17  C   UNL     1     -10.206  11.633  63.659  1.00  0.00    -0.451 A  
HETATM   18  C   UNL     1      -9.809  11.154  64.906  1.00  0.00    -0.316 A  
HETATM   19  N   UNL     1      -8.500   9.429  63.850  1.00  0.00    -0.186 NA 
HETATM   20  C   UNL     1      -9.745  11.009  62.510  1.00  0.00    -0.149 A  
ENDBRANCH   7  15
ENDBRANCH   6   7
ENDBRANCH   5   6
ENDBRANCH   4   5
ENDBRANCH   2   4
TORSDOF 6
ENDMDL
MODEL      195
REMARK 921   NORMALIZED FREE ENERGY PREDICTED BY IDOCK:   -1.97 KCAL/MOL
REMARK 922        TOTAL FREE ENERGY PREDICTED BY IDOCK:   -3.31 KCAL/MOL
REMARK 923 INTER-LIGAND FREE ENERGY PREDICTED BY IDOCK:   -3.97 KCAL/MOL
REMARK 924 INTRA-LIGAND FREE ENERGY PREDICTED BY IDOCK:    0.67 KCAL/MOL
REMARK 927      BINDING AFFINITY PREDICTED BY RF-SCORE:    0.00 PKD
ROOT
HETATM    1  C   UNL     1     -11.405   6.346  69.942  1.00  0.00    -0.434 C  
HETATM    2  N   UNL     1     -10.299   6.711  69.051  1.00  0.00    -0.180 NA 
HETATM    3  C   UNL     1      -9.149   5.842  69.321  1.00  0.00    -0.118 C  
ENDROOT
BRANCH   2   4
HETATM    4  C   UNL     1     -10.746   6.638  67.645  1.00  0.00    -0.302 C  
BRANCH   4   5
HETATM    5  C   UNL     1     -10.622   7.968  66.888  1.00  0.00    -0.254 C  
BRANCH   5   6
HETATM    6  O   UNL     1      -9.650   8.821  67.512  1.00  0.00    -0.144 OA 
BRANCH   6   7
HETATM    7  C   UNL     1      -8.702   9.358  66.552  1.00  0.00    -0.134 C  
BRANCH   7   8
HETATM    8  C   UNL     1      -7.855   8.220  65.985  1.00  0.00    -0.095 A  
HETATM    9  C   UNL     1      -6.452   8.309  66.037  1.00  0.00    -0.049 A  
HETATM   10  C   UNL     1      -8.442   7.008  65.582  1.00  0.00    -0.144 A  
HETATM   11 CL   UNL     1      -5.290   4.595  65.136  1.00  0.00    -0.013 Cl 
HETATM   12  C   UNL     1      -5.660   7.193  65.759  1.00  0.00    -0.032 A  
HETATM   13  C   UNL     1      -7.648   5.898  65.290  1.00  0.00    -0.086 A  
HETATM   14  C   UNL     1      -6.262   5.990  65.400  1.00  0.00    -0.037 A  
ENDBRANCH   7   8
BRANCH   7  15
HETATM   15  C   UNL     1      -9.410  10.182  65.474  1.00  0.00    -0.207 A  
HETATM   16  C   UNL     1     -10.830  11.943  64.952  1.00  0.00    -0.305 A  
HETATM   17  C   UNL     1      -9.834  10.731  63.169  1.00  0.00    -0.378 A  
HETATM   18  C   UNL     1      -9.203   9.927  64.116  1.00  0.00    -0.312 A  
HETATM   19  N   UNL     1     -10.225  11.188  65.897  1.00  0.00    -0.244 NA 
HETATM   20  C   UNL     1     -10.662  11.760  63.591  1.00  0.00    -0.503 A  
ENDBRANCH   7  15
ENDBRANCH   6   7
ENDBRANCH   5   6
ENDBRANCH   4   5
ENDBRANCH   2   4
TORSDOF 6
ENDMDL
MODEL      196
REMARK 921   NORMALIZED FREE ENERGY PREDICTED BY IDOCK:   -1.93 KCAL/MOL
REMARK 922        TOTAL FREE ENERGY PREDICTED BY IDOCK:   -3.25 KCAL/MOL
REMARK 923 INTER-LIGAND FREE ENERGY PREDICTED BY IDOCK:   -3.94 KCAL/MOL
REMARK 924 INTRA-LIGAND FREE ENERGY PREDICTED BY IDOCK:    0.69 KCAL/MOL
REMARK 927      BINDING AFFINITY PREDICTED BY RF-SCORE:    0.00 PKD
ROOT
HETATM    1  C   UNL     1      -9.718  11.272  62.998  1.00  0.00    -0.366 C  
HETATM    2  N   UNL     1      -9.468  10.155  63.913  1.00  0.00    -0.286 NA 
HETATM    3  C   UNL     1      -8.028  10.055  64.177  1.00  0.00    -0.152 C  
ENDROOT
BRANCH   2   4
HETATM    4  C   UNL     1     -10.259  10.333  65.148  1.00  0.00    -0.224 C  
BRANCH   4   5
HETATM    5  C   UNL     1      -9.883   9.355  66.269  1.00  0.00    -0.281 C  
BRANCH   5   6
HETATM    6  O   UNL     1     -10.905   9.318  67.278  1.00  0.00    -0.238 OA 
BRANCH   6   7
HETATM    7  C   UNL     1     -10.485   9.975  68.502  1.00  0.00    -0.202 C  
BRANCH   7   8
HETATM    8  C   UNL     1      -9.616   9.019  69.318  1.00  0.00    -0.162 A  
HETATM    9  C   UNL     1      -9.189   7.809  68.741  1.00  0.00    -0.139 A  
HETATM   10  C   UNL     1      -9.081   9.403  70.560  1.00  0.00    -0.308 A  
HETATM   11 CL   UNL     1      -6.384   6.549  71.292  1.00  0.00    -0.041 Cl 
HETATM   12  C   UNL     1      -8.203   7.039  69.360  1.00  0.00    -0.132 A  
HETATM   13  C   UNL     1      -8.106   8.624  71.183  1.00  0.00    -0.176 A  
HETATM   14  C   UNL     1      -7.656   7.457  70.570  1.00  0.00    -0.087 A  
ENDBRANCH   7   8
BRANCH   7  15
HETATM   15  C   UNL     1      -9.802  11.313  68.208  1.00  0.00    -0.197 A  
HETATM   16  C   UNL     1      -7.848  12.460  67.698  1.00  0.00    -0.163 A  
HETATM   17  C   UNL     1      -9.877  13.688  67.821  1.00  0.00    -0.232 A  
HETATM   18  C   UNL     1     -10.534  12.500  68.135  1.00  0.00    -0.238 A  
HETATM   19  N   UNL     1      -8.457  11.288  67.992  1.00  0.00    -0.132 NA 
HETATM   20  C   UNL     1      -8.509  13.671  67.596  1.00  0.00    -0.183 A  
ENDBRANCH   7  15
ENDBRANCH   6   7
ENDBRANCH   5   6
ENDBRANCH   4   5
ENDBRANCH   2   4
TORSDOF 6
ENDMDL
MODEL      197
REMARK 921   NORMALIZED FREE ENERGY PREDICTED BY IDOCK:   -1.90 KCAL/MOL
REMARK 922        TOTAL FREE ENERGY PREDICTED BY IDOCK:   -3.22 KCAL/MOL
REMARK 923 INTER-LIGAND FREE ENERGY PREDICTED BY IDOCK:   -6.09 KCAL/MOL
REMARK 924 INTRA-LIGAND FREE ENERGY PREDICTED BY IDOCK:    2.87 KCAL/MOL
REMARK 927      BINDING AFFINITY PREDICTED BY RF-SCORE:    0.00 PKD
ROOT
HETATM    1  C   UNL     1      -9.975  12.760  64.617  1.00  0.00    -0.134 C  
HETATM    2  N   UNL     1     -10.231  14.101  65.151  1.00  0.00    -0.391 NA 
HETATM    3  C   UNL     1     -11.414  14.669  64.495  1.00  0.00    -0.335 C  
ENDROOT
BRANCH   2   4
HETATM    4  C   UNL     1     -10.376  14.035  66.620  1.00  0.00    -0.278 C  
BRANCH   4   5
HETATM    5  C   UNL     1      -9.494  15.040  67.374  1.00  0.00    -0.201 C  
BRANCH   5   6
HETATM    6  O   UNL     1      -9.588  14.838  68.793  1.00  0.00    -0.208 OA 
BRANCH   6   7
HETATM    7  C   UNL     1     -10.072  16.022  69.480  1.00  0.00    -0.266 C  
BRANCH   7   8
HETATM    8  C   UNL     1     -10.293  17.142  68.464  1.00  0.00    -0.364 A  
HETATM    9  C   UNL     1     -10.257  18.481  68.893  1.00  0.00    -0.269 A  
HETATM   10  C   UNL     1     -10.347  16.874  67.086  1.00  0.00    -0.304 A  
HETATM   11 CL   UNL     1     -10.078  20.511  65.457  1.00  0.00    -0.015 Cl 
HETATM   12  C   UNL     1     -10.206  19.522  67.963  1.00  0.00    -0.552 A  
HETATM   13  C   UNL     1     -10.311  17.916  66.159  1.00  0.00    -0.352 A  
HETATM   14  C   UNL     1     -10.220  19.233  66.601  1.00  0.00    -0.421 A  
ENDBRANCH   7   8
BRANCH   7  15
HETATM   15  C   UNL     1     -11.314  15.710  70.317  1.00  0.00    -0.344 A  
HETATM   16  C   UNL     1     -12.545  16.110  72.245  1.00  0.00    -0.359 A  
HETATM   17  C   UNL     1     -13.430  14.605  70.634  1.00  0.00    -0.084 A  
HETATM   18  C   UNL     1     -12.294  14.826  69.858  1.00  0.00    -0.328 A  
HETATM   19  N   UNL     1     -11.435  16.353  71.511  1.00  0.00    -0.312 NA 
HETATM   20  C   UNL     1     -13.563  15.259  71.849  1.00  0.00    -0.575 A  
ENDBRANCH   7  15
ENDBRANCH   6   7
ENDBRANCH   5   6
ENDBRANCH   4   5
ENDBRANCH   2   4
TORSDOF 6
ENDMDL
MODEL      198
REMARK 921   NORMALIZED FREE ENERGY PREDICTED BY IDOCK:   -1.90 KCAL/MOL
REMARK 922        TOTAL FREE ENERGY PREDICTED BY IDOCK:   -3.21 KCAL/MOL
REMARK 923 INTER-LIGAND FREE ENERGY PREDICTED BY IDOCK:   -3.55 KCAL/MOL
REMARK 924 INTRA-LIGAND FREE ENERGY PREDICTED BY IDOCK:    0.34 KCAL/MOL
REMARK 927      BINDING AFFINITY PREDICTED BY RF-SCORE:    0.00 PKD
ROOT
HETATM    1  C   UNL     1     -12.871  16.449  73.157  1.00  0.00    -0.196 C  
HETATM    2  N   UNL     1     -12.005  15.321  72.802  1.00  0.00    -0.409 NA 
HETATM    3  C   UNL     1     -12.012  14.340  73.892  1.00  0.00     0.913 C  
ENDROOT
BRANCH   2   4
HETATM    4  C   UNL     1     -12.442  14.741  71.515  1.00  0.00    -0.339 C  
BRANCH   4   5
HETATM    5  C   UNL     1     -11.442  13.744  70.916  1.00  0.00     0.522 C  
BRANCH   5   6
HETATM    6  O   UNL     1     -12.045  12.997  69.847  1.00  0.00    -0.313 OA 
BRANCH   6   7
HETATM    7  C   UNL     1     -11.637  13.489  68.543  1.00  0.00    -0.333 C  
BRANCH   7   8
HETATM    8  C   UNL     1     -10.786  14.745  68.719  1.00  0.00    -0.253 A  
HETATM    9  C   UNL     1      -9.402  14.619  68.939  1.00  0.00    -0.160 A  
HETATM   10  C   UNL     1     -11.319  16.024  68.481  1.00  0.00    -0.382 A  
HETATM   11 CL   UNL     1      -8.070  18.346  68.399  1.00  0.00    -0.317 Cl 
HETATM   12  C   UNL     1      -8.566  15.734  68.856  1.00  0.00    -0.220 A  
HETATM   13  C   UNL     1     -10.484  17.140  68.413  1.00  0.00    -0.376 A  
HETATM   14  C   UNL     1      -9.109  16.986  68.580  1.00  0.00    -0.259 A  
ENDBRANCH   7   8
BRANCH   7  15
HETATM   15  C   UNL     1     -10.941  12.395  67.730  1.00  0.00    -0.228 A  
HETATM   16  C   UNL     1      -9.892  10.323  67.701  1.00  0.00    -0.171 A  
HETATM   17  C   UNL     1     -10.211  11.454  65.637  1.00  0.00    -0.298 A  
HETATM   18  C   UNL     1     -10.813  12.495  66.342  1.00  0.00    -0.290 A  
HETATM   19  N   UNL     1     -10.480  11.311  68.415  1.00  0.00    -0.188 NA 
HETATM   20  C   UNL     1      -9.743  10.345  66.326  1.00  0.00    -0.256 A  
ENDBRANCH   7  15
ENDBRANCH   6   7
ENDBRANCH   5   6
ENDBRANCH   4   5
ENDBRANCH   2   4
TORSDOF 6
ENDMDL
MODEL      199
REMARK 921   NORMALIZED FREE ENERGY PREDICTED BY IDOCK:   -1.88 KCAL/MOL
REMARK 922        TOTAL FREE ENERGY PREDICTED BY IDOCK:   -3.19 KCAL/MOL
REMARK 923 INTER-LIGAND FREE ENERGY PREDICTED BY IDOCK:   -3.70 KCAL/MOL
REMARK 924 INTRA-LIGAND FREE ENERGY PREDICTED BY IDOCK:    0.51 KCAL/MOL
REMARK 927      BINDING AFFINITY PREDICTED BY RF-SCORE:    0.00 PKD
ROOT
HETATM    1  C   UNL     1      -9.478   2.510  70.739  1.00  0.00    -0.140 C  
HETATM    2  N   UNL     1      -9.711   3.905  71.125  1.00  0.00    -0.177 NA 
HETATM    3  C   UNL     1     -10.224   3.950  72.498  1.00  0.00    -0.164 C  
ENDROOT
BRANCH   2   4
HETATM    4  C   UNL     1      -8.466   4.683  70.960  1.00  0.00    -0.106 C  
BRANCH   4   5
HETATM    5  C   UNL     1      -8.591   5.842  69.961  1.00  0.00    -0.130 C  
BRANCH   5   6
HETATM    6  O   UNL     1      -7.708   6.919  70.316  1.00  0.00    -0.096 OA 
BRANCH   6   7
HETATM    7  C   UNL     1      -8.425   8.166  70.514  1.00  0.00    -0.125 C  
BRANCH   7   8
HETATM    8  C   UNL     1      -8.378   8.987  69.227  1.00  0.00    -0.122 A  
HETATM    9  C   UNL     1      -8.382   8.327  67.985  1.00  0.00    -0.129 A  
HETATM   10  C   UNL     1      -8.519  10.386  69.251  1.00  0.00    -0.162 A  
HETATM   11 CL   UNL     1      -9.102  11.291  65.405  1.00  0.00    -0.196 Cl 
HETATM   12  C   UNL     1      -8.590   9.042  66.803  1.00  0.00    -0.129 A  
HETATM   13  C   UNL     1      -8.711  11.099  68.068  1.00  0.00    -0.141 A  
HETATM   14  C   UNL     1      -8.767  10.422  66.852  1.00  0.00    -0.126 A  
ENDBRANCH   7   8
BRANCH   7  15
HETATM   15  C   UNL     1      -9.847   7.915  71.021  1.00  0.00    -0.170 A  
HETATM   16  C   UNL     1     -12.002   7.178  70.567  1.00  0.00    -0.214 A  
HETATM   17  C   UNL     1     -11.486   7.857  72.784  1.00  0.00    -0.428 A  
HETATM   18  C   UNL     1     -10.190   8.141  72.357  1.00  0.00    -0.368 A  
HETATM   19  N   UNL     1     -10.750   7.434  70.122  1.00  0.00    -0.238 NA 
HETATM   20  C   UNL     1     -12.410   7.364  71.876  1.00  0.00    -0.343 A  
ENDBRANCH   7  15
ENDBRANCH   6   7
ENDBRANCH   5   6
ENDBRANCH   4   5
ENDBRANCH   2   4
TORSDOF 6
ENDMDL
MODEL      200
REMARK 921   NORMALIZED FREE ENERGY PREDICTED BY IDOCK:   -1.73 KCAL/MOL
REMARK 922        TOTAL FREE ENERGY PREDICTED BY IDOCK:   -2.98 KCAL/MOL
REMARK 923 INTER-LIGAND FREE ENERGY PREDICTED BY IDOCK:   -3.14 KCAL/MOL
REMARK 924 INTRA-LIGAND FREE ENERGY PREDICTED BY IDOCK:    0.15 KCAL/MOL
REMARK 927      BINDING AFFINITY PREDICTED BY RF-SCORE:    0.00 PKD
ROOT
HETATM    1  C   UNL     1     -12.134  11.678  68.465  1.00  0.00    -0.080 C  
HETATM    2  N   UNL     1     -11.629  13.027  68.738  1.00  0.00    -0.288 NA 
HETATM    3  C   UNL     1     -12.335  13.586  69.895  1.00  0.00    -0.224 C  
ENDROOT
BRANCH   2   4
HETATM    4  C   UNL     1     -10.165  12.980  68.936  1.00  0.00     0.002 C  
BRANCH   4   5
HETATM    5  C   UNL     1      -9.482  14.350  68.818  1.00  0.00    -0.161 C  
BRANCH   5   6
HETATM    6  O   UNL     1      -9.895  15.024  67.619  1.00  0.00    -0.219 OA 
BRANCH   6   7
HETATM    7  C   UNL     1      -8.770  15.342  66.759  1.00  0.00    -0.269 C  
BRANCH   7   8
HETATM    8  C   UNL     1      -8.562  16.856  66.735  1.00  0.00    -0.256 A  
HETATM    9  C   UNL     1      -9.318  17.671  67.597  1.00  0.00    -0.246 A  
HETATM   10  C   UNL     1      -7.508  17.434  66.007  1.00  0.00    -0.255 A  
HETATM   11 CL   UNL     1      -7.444  21.192  67.358  1.00  0.00    -0.287 Cl 
HETATM   12  C   UNL     1      -8.981  19.015  67.776  1.00  0.00    -0.329 A  
HETATM   13  C   UNL     1      -7.183  18.780  66.177  1.00  0.00    -0.294 A  
HETATM   14  C   UNL     1      -7.908  19.559  67.076  1.00  0.00    -0.260 A  
ENDBRANCH   7   8
BRANCH   7  15
HETATM   15  C   UNL     1      -7.518  14.566  67.174  1.00  0.00     0.032 A  
HETATM   16  C   UNL     1      -6.300  12.591  67.080  1.00  0.00    -0.044 A  
HETATM   17  C   UNL     1      -5.367  14.437  68.248  1.00  0.00    -0.114 A  
HETATM   18  C   UNL     1      -6.510  15.168  67.931  1.00  0.00    -0.176 A  
HETATM   19  N   UNL     1      -7.418  13.276  66.747  1.00  0.00     0.419 NA 
HETATM   20  C   UNL     1      -5.255  13.124  67.815  1.00  0.00    -0.089 A  
ENDBRANCH   7  15
ENDBRANCH   6   7
ENDBRANCH   5   6
ENDBRANCH   4   5
ENDBRANCH   2   4
TORSDOF 6
ENDMDL
MODEL      201
REMARK 921   NORMALIZED FREE ENERGY PREDICTED BY IDOCK:   -1.02 KCAL/MOL
REMARK 922        TOTAL FREE ENERGY PREDICTED BY IDOCK:   -2.03 KCAL/MOL
REMARK 923 INTER-LIGAND FREE ENERGY PREDICTED BY IDOCK:   -2.19 KCAL/MOL
REMARK 924 INTRA-LIGAND FREE ENERGY PREDICTED BY IDOCK:    0.16 KCAL/MOL
REMARK 927      BINDING AFFINITY PREDICTED BY RF-SCORE:    0.00 PKD
ROOT
HETATM    1  C   UNL     1      -5.599  10.635  71.658  1.00  0.00     0.225 C  
HETATM    2  N   UNL     1      -6.081  11.704  70.778  1.00  0.00    -0.310 NA 
HETATM    3  C   UNL     1      -5.399  12.957  71.117  1.00  0.00    -0.176 C  
ENDROOT
BRANCH   2   4
HETATM    4  C   UNL     1      -5.884  11.315  69.366  1.00  0.00    -0.057 C  
BRANCH   4   5
HETATM    5  C   UNL     1      -7.005  10.430  68.806  1.00  0.00    -0.068 C  
BRANCH   5   6
HETATM    6  O   UNL     1      -7.074  10.538  67.375  1.00  0.00    -0.087 OA 
BRANCH   6   7
HETATM    7  C   UNL     1      -8.337  10.049  66.853  1.00  0.00    -0.125 C  
BRANCH   7   8
HETATM    8  C   UNL     1      -8.072   8.917  65.862  1.00  0.00    -0.109 A  
HETATM    9  C   UNL     1      -8.743   8.909  64.625  1.00  0.00    -0.138 A  
HETATM   10  C   UNL     1      -7.041   7.987  66.078  1.00  0.00    -0.062 A  
HETATM   11 CL   UNL     1      -6.750   6.138  62.550  1.00  0.00    -0.036 Cl 
HETATM   12  C   UNL     1      -8.344   8.039  63.608  1.00  0.00     0.042 A  
HETATM   13  C   UNL     1      -6.654   7.109  65.066  1.00  0.00    -0.047 A  
HETATM   14  C   UNL     1      -7.293   7.153  63.829  1.00  0.00    -0.089 A  
ENDBRANCH   7   8
BRANCH   7  15
HETATM   15  C   UNL     1      -9.289   9.653  67.984  1.00  0.00    -0.132 A  
HETATM   16  C   UNL     1     -10.712  10.325  69.692  1.00  0.00    -0.264 A  
HETATM   17  C   UNL     1     -10.502   8.001  69.249  1.00  0.00    -0.221 A  
HETATM   18  C   UNL     1      -9.596   8.313  68.237  1.00  0.00    -0.158 A  
HETATM   19  N   UNL     1      -9.844  10.663  68.710  1.00  0.00    -0.183 NA 
HETATM   20  C   UNL     1     -11.074   9.024  69.990  1.00  0.00    -0.197 A  
ENDBRANCH   7  15
ENDBRANCH   6   7
ENDBRANCH   5   6
ENDBRANCH   4   5
ENDBRANCH   2   4
TORSDOF 6
ENDMDL
MODEL      202
REMARK 921   NORMALIZED FREE ENERGY PREDICTED BY IDOCK:   -0.83 KCAL/MOL
REMARK 922        TOTAL FREE ENERGY PREDICTED BY IDOCK:   -1.77 KCAL/MOL
REMARK 923 INTER-LIGAND FREE ENERGY PREDICTED BY IDOCK:   -2.21 KCAL/MOL
REMARK 924 INTRA-LIGAND FREE ENERGY PREDICTED BY IDOCK:    0.44 KCAL/MOL
REMARK 927      BINDING AFFINITY PREDICTED BY RF-SCORE:    0.00 PKD
ROOT
HETATM    1  C   UNL     1     -11.356   6.478  70.807  1.00  0.00    -0.342 C  
HETATM    2  N   UNL     1     -10.190   5.889  70.143  1.00  0.00    -0.203 NA 
HETATM    3  C   UNL     1      -9.966   4.535  70.661  1.00  0.00    -0.203 C  
ENDROOT
BRANCH   2   4
HETATM    4  C   UNL     1     -10.387   5.909  68.678  1.00  0.00    -0.215 C  
BRANCH   4   5
HETATM    5  C   UNL     1      -9.255   5.232  67.893  1.00  0.00    -0.112 C  
BRANCH   5   6
HETATM    6  O   UNL     1      -7.972   5.650  68.386  1.00  0.00    -0.098 OA 
BRANCH   6   7
HETATM    7  C   UNL     1      -7.107   6.122  67.320  1.00  0.00    -0.070 C  
BRANCH   7   8
HETATM    8  C   UNL     1      -7.489   5.428  66.013  1.00  0.00    -0.082 A  
HETATM    9  C   UNL     1      -7.203   4.061  65.847  1.00  0.00    -0.068 A  
HETATM   10  C   UNL     1      -8.283   6.075  65.050  1.00  0.00    -0.136 A  
HETATM   11 CL   UNL     1      -9.314   3.099  62.594  1.00  0.00    -0.090 Cl 
HETATM   12  C   UNL     1      -7.754   3.346  64.781  1.00  0.00    -0.078 A  
HETATM   13  C   UNL     1      -8.820   5.362  63.978  1.00  0.00     0.130 A  
HETATM   14  C   UNL     1      -8.571   3.997  63.860  1.00  0.00    -0.103 A  
ENDBRANCH   7   8
BRANCH   7  15
HETATM   15  C   UNL     1      -7.129   7.649  67.223  1.00  0.00    -0.085 A  
HETATM   16  C   UNL     1      -8.308   9.628  67.515  1.00  0.00    -0.118 A  
HETATM   17  C   UNL     1      -6.048   9.757  66.796  1.00  0.00    -0.063 A  
HETATM   18  C   UNL     1      -5.996   8.365  66.828  1.00  0.00    -0.053 A  
HETATM   19  N   UNL     1      -8.288   8.276  67.566  1.00  0.00    -0.128 NA 
HETATM   20  C   UNL     1      -7.223  10.404  67.148  1.00  0.00    -0.091 A  
ENDBRANCH   7  15
ENDBRANCH   6   7
ENDBRANCH   5   6
ENDBRANCH   4   5
ENDBRANCH   2   4
TORSDOF 6
ENDMDL
MODEL      203
REMARK 921   NORMALIZED FREE ENERGY PREDICTED BY IDOCK:    4.36 KCAL/MOL
REMARK 922        TOTAL FREE ENERGY PREDICTED BY IDOCK:    5.24 KCAL/MOL
REMARK 923 INTER-LIGAND FREE ENERGY PREDICTED BY IDOCK:   -1.89 KCAL/MOL
REMARK 924 INTRA-LIGAND FREE ENERGY PREDICTED BY IDOCK:    7.13 KCAL/MOL
REMARK 927      BINDING AFFINITY PREDICTED BY RF-SCORE:    0.00 PKD
ROOT
HETATM    1  C   UNL     1      -9.525  12.966  64.554  1.00  0.00     0.543 C  
HETATM    2  N   UNL     1      -9.598  14.392  64.887  1.00  0.00     0.252 NA 
HETATM    3  C   UNL     1     -10.850  14.950  64.366  1.00  0.00     0.051 C  
ENDROOT
BRANCH   2   4
HETATM    4  C   UNL     1      -9.463  14.570  66.348  1.00  0.00    -0.291 C  
BRANCH   4   5
HETATM    5  C   UNL     1      -8.033  14.893  66.802  1.00  0.00     0.101 C  
BRANCH   5   6
HETATM    6  O   UNL     1      -7.915  14.786  68.229  1.00  0.00    -0.119 OA 
BRANCH   6   7
HETATM    7  C   UNL     1      -9.075  15.328  68.913  1.00  0.00    -0.209 C  
BRANCH   7   8
HETATM    8  C   UNL     1      -9.487  16.641  68.250  1.00  0.00    -0.230 A  
HETATM    9  C   UNL     1      -9.227  16.836  66.881  1.00  0.00    -0.249 A  
HETATM   10  C   UNL     1     -10.282  17.581  68.928  1.00  0.00    -0.353 A  
HETATM   11 CL   UNL     1     -11.399  20.076  66.016  1.00  0.00     0.307 Cl 
HETATM   12  C   UNL     1      -9.805  17.907  66.196  1.00  0.00    -0.256 A  
HETATM   13  C   UNL     1     -10.847  18.658  68.244  1.00  0.00     0.073 A  
HETATM   14  C   UNL     1     -10.623  18.804  66.877  1.00  0.00    -0.409 A  
ENDBRANCH   7   8
BRANCH   7  15
HETATM   15  C   UNL     1     -10.209  14.302  68.981  1.00  0.00    -0.149 A  
HETATM   16  C   UNL     1     -12.301  13.727  69.808  1.00  0.00    -0.255 A  
HETATM   17  C   UNL     1     -11.233  12.232  68.304  1.00  0.00    -0.315 A  
HETATM   18  C   UNL     1     -10.157  13.116  68.245  1.00  0.00    -0.247 A  
HETATM   19  N   UNL     1     -11.278  14.612  69.766  1.00  0.00    -0.265 NA 
HETATM   20  C   UNL     1     -12.328  12.541  69.097  1.00  0.00     0.130 A  
ENDBRANCH   7  15
ENDBRANCH   6   7
ENDBRANCH   5   6
ENDBRANCH   4   5
ENDBRANCH   2   4
TORSDOF 6
ENDMDL
MODEL      204
REMARK 921   NORMALIZED FREE ENERGY PREDICTED BY IDOCK:   17.60 KCAL/MOL
REMARK 922        TOTAL FREE ENERGY PREDICTED BY IDOCK:   23.13 KCAL/MOL
REMARK 923 INTER-LIGAND FREE ENERGY PREDICTED BY IDOCK:   19.77 KCAL/MOL
REMARK 924 INTRA-LIGAND FREE ENERGY PREDICTED BY IDOCK:    3.36 KCAL/MOL
REMARK 927      BINDING AFFINITY PREDICTED BY RF-SCORE:    0.00 PKD
ROOT
HETATM    1  C   UNL     1     -12.979  17.165  73.035  1.00  0.00     2.331 C  
HETATM    2  N   UNL     1     -12.182  16.105  72.410  1.00  0.00    -0.499 NA 
HETATM    3  C   UNL     1     -12.031  14.990  73.352  1.00  0.00    -0.319 C  
ENDROOT
BRANCH   2   4
HETATM    4  C   UNL     1     -12.812  15.691  71.139  1.00  0.00    -0.480 C  
BRANCH   4   5
HETATM    5  C   UNL     1     -11.934  14.762  70.289  1.00  0.00    -0.310 C  
BRANCH   5   6
HETATM    6  O   UNL     1     -12.171  14.977  68.889  1.00  0.00    -0.216 OA 
BRANCH   6   7
HETATM    7  C   UNL     1     -11.033  15.597  68.234  1.00  0.00    -0.315 C  
BRANCH   7   8
HETATM    8  C   UNL     1     -10.122  16.225  69.288  1.00  0.00    -0.267 A  
HETATM    9  C   UNL     1      -9.995  15.611  70.547  1.00  0.00     0.418 A  
HETATM   10  C   UNL     1      -9.269  17.295  68.966  1.00  0.00    -0.109 A  
HETATM   11 CL   UNL     1      -6.849  17.490  72.139  1.00  0.00     5.770 Cl 
HETATM   12  C   UNL     1      -8.994  16.013  71.433  1.00  0.00     5.230 A  
HETATM   13  C   UNL     1      -8.278  17.704  69.860  1.00  0.00     1.648 A  
HETATM   14  C   UNL     1      -8.132  17.048  71.080  1.00  0.00     7.010 A  
ENDBRANCH   7   8
BRANCH   7  15
HETATM   15  C   UNL     1     -10.309  14.604  67.322  1.00  0.00    -0.256 A  
HETATM   16  C   UNL     1      -9.449  12.468  67.020  1.00  0.00    -0.217 A  
HETATM   17  C   UNL     1      -9.330  13.999  65.207  1.00  0.00     0.606 A  
HETATM   18  C   UNL     1      -9.949  14.949  66.017  1.00  0.00    -0.337 A  
HETATM   19  N   UNL     1     -10.060  13.365  67.829  1.00  0.00    -0.227 NA 
HETATM   20  C   UNL     1      -9.076  12.733  65.714  1.00  0.00     0.310 A  
ENDBRANCH   7  15
ENDBRANCH   6   7
ENDBRANCH   5   6
ENDBRANCH   4   5
ENDBRANCH   2   4
TORSDOF 6
ENDMDL
MODEL      205
REMARK 921   NORMALIZED FREE ENERGY PREDICTED BY IDOCK:   24.75 KCAL/MOL
REMARK 922        TOTAL FREE ENERGY PREDICTED BY IDOCK:   32.78 KCAL/MOL
REMARK 923 INTER-LIGAND FREE ENERGY PREDICTED BY IDOCK:   32.15 KCAL/MOL
REMARK 924 INTRA-LIGAND FREE ENERGY PREDICTED BY IDOCK:    0.63 KCAL/MOL
REMARK 927      BINDING AFFINITY PREDICTED BY RF-SCORE:    0.00 PKD
ROOT
HETATM    1  C   UNL     1     -10.823  14.438  74.459  1.00  0.00     5.248 C  
HETATM    2  N   UNL     1     -10.164  14.284  73.159  1.00  0.00     5.231 NA 
HETATM    3  C   UNL     1      -9.040  13.352  73.290  1.00  0.00    15.917 C  
ENDROOT
BRANCH   2   4
HETATM    4  C   UNL     1     -11.149  13.844  72.149  1.00  0.00     3.405 C  
BRANCH   4   5
HETATM    5  C   UNL     1     -10.542  13.588  70.763  1.00  0.00     2.963 C  
BRANCH   5   6
HETATM    6  O   UNL     1      -9.754  14.711  70.336  1.00  0.00     0.624 OA 
BRANCH   6   7
HETATM    7  C   UNL     1      -9.096  14.462  69.066  1.00  0.00     0.001 C  
BRANCH   7   8
HETATM    8  C   UNL     1      -8.202  13.230  69.192  1.00  0.00     0.497 A  
HETATM    9  C   UNL     1      -8.755  11.951  68.997  1.00  0.00     0.296 A  
HETATM   10  C   UNL     1      -6.807  13.353  69.314  1.00  0.00    -0.036 A  
HETATM   11 CL   UNL     1      -5.524   9.621  68.694  1.00  0.00    -0.037 Cl 
HETATM   12  C   UNL     1      -7.927  10.835  68.859  1.00  0.00    -0.143 A  
HETATM   13  C   UNL     1      -5.983  12.233  69.191  1.00  0.00    -0.080 A  
HETATM   14  C   UNL     1      -6.546  10.983  68.943  1.00  0.00    -0.058 A  
ENDBRANCH   7   8
BRANCH   7  15
HETATM   15  C   UNL     1     -10.112  14.360  67.926  1.00  0.00    -0.228 A  
HETATM   16  C   UNL     1     -12.318  14.049  67.270  1.00  0.00    -0.160 A  
HETATM   17  C   UNL     1     -10.694  14.487  65.593  1.00  0.00    -0.335 A  
HETATM   18  C   UNL     1      -9.727  14.546  66.595  1.00  0.00    -0.285 A  
HETATM   19  N   UNL     1     -11.406  14.109  68.268  1.00  0.00    -0.276 NA 
HETATM   20  C   UNL     1     -12.015  14.237  65.933  1.00  0.00    -0.400 A  
ENDBRANCH   7  15
ENDBRANCH   6   7
ENDBRANCH   5   6
ENDBRANCH   4   5
ENDBRANCH   2   4
TORSDOF 6
ENDMDL
