MODEL        1
REMARK 921   NORMALIZED FREE ENERGY PREDICTED BY IDOCK:   -6.62 KCAL/MOL
REMARK 922        TOTAL FREE ENERGY PREDICTED BY IDOCK:   -6.92 KCAL/MOL
REMARK 923 INTER-LIGAND FREE ENERGY PREDICTED BY IDOCK:   -7.00 KCAL/MOL
REMARK 924 INTRA-LIGAND FREE ENERGY PREDICTED BY IDOCK:    0.09 KCAL/MOL
REMARK 927      BINDING AFFINITY PREDICTED BY RF-SCORE:    0.00 PKD
ROOT
HETATM    1  N   UNL     1     -14.334   8.292  70.833  1.00  0.00    -0.573 N  
HETATM    2  C   UNL     1     -13.744   9.105  71.767  1.00  0.00    -0.404 C  
HETATM    3  H1  UNL     1     -13.916   8.270  69.903  1.00  0.00     0.000 HD 
HETATM    4  H2  UNL     1     -15.156   7.732  71.060  1.00  0.00     0.000 HD 
HETATM    5  O   UNL     1     -14.248   9.131  72.888  1.00  0.00    -0.512 OA 
ENDROOT
BRANCH   2   6
HETATM    6  N   UNL     1     -12.680   9.880  71.283  1.00  0.00    -0.355 N  
HETATM    7  C   UNL     1     -12.775  11.319  71.214  1.00  0.00    -0.405 A  
HETATM    8  C   UNL     1     -13.485  12.028  72.202  1.00  0.00    -0.338 A  
HETATM    9  C   UNL     1     -13.562  13.423  72.189  1.00  0.00    -0.660 A  
HETATM   10  C   UNL     1     -12.942  14.145  71.179  1.00  0.00    -0.419 A  
HETATM   11  C   UNL     1     -12.254  13.468  70.176  1.00  0.00    -0.400 A  
HETATM   12  C   UNL     1     -12.158  12.063  70.183  1.00  0.00    -0.377 A  
HETATM   13  C   UNL     1     -11.486  11.455  69.032  1.00  0.00    -0.366 C  
HETATM   14  C   UNL     1     -10.683  10.387  69.098  1.00  0.00    -0.266 C  
HETATM   15  C   UNL     1     -10.366   9.679  70.340  1.00  0.00    -0.350 A  
HETATM   16  C   UNL     1      -9.053   9.196  70.481  1.00  0.00    -0.284 A  
HETATM   17  C   UNL     1      -8.675   8.457  71.603  1.00  0.00    -0.240 A  
HETATM   18  C   UNL     1      -9.610   8.176  72.587  1.00  0.00    -0.352 A  
HETATM   19  C   UNL     1     -10.918   8.638  72.454  1.00  0.00    -0.323 A  
HETATM   20  C   UNL     1     -11.321   9.396  71.335  1.00  0.00    -0.381 A  
ENDBRANCH   2   6
TORSDOF 1
ENDMDL
MODEL        2
REMARK 921   NORMALIZED FREE ENERGY PREDICTED BY IDOCK:   -6.59 KCAL/MOL
REMARK 922        TOTAL FREE ENERGY PREDICTED BY IDOCK:   -6.88 KCAL/MOL
REMARK 923 INTER-LIGAND FREE ENERGY PREDICTED BY IDOCK:   -6.94 KCAL/MOL
REMARK 924 INTRA-LIGAND FREE ENERGY PREDICTED BY IDOCK:    0.06 KCAL/MOL
REMARK 927      BINDING AFFINITY PREDICTED BY RF-SCORE:    0.00 PKD
ROOT
HETATM    1  N   UNL     1      -9.091  15.457  69.801  1.00  0.00    -0.394 N  
HETATM    2  C   UNL     1     -10.387  15.675  69.408  1.00  0.00    -0.260 C  
HETATM    3  H1  UNL     1      -8.801  14.488  69.937  1.00  0.00     0.000 HD 
HETATM    4  H2  UNL     1      -8.444  16.231  69.952  1.00  0.00     0.000 HD 
HETATM    5  O   UNL     1     -10.735  16.842  69.245  1.00  0.00    -0.334 OA 
ENDROOT
BRANCH   2   6
HETATM    6  N   UNL     1     -11.180  14.520  69.330  1.00  0.00    -0.269 N  
HETATM    7  C   UNL     1     -12.147  14.208  70.355  1.00  0.00    -0.346 A  
HETATM    8  C   UNL     1     -12.854  15.242  70.998  1.00  0.00    -0.505 A  
HETATM    9  C   UNL     1     -13.826  14.974  71.964  1.00  0.00    -0.578 A  
HETATM   10  C   UNL     1     -14.108  13.663  72.323  1.00  0.00    -0.602 A  
HETATM   11  C   UNL     1     -13.406  12.622  71.721  1.00  0.00    -0.405 A  
HETATM   12  C   UNL     1     -12.432  12.877  70.737  1.00  0.00    -0.370 A  
HETATM   13  C   UNL     1     -11.696  11.712  70.238  1.00  0.00    -0.355 C  
HETATM   14  C   UNL     1     -11.317  11.542  68.966  1.00  0.00    -0.339 C  
HETATM   15  C   UNL     1     -11.588  12.504  67.896  1.00  0.00    -0.403 A  
HETATM   16  C   UNL     1     -11.902  11.979  66.631  1.00  0.00    -0.239 A  
HETATM   17  C   UNL     1     -12.116  12.818  65.536  1.00  0.00    -0.517 A  
HETATM   18  C   UNL     1     -12.000  14.191  65.690  1.00  0.00    -0.401 A  
HETATM   19  C   UNL     1     -11.677  14.725  66.937  1.00  0.00    -0.316 A  
HETATM   20  C   UNL     1     -11.467  13.897  68.059  1.00  0.00    -0.307 A  
ENDBRANCH   2   6
TORSDOF 1
ENDMDL
MODEL        3
REMARK 921   NORMALIZED FREE ENERGY PREDICTED BY IDOCK:   -6.55 KCAL/MOL
REMARK 922        TOTAL FREE ENERGY PREDICTED BY IDOCK:   -6.85 KCAL/MOL
REMARK 923 INTER-LIGAND FREE ENERGY PREDICTED BY IDOCK:   -6.91 KCAL/MOL
REMARK 924 INTRA-LIGAND FREE ENERGY PREDICTED BY IDOCK:    0.06 KCAL/MOL
REMARK 927      BINDING AFFINITY PREDICTED BY RF-SCORE:    0.00 PKD
ROOT
HETATM    1  N   UNL     1      -9.466  15.199  69.717  1.00  0.00    -0.465 N  
HETATM    2  C   UNL     1     -10.769  15.146  69.293  1.00  0.00    -0.250 C  
HETATM    3  H1  UNL     1      -8.952  14.318  69.757  1.00  0.00     0.000 HD 
HETATM    4  H2  UNL     1      -9.029  16.081  69.982  1.00  0.00     0.000 HD 
HETATM    5  O   UNL     1     -11.387  16.206  69.245  1.00  0.00    -0.330 OA 
ENDROOT
BRANCH   2   6
HETATM    6  N   UNL     1     -11.257  13.852  69.051  1.00  0.00    -0.263 N  
HETATM    7  C   UNL     1     -11.945  13.110  70.080  1.00  0.00    -0.321 A  
HETATM    8  C   UNL     1     -12.776  13.780  70.998  1.00  0.00    -0.416 A  
HETATM    9  C   UNL     1     -13.490  13.089  71.979  1.00  0.00    -0.584 A  
HETATM   10  C   UNL     1     -13.382  11.708  72.076  1.00  0.00    -0.405 A  
HETATM   11  C   UNL     1     -12.549  11.023  71.196  1.00  0.00    -0.522 A  
HETATM   12  C   UNL     1     -11.832  11.706  70.195  1.00  0.00    -0.428 A  
HETATM   13  C   UNL     1     -10.920  10.895  69.384  1.00  0.00    -0.304 C  
HETATM   14  C   UNL     1     -10.714  11.065  68.073  1.00  0.00    -0.260 C  
HETATM   15  C   UNL     1     -11.376  12.093  67.268  1.00  0.00    -0.398 A  
HETATM   16  C   UNL     1     -11.744  11.739  65.959  1.00  0.00    -0.100 A  
HETATM   17  C   UNL     1     -12.325  12.671  65.098  1.00  0.00    -0.547 A  
HETATM   18  C   UNL     1     -12.527  13.973  65.529  1.00  0.00    -0.533 A  
HETATM   19  C   UNL     1     -12.155  14.341  66.821  1.00  0.00    -0.446 A  
HETATM   20  C   UNL     1     -11.576  13.414  67.713  1.00  0.00    -0.340 A  
ENDBRANCH   2   6
TORSDOF 1
ENDMDL
MODEL        4
REMARK 921   NORMALIZED FREE ENERGY PREDICTED BY IDOCK:   -6.24 KCAL/MOL
REMARK 922        TOTAL FREE ENERGY PREDICTED BY IDOCK:   -6.51 KCAL/MOL
REMARK 923 INTER-LIGAND FREE ENERGY PREDICTED BY IDOCK:   -6.59 KCAL/MOL
REMARK 924 INTRA-LIGAND FREE ENERGY PREDICTED BY IDOCK:    0.08 KCAL/MOL
REMARK 927      BINDING AFFINITY PREDICTED BY RF-SCORE:    0.00 PKD
ROOT
HETATM    1  N   UNL     1     -10.171  11.161  69.368  1.00  0.00    -0.431 N  
HETATM    2  C   UNL     1     -11.339  11.735  68.935  1.00  0.00    -0.267 C  
HETATM    3  H1  UNL     1      -9.401  11.789  69.601  1.00  0.00     0.000 HD 
HETATM    4  H2  UNL     1     -10.076  10.149  69.455  1.00  0.00     0.000 HD 
HETATM    5  O   UNL     1     -12.266  10.978  68.655  1.00  0.00    -0.571 OA 
ENDROOT
BRANCH   2   6
HETATM    6  N   UNL     1     -11.288  13.129  68.781  1.00  0.00    -0.272 N  
HETATM    7  C   UNL     1     -11.357  13.738  67.474  1.00  0.00    -0.309 A  
HETATM    8  C   UNL     1     -12.160  13.166  66.469  1.00  0.00    -0.423 A  
HETATM    9  C   UNL     1     -12.283  13.753  65.208  1.00  0.00    -0.461 A  
HETATM   10  C   UNL     1     -11.595  14.921  64.914  1.00  0.00    -0.395 A  
HETATM   11  C   UNL     1     -10.775  15.495  65.881  1.00  0.00    -0.346 A  
HETATM   12  C   UNL     1     -10.650  14.921  67.160  1.00  0.00    -0.285 A  
HETATM   13  C   UNL     1      -9.692  15.561  68.067  1.00  0.00    -0.207 C  
HETATM   14  C   UNL     1      -9.875  15.710  69.383  1.00  0.00    -0.284 C  
HETATM   15  C   UNL     1     -11.066  15.249  70.100  1.00  0.00    -0.312 A  
HETATM   16  C   UNL     1     -11.540  16.066  71.142  1.00  0.00    -0.492 A  
HETATM   17  C   UNL     1     -12.631  15.679  71.920  1.00  0.00    -0.509 A  
HETATM   18  C   UNL     1     -13.251  14.463  71.678  1.00  0.00    -0.425 A  
HETATM   19  C   UNL     1     -12.785  13.637  70.657  1.00  0.00    -0.303 A  
HETATM   20  C   UNL     1     -11.690  14.011  69.850  1.00  0.00    -0.303 A  
ENDBRANCH   2   6
TORSDOF 1
ENDMDL
MODEL        5
REMARK 921   NORMALIZED FREE ENERGY PREDICTED BY IDOCK:   -6.23 KCAL/MOL
REMARK 922        TOTAL FREE ENERGY PREDICTED BY IDOCK:   -6.51 KCAL/MOL
REMARK 923 INTER-LIGAND FREE ENERGY PREDICTED BY IDOCK:   -6.57 KCAL/MOL
REMARK 924 INTRA-LIGAND FREE ENERGY PREDICTED BY IDOCK:    0.06 KCAL/MOL
REMARK 927      BINDING AFFINITY PREDICTED BY RF-SCORE:    0.00 PKD
ROOT
HETATM    1  N   UNL     1      -8.605  11.672  68.870  1.00  0.00    -0.368 N  
HETATM    2  C   UNL     1      -9.891  11.233  68.678  1.00  0.00    -0.202 C  
HETATM    3  H1  UNL     1      -8.477  12.661  69.082  1.00  0.00     0.000 HD 
HETATM    4  H2  UNL     1      -7.811  11.036  68.802  1.00  0.00     0.000 HD 
HETATM    5  O   UNL     1     -10.044  10.041  68.422  1.00  0.00    -0.156 OA 
ENDROOT
BRANCH   2   6
HETATM    6  N   UNL     1     -10.868  12.239  68.713  1.00  0.00    -0.232 N  
HETATM    7  C   UNL     1     -11.441  12.765  67.497  1.00  0.00    -0.336 A  
HETATM    8  C   UNL     1     -11.653  11.918  66.392  1.00  0.00    -0.315 A  
HETATM    9  C   UNL     1     -12.245  12.382  65.216  1.00  0.00    -0.418 A  
HETATM   10  C   UNL     1     -12.628  13.712  65.108  1.00  0.00    -0.474 A  
HETATM   11  C   UNL     1     -12.408  14.577  66.176  1.00  0.00    -0.229 A  
HETATM   12  C   UNL     1     -11.823  14.119  67.372  1.00  0.00    -0.447 A  
HETATM   13  C   UNL     1     -11.559  15.136  68.394  1.00  0.00    -0.356 C  
HETATM   14  C   UNL     1     -11.705  14.946  69.710  1.00  0.00    -0.344 C  
HETATM   15  C   UNL     1     -12.150  13.686  70.309  1.00  0.00    -0.427 A  
HETATM   16  C   UNL     1     -12.994  13.776  71.429  1.00  0.00    -0.433 A  
HETATM   17  C   UNL     1     -13.419  12.631  72.104  1.00  0.00    -0.561 A  
HETATM   18  C   UNL     1     -12.991  11.383  71.678  1.00  0.00    -0.523 A  
HETATM   19  C   UNL     1     -12.143  11.280  70.576  1.00  0.00    -0.481 A  
HETATM   20  C   UNL     1     -11.708  12.423  69.872  1.00  0.00    -0.266 A  
ENDBRANCH   2   6
TORSDOF 1
ENDMDL
MODEL        6
REMARK 921   NORMALIZED FREE ENERGY PREDICTED BY IDOCK:   -6.16 KCAL/MOL
REMARK 922        TOTAL FREE ENERGY PREDICTED BY IDOCK:   -6.43 KCAL/MOL
REMARK 923 INTER-LIGAND FREE ENERGY PREDICTED BY IDOCK:   -7.21 KCAL/MOL
REMARK 924 INTRA-LIGAND FREE ENERGY PREDICTED BY IDOCK:    0.78 KCAL/MOL
REMARK 927      BINDING AFFINITY PREDICTED BY RF-SCORE:    0.00 PKD
ROOT
HETATM    1  N   UNL     1     -12.535  14.891  63.717  1.00  0.00    -1.062 N  
HETATM    2  C   UNL     1     -11.687  15.625  64.508  1.00  0.00    -0.220 C  
HETATM    3  H1  UNL     1     -12.824  13.978  64.066  1.00  0.00     0.000 HD 
HETATM    4  H2  UNL     1     -12.863  15.246  62.819  1.00  0.00     0.000 HD 
HETATM    5  O   UNL     1     -11.338  16.725  64.088  1.00  0.00    -1.194 OA 
ENDROOT
BRANCH   2   6
HETATM    6  N   UNL     1     -11.252  14.969  65.670  1.00  0.00    -0.341 N  
HETATM    7  C   UNL     1     -10.979  13.552  65.669  1.00  0.00    -0.289 A  
HETATM    8  C   UNL     1     -10.425  12.940  64.528  1.00  0.00    -0.400 A  
HETATM    9  C   UNL     1     -10.108  11.580  64.508  1.00  0.00    -0.324 A  
HETATM   10  C   UNL     1     -10.349  10.792  65.624  1.00  0.00    -0.297 A  
HETATM   11  C   UNL     1     -10.919  11.366  66.757  1.00  0.00    -0.347 A  
HETATM   12  C   UNL     1     -11.233  12.738  66.796  1.00  0.00    -0.338 A  
HETATM   13  C   UNL     1     -11.909  13.213  68.006  1.00  0.00    -0.398 C  
HETATM   14  C   UNL     1     -11.684  14.397  68.587  1.00  0.00    -0.367 C  
HETATM   15  C   UNL     1     -10.725  15.384  68.086  1.00  0.00    -0.271 A  
HETATM   16  C   UNL     1      -9.997  16.110  69.045  1.00  0.00    -0.242 A  
HETATM   17  C   UNL     1      -9.106  17.113  68.663  1.00  0.00    -0.268 A  
HETATM   18  C   UNL     1      -8.945  17.415  67.320  1.00  0.00    -0.241 A  
HETATM   19  C   UNL     1      -9.670  16.712  66.359  1.00  0.00    -0.306 A  
HETATM   20  C   UNL     1     -10.569  15.687  66.719  1.00  0.00    -0.307 A  
ENDBRANCH   2   6
TORSDOF 1
ENDMDL
MODEL        7
REMARK 921   NORMALIZED FREE ENERGY PREDICTED BY IDOCK:   -6.15 KCAL/MOL
REMARK 922        TOTAL FREE ENERGY PREDICTED BY IDOCK:   -6.42 KCAL/MOL
REMARK 923 INTER-LIGAND FREE ENERGY PREDICTED BY IDOCK:   -6.64 KCAL/MOL
REMARK 924 INTRA-LIGAND FREE ENERGY PREDICTED BY IDOCK:    0.22 KCAL/MOL
REMARK 927      BINDING AFFINITY PREDICTED BY RF-SCORE:    0.00 PKD
ROOT
HETATM    1  N   UNL     1     -11.266   9.364  67.707  1.00  0.00    -0.433 N  
HETATM    2  C   UNL     1     -10.995  10.529  68.379  1.00  0.00    -0.261 C  
HETATM    3  H1  UNL     1     -11.691   8.606  68.241  1.00  0.00     0.000 HD 
HETATM    4  H2  UNL     1     -11.052   9.261  66.715  1.00  0.00     0.000 HD 
HETATM    5  O   UNL     1     -10.483  11.441  67.736  1.00  0.00    -0.177 OA 
ENDROOT
BRANCH   2   6
HETATM    6  N   UNL     1     -11.261  10.489  69.756  1.00  0.00    -0.276 N  
HETATM    7  C   UNL     1     -10.450   9.696  70.650  1.00  0.00    -0.312 A  
HETATM    8  C   UNL     1      -9.069   9.559  70.416  1.00  0.00    -0.296 A  
HETATM    9  C   UNL     1      -8.247   8.835  71.284  1.00  0.00    -0.212 A  
HETATM   10  C   UNL     1      -8.790   8.218  72.402  1.00  0.00    -0.286 A  
HETATM   11  C   UNL     1     -10.157   8.317  72.644  1.00  0.00    -0.365 A  
HETATM   12  C   UNL     1     -10.994   9.053  71.784  1.00  0.00    -0.443 A  
HETATM   13  C   UNL     1     -12.428   9.014  72.088  1.00  0.00    -0.450 C  
HETATM   14  C   UNL     1     -13.260  10.053  71.955  1.00  0.00    -0.557 C  
HETATM   15  C   UNL     1     -12.847  11.376  71.483  1.00  0.00    -0.508 A  
HETATM   16  C   UNL     1     -13.455  12.488  72.091  1.00  0.00    -0.523 A  
HETATM   17  C   UNL     1     -13.170  13.786  71.665  1.00  0.00    -0.450 A  
HETATM   18  C   UNL     1     -12.288  13.987  70.615  1.00  0.00    -0.446 A  
HETATM   19  C   UNL     1     -11.687  12.892  69.994  1.00  0.00    -0.284 A  
HETATM   20  C   UNL     1     -11.952  11.572  70.414  1.00  0.00    -0.368 A  
ENDBRANCH   2   6
TORSDOF 1
ENDMDL
MODEL        8
REMARK 921   NORMALIZED FREE ENERGY PREDICTED BY IDOCK:   -6.13 KCAL/MOL
REMARK 922        TOTAL FREE ENERGY PREDICTED BY IDOCK:   -6.40 KCAL/MOL
REMARK 923 INTER-LIGAND FREE ENERGY PREDICTED BY IDOCK:   -6.45 KCAL/MOL
REMARK 924 INTRA-LIGAND FREE ENERGY PREDICTED BY IDOCK:    0.06 KCAL/MOL
REMARK 927      BINDING AFFINITY PREDICTED BY RF-SCORE:    0.00 PKD
ROOT
HETATM    1  N   UNL     1     -13.284  13.942  65.312  1.00  0.00    -0.721 N  
HETATM    2  C   UNL     1     -12.042  13.478  65.664  1.00  0.00    -0.430 C  
HETATM    3  H1  UNL     1     -13.753  14.564  65.970  1.00  0.00     0.000 HD 
HETATM    4  H2  UNL     1     -13.720  13.676  64.429  1.00  0.00     0.000 HD 
HETATM    5  O   UNL     1     -11.478  12.728  64.871  1.00  0.00    -0.302 OA 
ENDROOT
BRANCH   2   6
HETATM    6  N   UNL     1     -11.614  13.857  66.945  1.00  0.00    -0.357 N  
HETATM    7  C   UNL     1     -11.668  12.933  68.054  1.00  0.00    -0.356 A  
HETATM    8  C   UNL     1     -11.425  11.563  67.844  1.00  0.00    -0.372 A  
HETATM    9  C   UNL     1     -11.427  10.648  68.900  1.00  0.00    -0.334 A  
HETATM   10  C   UNL     1     -11.687  11.080  70.193  1.00  0.00    -0.442 A  
HETATM   11  C   UNL     1     -11.956  12.425  70.425  1.00  0.00    -0.342 A  
HETATM   12  C   UNL     1     -11.945  13.360  69.372  1.00  0.00    -0.369 A  
HETATM   13  C   UNL     1     -12.327  14.731  69.720  1.00  0.00    -0.291 C  
HETATM   14  C   UNL     1     -11.766  15.830  69.204  1.00  0.00    -0.398 C  
HETATM   15  C   UNL     1     -10.686  15.809  68.215  1.00  0.00    -0.281 A  
HETATM   16  C   UNL     1      -9.691  16.795  68.336  1.00  0.00    -0.247 A  
HETATM   17  C   UNL     1      -8.657  16.891  67.404  1.00  0.00    -0.214 A  
HETATM   18  C   UNL     1      -8.615  16.015  66.331  1.00  0.00    -0.369 A  
HETATM   19  C   UNL     1      -9.602  15.041  66.191  1.00  0.00    -0.345 A  
HETATM   20  C   UNL     1     -10.651  14.917  67.126  1.00  0.00    -0.285 A  
ENDBRANCH   2   6
TORSDOF 1
ENDMDL
MODEL        9
REMARK 921   NORMALIZED FREE ENERGY PREDICTED BY IDOCK:   -6.06 KCAL/MOL
REMARK 922        TOTAL FREE ENERGY PREDICTED BY IDOCK:   -6.33 KCAL/MOL
REMARK 923 INTER-LIGAND FREE ENERGY PREDICTED BY IDOCK:   -6.41 KCAL/MOL
REMARK 924 INTRA-LIGAND FREE ENERGY PREDICTED BY IDOCK:    0.08 KCAL/MOL
REMARK 927      BINDING AFFINITY PREDICTED BY RF-SCORE:    0.00 PKD
ROOT
HETATM    1  N   UNL     1      -7.957  14.469  69.404  1.00  0.00    -0.371 N  
HETATM    2  C   UNL     1      -8.913  15.268  68.830  1.00  0.00    -0.209 C  
HETATM    3  H1  UNL     1      -8.218  13.505  69.610  1.00  0.00     0.000 HD 
HETATM    4  H2  UNL     1      -7.025  14.824  69.614  1.00  0.00     0.000 HD 
HETATM    5  O   UNL     1      -8.599  16.430  68.582  1.00  0.00    -0.213 OA 
ENDROOT
BRANCH   2   6
HETATM    6  N   UNL     1     -10.173  14.667  68.684  1.00  0.00    -0.238 N  
HETATM    7  C   UNL     1     -11.145  14.703  69.750  1.00  0.00    -0.234 A  
HETATM    8  C   UNL     1     -11.239  15.836  70.582  1.00  0.00    -0.395 A  
HETATM    9  C   UNL     1     -12.197  15.923  71.595  1.00  0.00    -0.544 A  
HETATM   10  C   UNL     1     -13.077  14.872  71.812  1.00  0.00    -0.425 A  
HETATM   11  C   UNL     1     -12.990  13.731  71.021  1.00  0.00    -0.324 A  
HETATM   12  C   UNL     1     -12.038  13.634  69.988  1.00  0.00    -0.417 A  
HETATM   13  C   UNL     1     -11.980  12.353  69.279  1.00  0.00    -0.308 C  
HETATM   14  C   UNL     1     -11.761  12.221  67.966  1.00  0.00    -0.417 C  
HETATM   15  C   UNL     1     -11.549  13.348  67.056  1.00  0.00    -0.396 A  
HETATM   16  C   UNL     1     -12.108  13.244  65.770  1.00  0.00    -0.491 A  
HETATM   17  C   UNL     1     -11.907  14.240  64.815  1.00  0.00    -0.436 A  
HETATM   18  C   UNL     1     -11.129  15.345  65.127  1.00  0.00    -0.402 A  
HETATM   19  C   UNL     1     -10.558  15.455  66.394  1.00  0.00    -0.307 A  
HETATM   20  C   UNL     1     -10.756  14.466  67.379  1.00  0.00    -0.280 A  
ENDBRANCH   2   6
TORSDOF 1
ENDMDL
MODEL       10
REMARK 921   NORMALIZED FREE ENERGY PREDICTED BY IDOCK:   -6.05 KCAL/MOL
REMARK 922        TOTAL FREE ENERGY PREDICTED BY IDOCK:   -6.31 KCAL/MOL
REMARK 923 INTER-LIGAND FREE ENERGY PREDICTED BY IDOCK:   -7.43 KCAL/MOL
REMARK 924 INTRA-LIGAND FREE ENERGY PREDICTED BY IDOCK:    1.11 KCAL/MOL
REMARK 927      BINDING AFFINITY PREDICTED BY RF-SCORE:    0.00 PKD
ROOT
HETATM    1  N   UNL     1     -12.406  14.430  63.549  1.00  0.00    -1.114 N  
HETATM    2  C   UNL     1     -12.404  13.177  64.108  1.00  0.00    -0.348 C  
HETATM    3  H1  UNL     1     -11.912  15.166  64.053  1.00  0.00     0.000 HD 
HETATM    4  H2  UNL     1     -12.881  14.617  62.666  1.00  0.00     0.000 HD 
HETATM    5  O   UNL     1     -12.999  12.291  63.501  1.00  0.00    -0.776 OA 
ENDROOT
BRANCH   2   6
HETATM    6  N   UNL     1     -11.787  13.096  65.366  1.00  0.00    -0.351 N  
HETATM    7  C   UNL     1     -11.141  11.881  65.803  1.00  0.00    -0.317 A  
HETATM    8  C   UNL     1     -10.463  11.068  64.874  1.00  0.00    -0.371 A  
HETATM    9  C   UNL     1      -9.791   9.909  65.269  1.00  0.00    -0.373 A  
HETATM   10  C   UNL     1      -9.790   9.525  66.602  1.00  0.00    -0.293 A  
HETATM   11  C   UNL     1     -10.473  10.297  67.538  1.00  0.00    -0.293 A  
HETATM   12  C   UNL     1     -11.145  11.474  67.156  1.00  0.00    -0.355 A  
HETATM   13  C   UNL     1     -11.901  12.158  68.209  1.00  0.00    -0.361 C  
HETATM   14  C   UNL     1     -11.994  13.486  68.337  1.00  0.00    -0.378 C  
HETATM   15  C   UNL     1     -11.347  14.441  67.435  1.00  0.00    -0.353 A  
HETATM   16  C   UNL     1     -10.824  15.611  68.013  1.00  0.00    -0.308 A  
HETATM   17  C   UNL     1     -10.244  16.606  67.226  1.00  0.00    -0.290 A  
HETATM   18  C   UNL     1     -10.196  16.452  65.849  1.00  0.00    -0.379 A  
HETATM   19  C   UNL     1     -10.722  15.303  65.261  1.00  0.00    -0.433 A  
HETATM   20  C   UNL     1     -11.303  14.279  66.037  1.00  0.00    -0.335 A  
ENDBRANCH   2   6
TORSDOF 1
ENDMDL
MODEL       11
REMARK 921   NORMALIZED FREE ENERGY PREDICTED BY IDOCK:   -6.04 KCAL/MOL
REMARK 922        TOTAL FREE ENERGY PREDICTED BY IDOCK:   -6.31 KCAL/MOL
REMARK 923 INTER-LIGAND FREE ENERGY PREDICTED BY IDOCK:   -6.37 KCAL/MOL
REMARK 924 INTRA-LIGAND FREE ENERGY PREDICTED BY IDOCK:    0.06 KCAL/MOL
REMARK 927      BINDING AFFINITY PREDICTED BY RF-SCORE:    0.00 PKD
ROOT
HETATM    1  N   UNL     1      -8.287  11.556  69.021  1.00  0.00    -0.368 N  
HETATM    2  C   UNL     1      -9.489  10.962  68.726  1.00  0.00    -0.190 C  
HETATM    3  H1  UNL     1      -8.312  12.521  69.349  1.00  0.00     0.000 HD 
HETATM    4  H2  UNL     1      -7.407  11.052  68.916  1.00  0.00     0.000 HD 
HETATM    5  O   UNL     1      -9.459   9.800  68.331  1.00  0.00    -0.139 OA 
ENDROOT
BRANCH   2   6
HETATM    6  N   UNL     1     -10.604  11.808  68.832  1.00  0.00    -0.205 N  
HETATM    7  C   UNL     1     -11.164  12.453  67.669  1.00  0.00    -0.288 A  
HETATM    8  C   UNL     1     -11.173  11.788  66.428  1.00  0.00    -0.382 A  
HETATM    9  C   UNL     1     -11.746  12.366  65.292  1.00  0.00    -0.437 A  
HETATM   10  C   UNL     1     -12.313  13.630  65.365  1.00  0.00    -0.510 A  
HETATM   11  C   UNL     1     -12.296  14.320  66.574  1.00  0.00    -0.345 A  
HETATM   12  C   UNL     1     -11.733  13.745  67.730  1.00  0.00    -0.393 A  
HETATM   13  C   UNL     1     -11.692  14.597  68.922  1.00  0.00    -0.343 C  
HETATM   14  C   UNL     1     -11.897  14.165  70.171  1.00  0.00    -0.382 C  
HETATM   15  C   UNL     1     -12.191  12.772  70.516  1.00  0.00    -0.389 A  
HETATM   16  C   UNL     1     -13.114  12.554  71.554  1.00  0.00    -0.373 A  
HETATM   17  C   UNL     1     -13.410  11.263  71.993  1.00  0.00    -0.386 A  
HETATM   18  C   UNL     1     -12.774  10.177  71.413  1.00  0.00    -0.530 A  
HETATM   19  C   UNL     1     -11.847  10.379  70.391  1.00  0.00    -0.418 A  
HETATM   20  C   UNL     1     -11.539  11.674  69.924  1.00  0.00    -0.288 A  
ENDBRANCH   2   6
TORSDOF 1
ENDMDL
MODEL       12
REMARK 921   NORMALIZED FREE ENERGY PREDICTED BY IDOCK:   -6.01 KCAL/MOL
REMARK 922        TOTAL FREE ENERGY PREDICTED BY IDOCK:   -6.27 KCAL/MOL
REMARK 923 INTER-LIGAND FREE ENERGY PREDICTED BY IDOCK:   -6.33 KCAL/MOL
REMARK 924 INTRA-LIGAND FREE ENERGY PREDICTED BY IDOCK:    0.06 KCAL/MOL
REMARK 927      BINDING AFFINITY PREDICTED BY RF-SCORE:    0.00 PKD
ROOT
HETATM    1  N   UNL     1      -7.579  12.851  67.070  1.00  0.00    -0.389 N  
HETATM    2  C   UNL     1      -8.374  11.741  66.930  1.00  0.00    -0.170 C  
HETATM    3  H1  UNL     1      -8.035  13.718  67.354  1.00  0.00     0.000 HD 
HETATM    4  H2  UNL     1      -6.575  12.811  66.897  1.00  0.00     0.000 HD 
HETATM    5  O   UNL     1      -7.824  10.698  66.587  1.00  0.00    -0.123 OA 
ENDROOT
BRANCH   2   6
HETATM    6  N   UNL     1      -9.745  11.973  67.114  1.00  0.00    -0.195 N  
HETATM    7  C   UNL     1     -10.634  12.127  65.987  1.00  0.00    -0.257 A  
HETATM    8  C   UNL     1     -10.418  11.382  64.811  1.00  0.00    -0.366 A  
HETATM    9  C   UNL     1     -11.282  11.474  63.717  1.00  0.00    -0.456 A  
HETATM   10  C   UNL     1     -12.378  12.324  63.766  1.00  0.00    -0.637 A  
HETATM   11  C   UNL     1     -12.601  13.090  64.907  1.00  0.00    -0.490 A  
HETATM   12  C   UNL     1     -11.745  12.999  66.021  1.00  0.00    -0.442 A  
HETATM   13  C   UNL     1     -12.026  13.915  67.130  1.00  0.00    -0.455 C  
HETATM   14  C   UNL     1     -11.902  13.601  68.424  1.00  0.00    -0.407 C  
HETATM   15  C   UNL     1     -11.466  12.290  68.909  1.00  0.00    -0.355 A  
HETATM   16  C   UNL     1     -12.089  11.800  70.070  1.00  0.00    -0.387 A  
HETATM   17  C   UNL     1     -11.697  10.589  70.641  1.00  0.00    -0.453 A  
HETATM   18  C   UNL     1     -10.665   9.862  70.068  1.00  0.00    -0.338 A  
HETATM   19  C   UNL     1     -10.029  10.342  68.924  1.00  0.00    -0.208 A  
HETATM   20  C   UNL     1     -10.416  11.558  68.323  1.00  0.00    -0.197 A  
ENDBRANCH   2   6
TORSDOF 1
ENDMDL
MODEL       13
REMARK 921   NORMALIZED FREE ENERGY PREDICTED BY IDOCK:   -5.86 KCAL/MOL
REMARK 922        TOTAL FREE ENERGY PREDICTED BY IDOCK:   -6.12 KCAL/MOL
REMARK 923 INTER-LIGAND FREE ENERGY PREDICTED BY IDOCK:   -6.19 KCAL/MOL
REMARK 924 INTRA-LIGAND FREE ENERGY PREDICTED BY IDOCK:    0.08 KCAL/MOL
REMARK 927      BINDING AFFINITY PREDICTED BY RF-SCORE:    0.00 PKD
ROOT
HETATM    1  N   UNL     1      -8.785  11.858  68.879  1.00  0.00    -0.369 N  
HETATM    2  C   UNL     1     -10.101  11.659  68.545  1.00  0.00    -0.206 C  
HETATM    3  H1  UNL     1      -8.476  12.821  69.004  1.00  0.00     0.000 HD 
HETATM    4  H2  UNL     1      -8.143  11.074  68.997  1.00  0.00     0.000 HD 
HETATM    5  O   UNL     1     -10.473  10.498  68.394  1.00  0.00    -0.168 OA 
ENDROOT
BRANCH   2   6
HETATM    6  N   UNL     1     -10.836  12.834  68.329  1.00  0.00    -0.238 N  
HETATM    7  C   UNL     1     -11.299  13.193  67.009  1.00  0.00    -0.312 A  
HETATM    8  C   UNL     1     -11.704  12.191  66.106  1.00  0.00    -0.384 A  
HETATM    9  C   UNL     1     -12.197  12.505  64.838  1.00  0.00    -0.534 A  
HETATM   10  C   UNL     1     -12.286  13.830  64.433  1.00  0.00    -0.440 A  
HETATM   11  C   UNL     1     -11.869  14.839  65.297  1.00  0.00    -0.276 A  
HETATM   12  C   UNL     1     -11.381  14.538  66.583  1.00  0.00    -0.359 A  
HETATM   13  C   UNL     1     -10.889  15.672  67.370  1.00  0.00    -0.315 C  
HETATM   14  C   UNL     1     -11.054  15.808  68.691  1.00  0.00    -0.327 C  
HETATM   15  C   UNL     1     -11.753  14.834  69.531  1.00  0.00    -0.358 A  
HETATM   16  C   UNL     1     -12.543  15.344  70.577  1.00  0.00    -0.471 A  
HETATM   17  C   UNL     1     -13.197  14.491  71.467  1.00  0.00    -0.431 A  
HETATM   18  C   UNL     1     -13.054  13.119  71.334  1.00  0.00    -0.352 A  
HETATM   19  C   UNL     1     -12.263  12.599  70.310  1.00  0.00    -0.347 A  
HETATM   20  C   UNL     1     -11.602  13.441  69.392  1.00  0.00    -0.307 A  
ENDBRANCH   2   6
TORSDOF 1
ENDMDL
MODEL       14
REMARK 921   NORMALIZED FREE ENERGY PREDICTED BY IDOCK:   -5.84 KCAL/MOL
REMARK 922        TOTAL FREE ENERGY PREDICTED BY IDOCK:   -6.09 KCAL/MOL
REMARK 923 INTER-LIGAND FREE ENERGY PREDICTED BY IDOCK:   -6.34 KCAL/MOL
REMARK 924 INTRA-LIGAND FREE ENERGY PREDICTED BY IDOCK:    0.25 KCAL/MOL
REMARK 927      BINDING AFFINITY PREDICTED BY RF-SCORE:    0.00 PKD
ROOT
HETATM    1  N   UNL     1     -13.142  11.489  63.146  1.00  0.00    -0.670 N  
HETATM    2  C   UNL     1     -12.351  12.467  63.695  1.00  0.00    -0.548 C  
HETATM    3  H1  UNL     1     -13.104  10.564  63.574  1.00  0.00     0.000 HD 
HETATM    4  H2  UNL     1     -13.743  11.680  62.344  1.00  0.00     0.000 HD 
HETATM    5  O   UNL     1     -12.397  13.581  63.179  1.00  0.00    -0.712 OA 
ENDROOT
BRANCH   2   6
HETATM    6  N   UNL     1     -11.514  12.032  64.734  1.00  0.00    -0.317 N  
HETATM    7  C   UNL     1     -10.413  11.134  64.479  1.00  0.00    -0.350 A  
HETATM    8  C   UNL     1      -9.687  11.230  63.276  1.00  0.00    -0.405 A  
HETATM    9  C   UNL     1      -8.590  10.406  63.015  1.00  0.00    -0.189 A  
HETATM   10  C   UNL     1      -8.198   9.454  63.945  1.00  0.00    -0.165 A  
HETATM   11  C   UNL     1      -8.913   9.321  65.132  1.00  0.00    -0.257 A  
HETATM   12  C   UNL     1     -10.014  10.152  65.414  1.00  0.00    -0.377 A  
HETATM   13  C   UNL     1     -10.743   9.863  66.651  1.00  0.00    -0.116 C  
HETATM   14  C   UNL     1     -11.267  10.792  67.459  1.00  0.00    -0.346 C  
HETATM   15  C   UNL     1     -11.181  12.233  67.210  1.00  0.00    -0.358 A  
HETATM   16  C   UNL     1     -10.999  13.063  68.330  1.00  0.00    -0.288 A  
HETATM   17  C   UNL     1     -10.967  14.452  68.199  1.00  0.00    -0.265 A  
HETATM   18  C   UNL     1     -11.135  15.028  66.949  1.00  0.00    -0.331 A  
HETATM   19  C   UNL     1     -11.329  14.217  65.832  1.00  0.00    -0.323 A  
HETATM   20  C   UNL     1     -11.355  12.811  65.938  1.00  0.00    -0.324 A  
ENDBRANCH   2   6
TORSDOF 1
ENDMDL
MODEL       15
REMARK 921   NORMALIZED FREE ENERGY PREDICTED BY IDOCK:   -5.77 KCAL/MOL
REMARK 922        TOTAL FREE ENERGY PREDICTED BY IDOCK:   -6.02 KCAL/MOL
REMARK 923 INTER-LIGAND FREE ENERGY PREDICTED BY IDOCK:   -6.09 KCAL/MOL
REMARK 924 INTRA-LIGAND FREE ENERGY PREDICTED BY IDOCK:    0.07 KCAL/MOL
REMARK 927      BINDING AFFINITY PREDICTED BY RF-SCORE:    0.00 PKD
ROOT
HETATM    1  N   UNL     1      -7.521  12.231  66.889  1.00  0.00    -0.372 N  
HETATM    2  C   UNL     1      -8.663  11.483  67.023  1.00  0.00    -0.169 C  
HETATM    3  H1  UNL     1      -7.623  13.245  66.905  1.00  0.00     0.000 HD 
HETATM    4  H2  UNL     1      -6.607  11.790  66.778  1.00  0.00     0.000 HD 
HETATM    5  O   UNL     1      -8.540  10.261  67.003  1.00  0.00    -0.129 OA 
ENDROOT
BRANCH   2   6
HETATM    6  N   UNL     1      -9.851  12.229  67.075  1.00  0.00    -0.203 N  
HETATM    7  C   UNL     1     -10.597  12.528  65.877  1.00  0.00    -0.265 A  
HETATM    8  C   UNL     1     -10.657  11.590  64.829  1.00  0.00    -0.362 A  
HETATM    9  C   UNL     1     -11.404  11.829  63.673  1.00  0.00    -0.525 A  
HETATM   10  C   UNL     1     -12.102  13.020  63.530  1.00  0.00    -0.617 A  
HETATM   11  C   UNL     1     -12.041  13.976  64.540  1.00  0.00    -0.484 A  
HETATM   12  C   UNL     1     -11.301  13.743  65.716  1.00  0.00    -0.309 A  
HETATM   13  C   UNL     1     -11.236  14.853  66.670  1.00  0.00    -0.340 C  
HETATM   14  C   UNL     1     -11.262  14.713  68.000  1.00  0.00    -0.307 C  
HETATM   15  C   UNL     1     -11.358  13.422  68.684  1.00  0.00    -0.322 A  
HETATM   16  C   UNL     1     -12.138  13.376  69.853  1.00  0.00    -0.389 A  
HETATM   17  C   UNL     1     -12.239  12.205  70.605  1.00  0.00    -0.392 A  
HETATM   18  C   UNL     1     -11.545  11.072  70.209  1.00  0.00    -0.414 A  
HETATM   19  C   UNL     1     -10.756  11.108  69.060  1.00  0.00    -0.265 A  
HETATM   20  C   UNL     1     -10.648  12.276  68.278  1.00  0.00    -0.227 A  
ENDBRANCH   2   6
TORSDOF 1
ENDMDL
MODEL       16
REMARK 921   NORMALIZED FREE ENERGY PREDICTED BY IDOCK:   -5.70 KCAL/MOL
REMARK 922        TOTAL FREE ENERGY PREDICTED BY IDOCK:   -5.95 KCAL/MOL
REMARK 923 INTER-LIGAND FREE ENERGY PREDICTED BY IDOCK:   -6.98 KCAL/MOL
REMARK 924 INTRA-LIGAND FREE ENERGY PREDICTED BY IDOCK:    1.03 KCAL/MOL
REMARK 927      BINDING AFFINITY PREDICTED BY RF-SCORE:    0.00 PKD
ROOT
HETATM    1  N   UNL     1     -12.323  14.001  67.486  1.00  0.00    -0.521 N  
HETATM    2  C   UNL     1     -12.035  12.719  67.881  1.00  0.00    -0.266 C  
HETATM    3  H1  UNL     1     -12.410  14.705  68.218  1.00  0.00     0.000 HD 
HETATM    4  H2  UNL     1     -12.444  14.239  66.502  1.00  0.00     0.000 HD 
HETATM    5  O   UNL     1     -11.929  11.870  66.998  1.00  0.00    -0.615 OA 
ENDROOT
BRANCH   2   6
HETATM    6  N   UNL     1     -11.987  12.528  69.270  1.00  0.00    -0.281 N  
HETATM    7  C   UNL     1     -11.438  11.320  69.838  1.00  0.00    -0.293 A  
HETATM    8  C   UNL     1     -10.345  10.681  69.221  1.00  0.00    -0.240 A  
HETATM    9  C   UNL     1      -9.762   9.536  69.766  1.00  0.00    -0.234 A  
HETATM   10  C   UNL     1     -10.266   8.990  70.939  1.00  0.00    -0.324 A  
HETATM   11  C   UNL     1     -11.360   9.586  71.557  1.00  0.00    -0.456 A  
HETATM   12  C   UNL     1     -11.951  10.748  71.025  1.00  0.00    -0.409 A  
HETATM   13  C   UNL     1     -13.150  11.237  71.710  1.00  0.00    -0.527 C  
HETATM   14  C   UNL     1     -13.446  12.529  71.895  1.00  0.00    -0.392 C  
HETATM   15  C   UNL     1     -12.604  13.634  71.433  1.00  0.00    -0.415 A  
HETATM   16  C   UNL     1     -12.511  14.759  72.272  1.00  0.00    -0.408 A  
HETATM   17  C   UNL     1     -11.782  15.884  71.887  1.00  0.00    -0.590 A  
HETATM   18  C   UNL     1     -11.152  15.907  70.653  1.00  0.00    -0.368 A  
HETATM   19  C   UNL     1     -11.247  14.804  69.805  1.00  0.00    -0.306 A  
HETATM   20  C   UNL     1     -11.969  13.651  70.176  1.00  0.00    -0.337 A  
ENDBRANCH   2   6
TORSDOF 1
ENDMDL
MODEL       17
REMARK 921   NORMALIZED FREE ENERGY PREDICTED BY IDOCK:   -5.69 KCAL/MOL
REMARK 922        TOTAL FREE ENERGY PREDICTED BY IDOCK:   -5.94 KCAL/MOL
REMARK 923 INTER-LIGAND FREE ENERGY PREDICTED BY IDOCK:   -6.92 KCAL/MOL
REMARK 924 INTRA-LIGAND FREE ENERGY PREDICTED BY IDOCK:    0.99 KCAL/MOL
REMARK 927      BINDING AFFINITY PREDICTED BY RF-SCORE:    0.00 PKD
ROOT
HETATM    1  N   UNL     1     -12.307  14.245  63.927  1.00  0.00    -0.986 N  
HETATM    2  C   UNL     1     -12.470  12.959  64.377  1.00  0.00    -0.375 C  
HETATM    3  H1  UNL     1     -11.638  14.832  64.425  1.00  0.00     0.000 HD 
HETATM    4  H2  UNL     1     -12.832  14.598  63.127  1.00  0.00     0.000 HD 
HETATM    5  O   UNL     1     -13.275  12.252  63.776  1.00  0.00    -0.771 OA 
ENDROOT
BRANCH   2   6
HETATM    6  N   UNL     1     -11.748  12.647  65.539  1.00  0.00    -0.380 N  
HETATM    7  C   UNL     1     -10.900  11.480  65.600  1.00  0.00    -0.252 A  
HETATM    8  C   UNL     1     -10.191  11.062  64.458  1.00  0.00    -0.406 A  
HETATM    9  C   UNL     1      -9.329   9.963  64.493  1.00  0.00    -0.336 A  
HETATM   10  C   UNL     1      -9.165   9.245  65.669  1.00  0.00    -0.291 A  
HETATM   11  C   UNL     1      -9.873   9.621  66.806  1.00  0.00    -0.270 A  
HETATM   12  C   UNL     1     -10.736  10.734  66.789  1.00  0.00    -0.291 A  
HETATM   13  C   UNL     1     -11.495  10.984  68.017  1.00  0.00    -0.365 C  
HETATM   14  C   UNL     1     -11.767  12.198  68.509  1.00  0.00    -0.382 C  
HETATM   15  C   UNL     1     -11.339  13.449  67.879  1.00  0.00    -0.322 A  
HETATM   16  C   UNL     1     -10.944  14.492  68.735  1.00  0.00    -0.262 A  
HETATM   17  C   UNL     1     -10.579  15.739  68.229  1.00  0.00    -0.271 A  
HETATM   18  C   UNL     1     -10.621  15.966  66.862  1.00  0.00    -0.309 A  
HETATM   19  C   UNL     1     -11.022  14.944  66.002  1.00  0.00    -0.334 A  
HETATM   20  C   UNL     1     -11.386  13.672  66.489  1.00  0.00    -0.319 A  
ENDBRANCH   2   6
TORSDOF 1
ENDMDL
MODEL       18
REMARK 921   NORMALIZED FREE ENERGY PREDICTED BY IDOCK:   -5.67 KCAL/MOL
REMARK 922        TOTAL FREE ENERGY PREDICTED BY IDOCK:   -5.92 KCAL/MOL
REMARK 923 INTER-LIGAND FREE ENERGY PREDICTED BY IDOCK:   -6.05 KCAL/MOL
REMARK 924 INTRA-LIGAND FREE ENERGY PREDICTED BY IDOCK:    0.13 KCAL/MOL
REMARK 927      BINDING AFFINITY PREDICTED BY RF-SCORE:    0.00 PKD
ROOT
HETATM    1  N   UNL     1      -8.661  15.885  67.220  1.00  0.00    -0.175 N  
HETATM    2  C   UNL     1     -10.002  16.054  67.456  1.00  0.00    -0.240 C  
HETATM    3  H1  UNL     1      -8.322  14.929  67.115  1.00  0.00     0.000 HD 
HETATM    4  H2  UNL     1      -8.029  16.683  67.151  1.00  0.00     0.000 HD 
HETATM    5  O   UNL     1     -10.409  17.206  67.582  1.00  0.00    -0.320 OA 
ENDROOT
BRANCH   2   6
HETATM    6  N   UNL     1     -10.725  14.862  67.614  1.00  0.00    -0.265 N  
HETATM    7  C   UNL     1     -11.475  14.598  68.819  1.00  0.00    -0.296 A  
HETATM    8  C   UNL     1     -12.118  15.652  69.495  1.00  0.00    -0.307 A  
HETATM    9  C   UNL     1     -12.887  15.427  70.639  1.00  0.00    -0.484 A  
HETATM   10  C   UNL     1     -13.022  14.142  71.145  1.00  0.00    -0.419 A  
HETATM   11  C   UNL     1     -12.376  13.085  70.511  1.00  0.00    -0.365 A  
HETATM   12  C   UNL     1     -11.608  13.295  69.350  1.00  0.00    -0.364 A  
HETATM   13  C   UNL     1     -10.903  12.125  68.819  1.00  0.00    -0.265 C  
HETATM   14  C   UNL     1     -10.744  11.860  67.517  1.00  0.00    -0.263 C  
HETATM   15  C   UNL     1     -11.258  12.711  66.442  1.00  0.00    -0.350 A  
HETATM   16  C   UNL     1     -11.758  12.062  65.299  1.00  0.00    -0.312 A  
HETATM   17  C   UNL     1     -12.211  12.790  64.199  1.00  0.00    -0.506 A  
HETATM   18  C   UNL     1     -12.153  14.175  64.220  1.00  0.00    -0.471 A  
HETATM   19  C   UNL     1     -11.648  14.832  65.342  1.00  0.00    -0.316 A  
HETATM   20  C   UNL     1     -11.193  14.117  66.470  1.00  0.00    -0.330 A  
ENDBRANCH   2   6
TORSDOF 1
ENDMDL
MODEL       19
REMARK 921   NORMALIZED FREE ENERGY PREDICTED BY IDOCK:   -5.67 KCAL/MOL
REMARK 922        TOTAL FREE ENERGY PREDICTED BY IDOCK:   -5.92 KCAL/MOL
REMARK 923 INTER-LIGAND FREE ENERGY PREDICTED BY IDOCK:   -6.00 KCAL/MOL
REMARK 924 INTRA-LIGAND FREE ENERGY PREDICTED BY IDOCK:    0.08 KCAL/MOL
REMARK 927      BINDING AFFINITY PREDICTED BY RF-SCORE:    0.00 PKD
ROOT
HETATM    1  N   UNL     1      -7.921  10.668  69.628  1.00  0.00    -0.365 N  
HETATM    2  C   UNL     1      -9.005   9.857  69.401  1.00  0.00    -0.195 C  
HETATM    3  H1  UNL     1      -8.104  11.660  69.776  1.00  0.00     0.000 HD 
HETATM    4  H2  UNL     1      -6.973  10.294  69.649  1.00  0.00     0.000 HD 
HETATM    5  O   UNL     1      -8.784   8.662  69.222  1.00  0.00    -0.130 OA 
ENDROOT
BRANCH   2   6
HETATM    6  N   UNL     1     -10.233  10.529  69.312  1.00  0.00    -0.219 N  
HETATM    7  C   UNL     1     -10.696  11.076  68.058  1.00  0.00    -0.217 A  
HETATM    8  C   UNL     1     -10.417  10.408  66.851  1.00  0.00    -0.300 A  
HETATM    9  C   UNL     1     -10.885  10.886  65.625  1.00  0.00    -0.112 A  
HETATM   10  C   UNL     1     -11.634  12.053  65.573  1.00  0.00    -0.352 A  
HETATM   11  C   UNL     1     -11.904  12.747  66.749  1.00  0.00    -0.452 A  
HETATM   12  C   UNL     1     -11.448  12.270  67.993  1.00  0.00    -0.378 A  
HETATM   13  C   UNL     1     -11.716  13.127  69.152  1.00  0.00    -0.376 C  
HETATM   14  C   UNL     1     -12.046  12.679  70.368  1.00  0.00    -0.381 C  
HETATM   15  C   UNL     1     -12.184  11.261  70.706  1.00  0.00    -0.479 A  
HETATM   16  C   UNL     1     -13.214  10.916  71.599  1.00  0.00    -0.471 A  
HETATM   17  C   UNL     1     -13.384   9.599  72.026  1.00  0.00    -0.547 A  
HETATM   18  C   UNL     1     -12.515   8.614  71.582  1.00  0.00    -0.382 A  
HETATM   19  C   UNL     1     -11.481   8.944  70.707  1.00  0.00    -0.319 A  
HETATM   20  C   UNL     1     -11.296  10.267  70.252  1.00  0.00    -0.323 A  
ENDBRANCH   2   6
TORSDOF 1
ENDMDL
MODEL       20
REMARK 921   NORMALIZED FREE ENERGY PREDICTED BY IDOCK:   -5.65 KCAL/MOL
REMARK 922        TOTAL FREE ENERGY PREDICTED BY IDOCK:   -5.89 KCAL/MOL
REMARK 923 INTER-LIGAND FREE ENERGY PREDICTED BY IDOCK:   -6.39 KCAL/MOL
REMARK 924 INTRA-LIGAND FREE ENERGY PREDICTED BY IDOCK:    0.49 KCAL/MOL
REMARK 927      BINDING AFFINITY PREDICTED BY RF-SCORE:    0.00 PKD
ROOT
HETATM    1  N   UNL     1     -12.103  14.695  63.661  1.00  0.00    -0.918 N  
HETATM    2  C   UNL     1     -12.273  14.038  64.853  1.00  0.00    -0.437 C  
HETATM    3  H1  UNL     1     -11.162  14.713  63.268  1.00  0.00     0.000 HD 
HETATM    4  H2  UNL     1     -12.885  15.147  63.187  1.00  0.00     0.000 HD 
HETATM    5  O   UNL     1     -13.406  14.017  65.326  1.00  0.00    -0.741 OA 
ENDROOT
BRANCH   2   6
HETATM    6  N   UNL     1     -11.090  13.547  65.427  1.00  0.00    -0.289 N  
HETATM    7  C   UNL     1     -10.468  12.340  64.937  1.00  0.00    -0.289 A  
HETATM    8  C   UNL     1     -10.508  12.033  63.563  1.00  0.00    -0.505 A  
HETATM    9  C   UNL     1      -9.880  10.896  63.049  1.00  0.00    -0.358 A  
HETATM   10  C   UNL     1      -9.207  10.028  63.898  1.00  0.00    -0.317 A  
HETATM   11  C   UNL     1      -9.174  10.295  65.263  1.00  0.00    -0.244 A  
HETATM   12  C   UNL     1      -9.792  11.443  65.794  1.00  0.00    -0.270 A  
HETATM   13  C   UNL     1      -9.768  11.575  67.254  1.00  0.00    -0.197 C  
HETATM   14  C   UNL     1      -9.609  12.730  67.910  1.00  0.00    -0.211 C  
HETATM   15  C   UNL     1      -9.438  14.026  67.251  1.00  0.00    -0.231 A  
HETATM   16  C   UNL     1      -8.545  14.932  67.849  1.00  0.00    -0.160 A  
HETATM   17  C   UNL     1      -8.363  16.213  67.328  1.00  0.00    -0.204 A  
HETATM   18  C   UNL     1      -9.085  16.611  66.214  1.00  0.00    -0.333 A  
HETATM   19  C   UNL     1      -9.984  15.728  65.618  1.00  0.00    -0.378 A  
HETATM   20  C   UNL     1     -10.177  14.424  66.121  1.00  0.00    -0.306 A  
ENDBRANCH   2   6
TORSDOF 1
ENDMDL
MODEL       21
REMARK 921   NORMALIZED FREE ENERGY PREDICTED BY IDOCK:   -5.58 KCAL/MOL
REMARK 922        TOTAL FREE ENERGY PREDICTED BY IDOCK:   -5.82 KCAL/MOL
REMARK 923 INTER-LIGAND FREE ENERGY PREDICTED BY IDOCK:   -5.99 KCAL/MOL
REMARK 924 INTRA-LIGAND FREE ENERGY PREDICTED BY IDOCK:    0.17 KCAL/MOL
REMARK 927      BINDING AFFINITY PREDICTED BY RF-SCORE:    0.00 PKD
ROOT
HETATM    1  N   UNL     1     -12.056  13.137  66.109  1.00  0.00    -0.421 N  
HETATM    2  C   UNL     1     -11.624  12.421  67.196  1.00  0.00    -0.365 C  
HETATM    3  H1  UNL     1     -12.128  14.149  66.214  1.00  0.00     0.000 HD 
HETATM    4  H2  UNL     1     -12.297  12.676  65.231  1.00  0.00     0.000 HD 
HETATM    5  O   UNL     1     -11.539  11.203  67.068  1.00  0.00    -0.463 OA 
ENDROOT
BRANCH   2   6
HETATM    6  N   UNL     1     -11.419  13.182  68.357  1.00  0.00    -0.292 N  
HETATM    7  C   UNL     1     -12.044  12.820  69.607  1.00  0.00    -0.222 A  
HETATM    8  C   UNL     1     -12.224  11.463  69.939  1.00  0.00    -0.346 A  
HETATM    9  C   UNL     1     -12.786  11.076  71.158  1.00  0.00    -0.521 A  
HETATM   10  C   UNL     1     -13.194  12.037  72.072  1.00  0.00    -0.481 A  
HETATM   11  C   UNL     1     -13.050  13.385  71.759  1.00  0.00    -0.479 A  
HETATM   12  C   UNL     1     -12.475  13.790  70.540  1.00  0.00    -0.409 A  
HETATM   13  C   UNL     1     -12.454  15.232  70.281  1.00  0.00    -0.405 C  
HETATM   14  C   UNL     1     -11.453  15.881  69.675  1.00  0.00    -0.346 C  
HETATM   15  C   UNL     1     -10.235  15.231  69.187  1.00  0.00    -0.242 A  
HETATM   16  C   UNL     1      -9.031  15.942  69.330  1.00  0.00    -0.251 A  
HETATM   17  C   UNL     1      -7.830  15.429  68.839  1.00  0.00    -0.177 A  
HETATM   18  C   UNL     1      -7.821  14.208  68.183  1.00  0.00    -0.142 A  
HETATM   19  C   UNL     1      -9.010  13.498  68.022  1.00  0.00    -0.189 A  
HETATM   20  C   UNL     1     -10.234  13.991  68.519  1.00  0.00    -0.237 A  
ENDBRANCH   2   6
TORSDOF 1
ENDMDL
MODEL       22
REMARK 921   NORMALIZED FREE ENERGY PREDICTED BY IDOCK:   -5.46 KCAL/MOL
REMARK 922        TOTAL FREE ENERGY PREDICTED BY IDOCK:   -5.70 KCAL/MOL
REMARK 923 INTER-LIGAND FREE ENERGY PREDICTED BY IDOCK:   -5.77 KCAL/MOL
REMARK 924 INTRA-LIGAND FREE ENERGY PREDICTED BY IDOCK:    0.07 KCAL/MOL
REMARK 927      BINDING AFFINITY PREDICTED BY RF-SCORE:    0.00 PKD
ROOT
HETATM    1  N   UNL     1     -10.929   8.078  68.087  1.00  0.00    -0.441 N  
HETATM    2  C   UNL     1     -10.394   9.188  68.691  1.00  0.00    -0.209 C  
HETATM    3  H1  UNL     1     -11.586   7.521  68.632  1.00  0.00     0.000 HD 
HETATM    4  H2  UNL     1     -10.679   7.822  67.132  1.00  0.00     0.000 HD 
HETATM    5  O   UNL     1      -9.603   9.859  68.034  1.00  0.00    -0.138 OA 
ENDROOT
BRANCH   2   6
HETATM    6  N   UNL     1     -10.762   9.360  70.034  1.00  0.00    -0.226 N  
HETATM    7  C   UNL     1      -9.973   8.794  71.102  1.00  0.00    -0.248 A  
HETATM    8  C   UNL     1      -8.571   8.726  70.985  1.00  0.00    -0.236 A  
HETATM    9  C   UNL     1      -7.774   8.223  72.016  1.00  0.00    -0.153 A  
HETATM   10  C   UNL     1      -8.359   7.763  73.187  1.00  0.00    -0.207 A  
HETATM   11  C   UNL     1      -9.744   7.796  73.320  1.00  0.00    -0.357 A  
HETATM   12  C   UNL     1     -10.559   8.311  72.294  1.00  0.00    -0.393 A  
HETATM   13  C   UNL     1     -12.006   8.214  72.507  1.00  0.00    -0.410 C  
HETATM   14  C   UNL     1     -12.891   9.148  72.142  1.00  0.00    -0.486 C  
HETATM   15  C   UNL     1     -12.530  10.401  71.476  1.00  0.00    -0.508 A  
HETATM   16  C   UNL     1     -13.253  11.550  71.841  1.00  0.00    -0.479 A  
HETATM   17  C   UNL     1     -13.020  12.776  71.216  1.00  0.00    -0.310 A  
HETATM   18  C   UNL     1     -12.075  12.864  70.206  1.00  0.00    -0.377 A  
HETATM   19  C   UNL     1     -11.360  11.729  69.824  1.00  0.00    -0.245 A  
HETATM   20  C   UNL     1     -11.570  10.482  70.448  1.00  0.00    -0.342 A  
ENDBRANCH   2   6
TORSDOF 1
ENDMDL
MODEL       23
REMARK 921   NORMALIZED FREE ENERGY PREDICTED BY IDOCK:   -5.45 KCAL/MOL
REMARK 922        TOTAL FREE ENERGY PREDICTED BY IDOCK:   -5.68 KCAL/MOL
REMARK 923 INTER-LIGAND FREE ENERGY PREDICTED BY IDOCK:   -6.04 KCAL/MOL
REMARK 924 INTRA-LIGAND FREE ENERGY PREDICTED BY IDOCK:    0.36 KCAL/MOL
REMARK 927      BINDING AFFINITY PREDICTED BY RF-SCORE:    0.00 PKD
ROOT
HETATM    1  N   UNL     1     -10.277  14.575  64.825  1.00  0.00    -0.546 N  
HETATM    2  C   UNL     1     -10.675  15.844  65.163  1.00  0.00    -0.429 C  
HETATM    3  H1  UNL     1      -9.737  14.056  65.517  1.00  0.00     0.000 HD 
HETATM    4  H2  UNL     1     -10.512  14.168  63.920  1.00  0.00     0.000 HD 
HETATM    5  O   UNL     1     -11.326  16.469  64.329  1.00  0.00    -1.020 OA 
ENDROOT
BRANCH   2   6
HETATM    6  N   UNL     1     -10.201  16.299  66.402  1.00  0.00    -0.300 N  
HETATM    7  C   UNL     1      -9.794  17.672  66.588  1.00  0.00    -0.309 A  
HETATM    8  C   UNL     1     -10.472  18.706  65.916  1.00  0.00    -0.395 A  
HETATM    9  C   UNL     1     -10.133  20.048  66.105  1.00  0.00    -0.588 A  
HETATM   10  C   UNL     1      -9.096  20.389  66.961  1.00  0.00    -0.459 A  
HETATM   11  C   UNL     1      -8.392  19.385  67.619  1.00  0.00    -0.334 A  
HETATM   12  C   UNL     1      -8.731  18.029  67.447  1.00  0.00    -0.248 A  
HETATM   13  C   UNL     1      -7.866  17.055  68.120  1.00  0.00    -0.196 C  
HETATM   14  C   UNL     1      -8.297  15.927  68.695  1.00  0.00    -0.195 C  
HETATM   15  C   UNL     1      -9.700  15.512  68.729  1.00  0.00    -0.213 A  
HETATM   16  C   UNL     1     -10.151  14.882  69.903  1.00  0.00     0.034 A  
HETATM   17  C   UNL     1     -11.455  14.397  70.004  1.00  0.00    -0.295 A  
HETATM   18  C   UNL     1     -12.319  14.519  68.927  1.00  0.00    -0.091 A  
HETATM   19  C   UNL     1     -11.882  15.130  67.752  1.00  0.00    -0.165 A  
HETATM   20  C   UNL     1     -10.572  15.638  67.630  1.00  0.00    -0.294 A  
ENDBRANCH   2   6
TORSDOF 1
ENDMDL
MODEL       24
REMARK 921   NORMALIZED FREE ENERGY PREDICTED BY IDOCK:   -5.42 KCAL/MOL
REMARK 922        TOTAL FREE ENERGY PREDICTED BY IDOCK:   -5.65 KCAL/MOL
REMARK 923 INTER-LIGAND FREE ENERGY PREDICTED BY IDOCK:   -5.90 KCAL/MOL
REMARK 924 INTRA-LIGAND FREE ENERGY PREDICTED BY IDOCK:    0.25 KCAL/MOL
REMARK 927      BINDING AFFINITY PREDICTED BY RF-SCORE:    0.00 PKD
ROOT
HETATM    1  N   UNL     1      -9.054   8.597  72.042  1.00  0.00    -0.248 N  
HETATM    2  C   UNL     1      -9.522   8.515  70.755  1.00  0.00    -0.178 C  
HETATM    3  H1  UNL     1      -9.636   9.089  72.720  1.00  0.00     0.000 HD 
HETATM    4  H2  UNL     1      -8.161   8.183  72.310  1.00  0.00     0.000 HD 
HETATM    5  O   UNL     1      -8.820   7.923  69.939  1.00  0.00    -0.140 OA 
ENDROOT
BRANCH   2   6
HETATM    6  N   UNL     1     -10.718   9.209  70.519  1.00  0.00    -0.221 N  
HETATM    7  C   UNL     1     -10.878  10.046  69.354  1.00  0.00    -0.239 A  
HETATM    8  C   UNL     1     -10.277   9.681  68.134  1.00  0.00    -0.225 A  
HETATM    9  C   UNL     1     -10.446  10.445  66.977  1.00  0.00    -0.309 A  
HETATM   10  C   UNL     1     -11.210  11.603  67.013  1.00  0.00    -0.376 A  
HETATM   11  C   UNL     1     -11.795  12.001  68.211  1.00  0.00    -0.351 A  
HETATM   12  C   UNL     1     -11.643  11.234  69.383  1.00  0.00    -0.390 A  
HETATM   13  C   UNL     1     -12.228  11.795  70.604  1.00  0.00    -0.443 C  
HETATM   14  C   UNL     1     -12.830  11.076  71.557  1.00  0.00    -0.555 C  
HETATM   15  C   UNL     1     -12.985   9.620  71.507  1.00  0.00    -0.486 A  
HETATM   16  C   UNL     1     -14.189   9.090  72.004  1.00  0.00    -0.384 A  
HETATM   17  C   UNL     1     -14.401   7.712  72.054  1.00  0.00    -0.455 A  
HETATM   18  C   UNL     1     -13.406   6.847  71.625  1.00  0.00    -0.296 A  
HETATM   19  C   UNL     1     -12.203   7.359  71.142  1.00  0.00    -0.357 A  
HETATM   20  C   UNL     1     -11.969   8.748  71.072  1.00  0.00    -0.251 A  
ENDBRANCH   2   6
TORSDOF 1
ENDMDL
MODEL       25
REMARK 921   NORMALIZED FREE ENERGY PREDICTED BY IDOCK:   -5.42 KCAL/MOL
REMARK 922        TOTAL FREE ENERGY PREDICTED BY IDOCK:   -5.65 KCAL/MOL
REMARK 923 INTER-LIGAND FREE ENERGY PREDICTED BY IDOCK:   -5.73 KCAL/MOL
REMARK 924 INTRA-LIGAND FREE ENERGY PREDICTED BY IDOCK:    0.08 KCAL/MOL
REMARK 927      BINDING AFFINITY PREDICTED BY RF-SCORE:    0.00 PKD
ROOT
HETATM    1  N   UNL     1     -12.670  13.844  66.650  1.00  0.00    -0.396 N  
HETATM    2  C   UNL     1     -11.870  14.352  67.642  1.00  0.00    -0.378 C  
HETATM    3  H1  UNL     1     -13.126  12.950  66.831  1.00  0.00     0.000 HD 
HETATM    4  H2  UNL     1     -12.803  14.339  65.768  1.00  0.00     0.000 HD 
HETATM    5  O   UNL     1     -11.321  15.429  67.423  1.00  0.00    -0.319 OA 
ENDROOT
BRANCH   2   6
HETATM    6  N   UNL     1     -11.713  13.516  68.757  1.00  0.00    -0.316 N  
HETATM    7  C   UNL     1     -10.676  12.512  68.797  1.00  0.00    -0.202 A  
HETATM    8  C   UNL     1      -9.428  12.762  68.195  1.00  0.00    -0.219 A  
HETATM    9  C   UNL     1      -8.388  11.831  68.252  1.00  0.00    -0.159 A  
HETATM   10  C   UNL     1      -8.575  10.619  68.901  1.00  0.00    -0.158 A  
HETATM   11  C   UNL     1      -9.807  10.335  69.483  1.00  0.00    -0.244 A  
HETATM   12  C   UNL     1     -10.860  11.269  69.444  1.00  0.00    -0.239 A  
HETATM   13  C   UNL     1     -12.137  10.829  70.012  1.00  0.00    -0.423 C  
HETATM   14  C   UNL     1     -12.967  11.610  70.712  1.00  0.00    -0.065 C  
HETATM   15  C   UNL     1     -12.708  13.022  71.005  1.00  0.00    -0.347 A  
HETATM   16  C   UNL     1     -13.101  13.493  72.269  1.00  0.00    -0.488 A  
HETATM   17  C   UNL     1     -12.951  14.836  72.616  1.00  0.00    -0.518 A  
HETATM   18  C   UNL     1     -12.422  15.728  71.695  1.00  0.00    -0.525 A  
HETATM   19  C   UNL     1     -12.039  15.277  70.433  1.00  0.00    -0.388 A  
HETATM   20  C   UNL     1     -12.172  13.922  70.064  1.00  0.00    -0.344 A  
ENDBRANCH   2   6
TORSDOF 1
ENDMDL
MODEL       26
REMARK 921   NORMALIZED FREE ENERGY PREDICTED BY IDOCK:   -5.41 KCAL/MOL
REMARK 922        TOTAL FREE ENERGY PREDICTED BY IDOCK:   -5.64 KCAL/MOL
REMARK 923 INTER-LIGAND FREE ENERGY PREDICTED BY IDOCK:   -5.70 KCAL/MOL
REMARK 924 INTRA-LIGAND FREE ENERGY PREDICTED BY IDOCK:    0.06 KCAL/MOL
REMARK 927      BINDING AFFINITY PREDICTED BY RF-SCORE:    0.00 PKD
ROOT
HETATM    1  N   UNL     1      -7.874  10.638  69.638  1.00  0.00    -0.350 N  
HETATM    2  C   UNL     1      -9.085  10.576  68.997  1.00  0.00    -0.181 C  
HETATM    3  H1  UNL     1      -7.721   9.989  70.409  1.00  0.00     0.000 HD 
HETATM    4  H2  UNL     1      -7.156  11.305  69.354  1.00  0.00     0.000 HD 
HETATM    5  O   UNL     1      -9.269  11.358  68.068  1.00  0.00    -0.159 OA 
ENDROOT
BRANCH   2   6
HETATM    6  N   UNL     1     -10.001   9.672  69.557  1.00  0.00    -0.195 N  
HETATM    7  C   UNL     1     -11.061  10.126  70.426  1.00  0.00    -0.324 A  
HETATM    8  C   UNL     1     -11.682  11.368  70.193  1.00  0.00    -0.414 A  
HETATM    9  C   UNL     1     -12.739  11.819  70.987  1.00  0.00    -0.372 A  
HETATM   10  C   UNL     1     -13.194  11.045  72.045  1.00  0.00    -0.447 A  
HETATM   11  C   UNL     1     -12.582   9.824  72.313  1.00  0.00    -0.264 A  
HETATM   12  C   UNL     1     -11.523   9.351  71.513  1.00  0.00    -0.467 A  
HETATM   13  C   UNL     1     -10.898   8.097  71.941  1.00  0.00    -0.333 C  
HETATM   14  C   UNL     1     -10.462   7.144  71.111  1.00  0.00    -0.225 C  
HETATM   15  C   UNL     1     -10.550   7.228  69.652  1.00  0.00    -0.246 A  
HETATM   16  C   UNL     1     -10.842   6.039  68.960  1.00  0.00    -0.412 A  
HETATM   17  C   UNL     1     -10.886   6.010  67.566  1.00  0.00    -0.393 A  
HETATM   18  C   UNL     1     -10.620   7.164  66.846  1.00  0.00    -0.371 A  
HETATM   19  C   UNL     1     -10.317   8.347  67.518  1.00  0.00    -0.333 A  
HETATM   20  C   UNL     1     -10.277   8.404  68.926  1.00  0.00    -0.210 A  
ENDBRANCH   2   6
TORSDOF 1
ENDMDL
MODEL       27
REMARK 921   NORMALIZED FREE ENERGY PREDICTED BY IDOCK:   -5.41 KCAL/MOL
REMARK 922        TOTAL FREE ENERGY PREDICTED BY IDOCK:   -5.63 KCAL/MOL
REMARK 923 INTER-LIGAND FREE ENERGY PREDICTED BY IDOCK:   -5.69 KCAL/MOL
REMARK 924 INTRA-LIGAND FREE ENERGY PREDICTED BY IDOCK:    0.06 KCAL/MOL
REMARK 927      BINDING AFFINITY PREDICTED BY RF-SCORE:    0.00 PKD
ROOT
HETATM    1  N   UNL     1     -13.465  15.442  70.301  1.00  0.00    -0.634 N  
HETATM    2  C   UNL     1     -12.209  14.893  70.368  1.00  0.00    -0.336 C  
HETATM    3  H1  UNL     1     -13.901  15.497  69.380  1.00  0.00     0.000 HD 
HETATM    4  H2  UNL     1     -13.942  15.780  71.136  1.00  0.00     0.000 HD 
HETATM    5  O   UNL     1     -11.684  14.827  71.477  1.00  0.00    -0.341 OA 
ENDROOT
BRANCH   2   6
HETATM    6  N   UNL     1     -11.646  14.558  69.127  1.00  0.00    -0.280 N  
HETATM    7  C   UNL     1     -10.722  15.445  68.463  1.00  0.00    -0.256 A  
HETATM    8  C   UNL     1      -9.815  16.214  69.217  1.00  0.00    -0.250 A  
HETATM    9  C   UNL     1      -8.878  17.050  68.605  1.00  0.00    -0.267 A  
HETATM   10  C   UNL     1      -8.833  17.149  67.221  1.00  0.00    -0.226 A  
HETATM   11  C   UNL     1      -9.734  16.418  66.453  1.00  0.00    -0.308 A  
HETATM   12  C   UNL     1     -10.675  15.563  67.055  1.00  0.00    -0.321 A  
HETATM   13  C   UNL     1     -11.630  14.912  66.153  1.00  0.00    -0.228 C  
HETATM   14  C   UNL     1     -12.075  13.659  66.294  1.00  0.00    -0.477 C  
HETATM   15  C   UNL     1     -11.665  12.763  67.377  1.00  0.00    -0.425 A  
HETATM   16  C   UNL     1     -11.494  11.406  67.052  1.00  0.00    -0.234 A  
HETATM   17  C   UNL     1     -11.165  10.468  68.031  1.00  0.00    -0.361 A  
HETATM   18  C   UNL     1     -11.019  10.872  69.349  1.00  0.00    -0.304 A  
HETATM   19  C   UNL     1     -11.198  12.212  69.688  1.00  0.00    -0.137 A  
HETATM   20  C   UNL     1     -11.521  13.180  68.714  1.00  0.00    -0.307 A  
ENDBRANCH   2   6
TORSDOF 1
ENDMDL
MODEL       28
REMARK 921   NORMALIZED FREE ENERGY PREDICTED BY IDOCK:   -5.40 KCAL/MOL
REMARK 922        TOTAL FREE ENERGY PREDICTED BY IDOCK:   -5.62 KCAL/MOL
REMARK 923 INTER-LIGAND FREE ENERGY PREDICTED BY IDOCK:   -6.12 KCAL/MOL
REMARK 924 INTRA-LIGAND FREE ENERGY PREDICTED BY IDOCK:    0.50 KCAL/MOL
REMARK 927      BINDING AFFINITY PREDICTED BY RF-SCORE:    0.00 PKD
ROOT
HETATM    1  N   UNL     1     -10.086  11.944  68.640  1.00  0.00    -0.312 N  
HETATM    2  C   UNL     1     -11.138  11.816  67.769  1.00  0.00    -0.243 C  
HETATM    3  H1  UNL     1      -9.254  12.427  68.298  1.00  0.00     0.000 HD 
HETATM    4  H2  UNL     1     -10.133  11.573  69.588  1.00  0.00     0.000 HD 
HETATM    5  O   UNL     1     -12.139  11.235  68.180  1.00  0.00    -0.635 OA 
ENDROOT
BRANCH   2   6
HETATM    6  N   UNL     1     -10.891  12.295  66.474  1.00  0.00    -0.250 N  
HETATM    7  C   UNL     1     -10.766  13.710  66.213  1.00  0.00    -0.285 A  
HETATM    8  C   UNL     1     -10.166  14.553  67.167  1.00  0.00    -0.260 A  
HETATM    9  C   UNL     1      -9.990  15.918  66.930  1.00  0.00    -0.253 A  
HETATM   10  C   UNL     1     -10.421  16.479  65.736  1.00  0.00    -0.343 A  
HETATM   11  C   UNL     1     -11.039  15.672  64.785  1.00  0.00    -0.426 A  
HETATM   12  C   UNL     1     -11.213  14.293  65.006  1.00  0.00    -0.364 A  
HETATM   13  C   UNL     1     -11.954  13.561  63.975  1.00  0.00    -0.501 C  
HETATM   14  C   UNL     1     -11.668  12.317  63.572  1.00  0.00    -0.584 C  
HETATM   15  C   UNL     1     -10.568  11.516  64.113  1.00  0.00    -0.420 A  
HETATM   16  C   UNL     1      -9.869  10.700  63.207  1.00  0.00    -0.364 A  
HETATM   17  C   UNL     1      -8.846   9.856  63.640  1.00  0.00    -0.256 A  
HETATM   18  C   UNL     1      -8.522   9.804  64.987  1.00  0.00    -0.161 A  
HETATM   19  C   UNL     1      -9.216  10.599  65.899  1.00  0.00    -0.209 A  
HETATM   20  C   UNL     1     -10.246  11.468  65.483  1.00  0.00    -0.258 A  
ENDBRANCH   2   6
TORSDOF 1
ENDMDL
MODEL       29
REMARK 921   NORMALIZED FREE ENERGY PREDICTED BY IDOCK:   -5.36 KCAL/MOL
REMARK 922        TOTAL FREE ENERGY PREDICTED BY IDOCK:   -5.59 KCAL/MOL
REMARK 923 INTER-LIGAND FREE ENERGY PREDICTED BY IDOCK:   -5.73 KCAL/MOL
REMARK 924 INTRA-LIGAND FREE ENERGY PREDICTED BY IDOCK:    0.15 KCAL/MOL
REMARK 927      BINDING AFFINITY PREDICTED BY RF-SCORE:    0.00 PKD
ROOT
HETATM    1  N   UNL     1     -12.411  14.224  68.978  1.00  0.00    -0.562 N  
HETATM    2  C   UNL     1     -11.440  13.409  68.454  1.00  0.00    -0.316 C  
HETATM    3  H1  UNL     1     -12.679  15.042  68.431  1.00  0.00     0.000 HD 
HETATM    4  H2  UNL     1     -12.846  14.021  69.878  1.00  0.00     0.000 HD 
HETATM    5  O   UNL     1     -11.117  12.425  69.113  1.00  0.00    -0.244 OA 
ENDROOT
BRANCH   2   6
HETATM    6  N   UNL     1     -10.873  13.867  67.254  1.00  0.00    -0.284 N  
HETATM    7  C   UNL     1      -9.902  14.935  67.248  1.00  0.00    -0.229 A  
HETATM    8  C   UNL     1      -8.975  15.053  68.301  1.00  0.00    -0.174 A  
HETATM    9  C   UNL     1      -7.995  16.048  68.306  1.00  0.00    -0.145 A  
HETATM   10  C   UNL     1      -7.924  16.960  67.262  1.00  0.00    -0.198 A  
HETATM   11  C   UNL     1      -8.843  16.881  66.220  1.00  0.00    -0.314 A  
HETATM   12  C   UNL     1      -9.829  15.876  66.197  1.00  0.00    -0.343 A  
HETATM   13  C   UNL     1     -10.796  15.944  65.097  1.00  0.00    -0.438 C  
HETATM   14  C   UNL     1     -11.295  14.880  64.459  1.00  0.00    -0.306 C  
HETATM   15  C   UNL     1     -10.940  13.495  64.776  1.00  0.00    -0.382 A  
HETATM   16  C   UNL     1     -10.822  12.603  63.696  1.00  0.00    -0.437 A  
HETATM   17  C   UNL     1     -10.547  11.252  63.905  1.00  0.00    -0.455 A  
HETATM   18  C   UNL     1     -10.405  10.772  65.198  1.00  0.00    -0.341 A  
HETATM   19  C   UNL     1     -10.532  11.642  66.279  1.00  0.00    -0.286 A  
HETATM   20  C   UNL     1     -10.799  13.014  66.092  1.00  0.00    -0.279 A  
ENDBRANCH   2   6
TORSDOF 1
ENDMDL
MODEL       30
REMARK 921   NORMALIZED FREE ENERGY PREDICTED BY IDOCK:   -5.35 KCAL/MOL
REMARK 922        TOTAL FREE ENERGY PREDICTED BY IDOCK:   -5.58 KCAL/MOL
REMARK 923 INTER-LIGAND FREE ENERGY PREDICTED BY IDOCK:   -5.64 KCAL/MOL
REMARK 924 INTRA-LIGAND FREE ENERGY PREDICTED BY IDOCK:    0.07 KCAL/MOL
REMARK 927      BINDING AFFINITY PREDICTED BY RF-SCORE:    0.00 PKD
ROOT
HETATM    1  N   UNL     1      -8.459  12.630  68.335  1.00  0.00    -0.272 N  
HETATM    2  C   UNL     1      -9.787  12.317  68.190  1.00  0.00    -0.212 C  
HETATM    3  H1  UNL     1      -7.810  12.236  67.654  1.00  0.00     0.000 HD 
HETATM    4  H2  UNL     1      -8.135  13.232  69.091  1.00  0.00     0.000 HD 
HETATM    5  O   UNL     1     -10.569  12.792  69.010  1.00  0.00    -0.169 OA 
ENDROOT
BRANCH   2   6
HETATM    6  N   UNL     1     -10.067  11.408  67.159  1.00  0.00    -0.195 N  
HETATM    7  C   UNL     1     -10.131   9.988  67.413  1.00  0.00    -0.208 A  
HETATM    8  C   UNL     1     -10.642   9.512  68.635  1.00  0.00    -0.239 A  
HETATM    9  C   UNL     1     -10.758   8.145  68.898  1.00  0.00    -0.090 A  
HETATM   10  C   UNL     1     -10.352   7.217  67.948  1.00  0.00    -0.253 A  
HETATM   11  C   UNL     1      -9.821   7.660  66.741  1.00  0.00    -0.307 A  
HETATM   12  C   UNL     1      -9.710   9.035  66.458  1.00  0.00    -0.311 A  
HETATM   13  C   UNL     1      -9.055   9.385  65.194  1.00  0.00    -0.280 C  
HETATM   14  C   UNL     1      -9.424  10.399  64.403  1.00  0.00    -0.343 C  
HETATM   15  C   UNL     1     -10.538  11.302  64.698  1.00  0.00    -0.392 A  
HETATM   16  C   UNL     1     -11.320  11.728  63.610  1.00  0.00    -0.525 A  
HETATM   17  C   UNL     1     -12.364  12.636  63.785  1.00  0.00    -0.568 A  
HETATM   18  C   UNL     1     -12.629  13.144  65.048  1.00  0.00    -0.499 A  
HETATM   19  C   UNL     1     -11.854  12.740  66.134  1.00  0.00    -0.484 A  
HETATM   20  C   UNL     1     -10.800  11.816  65.983  1.00  0.00    -0.296 A  
ENDBRANCH   2   6
TORSDOF 1
ENDMDL
MODEL       31
REMARK 921   NORMALIZED FREE ENERGY PREDICTED BY IDOCK:   -5.26 KCAL/MOL
REMARK 922        TOTAL FREE ENERGY PREDICTED BY IDOCK:   -5.48 KCAL/MOL
REMARK 923 INTER-LIGAND FREE ENERGY PREDICTED BY IDOCK:   -5.54 KCAL/MOL
REMARK 924 INTRA-LIGAND FREE ENERGY PREDICTED BY IDOCK:    0.06 KCAL/MOL
REMARK 927      BINDING AFFINITY PREDICTED BY RF-SCORE:    0.00 PKD
ROOT
HETATM    1  N   UNL     1     -10.289  15.295  70.673  1.00  0.00    -0.457 N  
HETATM    2  C   UNL     1     -11.071  15.741  69.638  1.00  0.00    -0.307 C  
HETATM    3  H1  UNL     1      -9.306  15.113  70.469  1.00  0.00     0.000 HD 
HETATM    4  H2  UNL     1     -10.673  15.153  71.607  1.00  0.00     0.000 HD 
HETATM    5  O   UNL     1     -12.255  15.961  69.884  1.00  0.00    -0.319 OA 
ENDROOT
BRANCH   2   6
HETATM    6  N   UNL     1     -10.424  15.802  68.395  1.00  0.00    -0.239 N  
HETATM    7  C   UNL     1     -10.682  14.819  67.370  1.00  0.00    -0.281 A  
HETATM    8  C   UNL     1     -11.973  14.276  67.222  1.00  0.00    -0.439 A  
HETATM    9  C   UNL     1     -12.268  13.355  66.214  1.00  0.00    -0.456 A  
HETATM   10  C   UNL     1     -11.276  12.942  65.336  1.00  0.00    -0.314 A  
HETATM   11  C   UNL     1      -9.985  13.444  65.476  1.00  0.00    -0.226 A  
HETATM   12  C   UNL     1      -9.676  14.382  66.479  1.00  0.00    -0.305 A  
HETATM   13  C   UNL     1      -8.268  14.774  66.587  1.00  0.00     0.092 C  
HETATM   14  C   UNL     1      -7.843  16.010  66.872  1.00  0.00    -0.284 C  
HETATM   15  C   UNL     1      -8.736  17.145  67.116  1.00  0.00    -0.227 A  
HETATM   16  C   UNL     1      -8.327  18.396  66.623  1.00  0.00    -0.280 A  
HETATM   17  C   UNL     1      -9.082  19.545  66.860  1.00  0.00    -0.392 A  
HETATM   18  C   UNL     1     -10.245  19.460  67.609  1.00  0.00    -0.526 A  
HETATM   19  C   UNL     1     -10.657  18.228  68.115  1.00  0.00    -0.304 A  
HETATM   20  C   UNL     1      -9.916  17.051  67.879  1.00  0.00    -0.281 A  
ENDBRANCH   2   6
TORSDOF 1
ENDMDL
MODEL       32
REMARK 921   NORMALIZED FREE ENERGY PREDICTED BY IDOCK:   -5.24 KCAL/MOL
REMARK 922        TOTAL FREE ENERGY PREDICTED BY IDOCK:   -5.46 KCAL/MOL
REMARK 923 INTER-LIGAND FREE ENERGY PREDICTED BY IDOCK:   -5.54 KCAL/MOL
REMARK 924 INTRA-LIGAND FREE ENERGY PREDICTED BY IDOCK:    0.08 KCAL/MOL
REMARK 927      BINDING AFFINITY PREDICTED BY RF-SCORE:    0.00 PKD
ROOT
HETATM    1  N   UNL     1     -12.271  13.212  66.488  1.00  0.00    -0.349 N  
HETATM    2  C   UNL     1     -11.773  12.591  67.605  1.00  0.00    -0.361 C  
HETATM    3  H1  UNL     1     -12.150  14.222  66.423  1.00  0.00     0.000 HD 
HETATM    4  H2  UNL     1     -12.742  12.684  65.753  1.00  0.00     0.000 HD 
HETATM    5  O   UNL     1     -11.919  11.374  67.683  1.00  0.00    -0.630 OA 
ENDROOT
BRANCH   2   6
HETATM    6  N   UNL     1     -11.233  13.457  68.568  1.00  0.00    -0.266 N  
HETATM    7  C   UNL     1     -11.873  13.640  69.849  1.00  0.00    -0.320 A  
HETATM    8  C   UNL     1     -12.521  12.559  70.475  1.00  0.00    -0.266 A  
HETATM    9  C   UNL     1     -13.113  12.689  71.734  1.00  0.00    -0.461 A  
HETATM   10  C   UNL     1     -13.083  13.910  72.394  1.00  0.00    -0.532 A  
HETATM   11  C   UNL     1     -12.470  15.002  71.787  1.00  0.00    -0.407 A  
HETATM   12  C   UNL     1     -11.859  14.882  70.524  1.00  0.00    -0.358 A  
HETATM   13  C   UNL     1     -11.323  16.116  69.944  1.00  0.00    -0.318 C  
HETATM   14  C   UNL     1     -10.191  16.194  69.236  1.00  0.00    -0.257 C  
HETATM   15  C   UNL     1      -9.330  15.046  68.943  1.00  0.00    -0.208 A  
HETATM   16  C   UNL     1      -7.942  15.269  68.955  1.00  0.00    -0.195 A  
HETATM   17  C   UNL     1      -7.047  14.251  68.628  1.00  0.00    -0.111 A  
HETATM   18  C   UNL     1      -7.528  13.002  68.267  1.00  0.00    -0.128 A  
HETATM   19  C   UNL     1      -8.902  12.770  68.239  1.00  0.00    -0.168 A  
HETATM   20  C   UNL     1      -9.826  13.780  68.575  1.00  0.00    -0.204 A  
ENDBRANCH   2   6
TORSDOF 1
ENDMDL
MODEL       33
REMARK 921   NORMALIZED FREE ENERGY PREDICTED BY IDOCK:   -5.22 KCAL/MOL
REMARK 922        TOTAL FREE ENERGY PREDICTED BY IDOCK:   -5.44 KCAL/MOL
REMARK 923 INTER-LIGAND FREE ENERGY PREDICTED BY IDOCK:   -6.00 KCAL/MOL
REMARK 924 INTRA-LIGAND FREE ENERGY PREDICTED BY IDOCK:    0.55 KCAL/MOL
REMARK 927      BINDING AFFINITY PREDICTED BY RF-SCORE:    0.00 PKD
ROOT
HETATM    1  N   UNL     1     -10.575  18.720  66.265  1.00  0.00    -0.412 N  
HETATM    2  C   UNL     1     -10.686  17.487  65.674  1.00  0.00    -0.089 C  
HETATM    3  H1  UNL     1     -10.211  18.749  67.217  1.00  0.00     0.000 HD 
HETATM    4  H2  UNL     1     -10.845  19.571  65.773  1.00  0.00     0.000 HD 
HETATM    5  O   UNL     1     -11.125  17.452  64.527  1.00  0.00    -1.008 OA 
ENDROOT
BRANCH   2   6
HETATM    6  N   UNL     1     -10.363  16.404  66.506  1.00  0.00    -0.300 N  
HETATM    7  C   UNL     1     -10.904  15.088  66.262  1.00  0.00    -0.333 A  
HETATM    8  C   UNL     1     -11.113  14.644  64.942  1.00  0.00    -0.409 A  
HETATM    9  C   UNL     1     -11.595  13.361  64.669  1.00  0.00    -0.386 A  
HETATM   10  C   UNL     1     -11.893  12.494  65.711  1.00  0.00    -0.494 A  
HETATM   11  C   UNL     1     -11.719  12.916  67.025  1.00  0.00    -0.447 A  
HETATM   12  C   UNL     1     -11.223  14.202  67.315  1.00  0.00    -0.330 A  
HETATM   13  C   UNL     1     -11.164  14.568  68.733  1.00  0.00    -0.281 C  
HETATM   14  C   UNL     1     -10.187  15.292  69.290  1.00  0.00    -0.250 C  
HETATM   15  C   UNL     1      -9.038  15.819  68.552  1.00  0.00    -0.194 A  
HETATM   16  C   UNL     1      -7.798  15.818  69.215  1.00  0.00    -0.233 A  
HETATM   17  C   UNL     1      -6.660  16.356  68.615  1.00  0.00    -0.142 A  
HETATM   18  C   UNL     1      -6.750  16.918  67.351  1.00  0.00    -0.187 A  
HETATM   19  C   UNL     1      -7.976  16.938  66.686  1.00  0.00    -0.300 A  
HETATM   20  C   UNL     1      -9.138  16.391  67.269  1.00  0.00    -0.200 A  
ENDBRANCH   2   6
TORSDOF 1
ENDMDL
MODEL       34
REMARK 921   NORMALIZED FREE ENERGY PREDICTED BY IDOCK:   -5.18 KCAL/MOL
REMARK 922        TOTAL FREE ENERGY PREDICTED BY IDOCK:   -5.39 KCAL/MOL
REMARK 923 INTER-LIGAND FREE ENERGY PREDICTED BY IDOCK:   -5.45 KCAL/MOL
REMARK 924 INTRA-LIGAND FREE ENERGY PREDICTED BY IDOCK:    0.06 KCAL/MOL
REMARK 927      BINDING AFFINITY PREDICTED BY RF-SCORE:    0.00 PKD
ROOT
HETATM    1  N   UNL     1      -8.829  11.649  68.737  1.00  0.00    -0.361 N  
HETATM    2  C   UNL     1      -8.536  12.085  67.469  1.00  0.00    -0.165 C  
HETATM    3  H1  UNL     1      -9.688  11.998  69.162  1.00  0.00     0.000 HD 
HETATM    4  H2  UNL     1      -8.215  11.004  69.232  1.00  0.00     0.000 HD 
HETATM    5  O   UNL     1      -7.501  11.665  66.957  1.00  0.00    -0.141 OA 
ENDROOT
BRANCH   2   6
HETATM    6  N   UNL     1      -9.427  13.039  66.954  1.00  0.00    -0.236 N  
HETATM    7  C   UNL     1      -9.158  14.452  67.073  1.00  0.00    -0.236 A  
HETATM    8  C   UNL     1      -7.836  14.928  66.994  1.00  0.00    -0.129 A  
HETATM    9  C   UNL     1      -7.543  16.293  67.062  1.00  0.00    -0.250 A  
HETATM   10  C   UNL     1      -8.567  17.216  67.224  1.00  0.00    -0.214 A  
HETATM   11  C   UNL     1      -9.881  16.771  67.329  1.00  0.00    -0.260 A  
HETATM   12  C   UNL     1     -10.191  15.400  67.251  1.00  0.00    -0.254 A  
HETATM   13  C   UNL     1     -11.596  15.041  67.462  1.00  0.00    -0.315 C  
HETATM   14  C   UNL     1     -12.242  14.075  66.799  1.00  0.00    -0.439 C  
HETATM   15  C   UNL     1     -11.625  13.241  65.765  1.00  0.00    -0.368 A  
HETATM   16  C   UNL     1     -12.424  12.898  64.661  1.00  0.00    -0.499 A  
HETATM   17  C   UNL     1     -11.943  12.057  63.657  1.00  0.00    -0.612 A  
HETATM   18  C   UNL     1     -10.663  11.534  63.754  1.00  0.00    -0.474 A  
HETATM   19  C   UNL     1      -9.863  11.856  64.850  1.00  0.00    -0.224 A  
HETATM   20  C   UNL     1     -10.324  12.712  65.872  1.00  0.00    -0.276 A  
ENDBRANCH   2   6
TORSDOF 1
ENDMDL
MODEL       35
REMARK 921   NORMALIZED FREE ENERGY PREDICTED BY IDOCK:   -5.16 KCAL/MOL
REMARK 922        TOTAL FREE ENERGY PREDICTED BY IDOCK:   -5.38 KCAL/MOL
REMARK 923 INTER-LIGAND FREE ENERGY PREDICTED BY IDOCK:   -5.44 KCAL/MOL
REMARK 924 INTRA-LIGAND FREE ENERGY PREDICTED BY IDOCK:    0.06 KCAL/MOL
REMARK 927      BINDING AFFINITY PREDICTED BY RF-SCORE:    0.00 PKD
ROOT
HETATM    1  N   UNL     1      -7.448  14.228  69.385  1.00  0.00    -0.335 N  
HETATM    2  C   UNL     1      -7.659  14.563  68.071  1.00  0.00    -0.134 C  
HETATM    3  H1  UNL     1      -8.243  14.303  70.019  1.00  0.00     0.000 HD 
HETATM    4  H2  UNL     1      -6.534  13.917  69.713  1.00  0.00     0.000 HD 
HETATM    5  O   UNL     1      -6.701  14.473  67.308  1.00  0.00    -0.274 OA 
ENDROOT
BRANCH   2   6
HETATM    6  N   UNL     1      -8.942  15.057  67.789  1.00  0.00    -0.176 N  
HETATM    7  C   UNL     1      -9.166  16.466  67.565  1.00  0.00    -0.198 A  
HETATM    8  C   UNL     1      -8.190  17.240  66.910  1.00  0.00    -0.256 A  
HETATM    9  C   UNL     1      -8.391  18.596  66.639  1.00  0.00    -0.297 A  
HETATM   10  C   UNL     1      -9.571  19.215  67.028  1.00  0.00    -0.378 A  
HETATM   11  C   UNL     1     -10.542  18.479  67.699  1.00  0.00    -0.450 A  
HETATM   12  C   UNL     1     -10.358  17.109  67.969  1.00  0.00    -0.353 A  
HETATM   13  C   UNL     1     -11.407  16.457  68.757  1.00  0.00    -0.277 C  
HETATM   14  C   UNL     1     -11.842  15.208  68.558  1.00  0.00    -0.307 C  
HETATM   15  C   UNL     1     -11.322  14.319  67.517  1.00  0.00    -0.346 A  
HETATM   16  C   UNL     1     -12.249  13.479  66.875  1.00  0.00    -0.377 A  
HETATM   17  C   UNL     1     -11.837  12.555  65.914  1.00  0.00    -0.489 A  
HETATM   18  C   UNL     1     -10.492  12.447  65.596  1.00  0.00    -0.290 A  
HETATM   19  C   UNL     1      -9.561  13.264  66.235  1.00  0.00    -0.244 A  
HETATM   20  C   UNL     1      -9.954  14.213  67.201  1.00  0.00    -0.255 A  
ENDBRANCH   2   6
TORSDOF 1
ENDMDL
MODEL       36
REMARK 921   NORMALIZED FREE ENERGY PREDICTED BY IDOCK:   -5.14 KCAL/MOL
REMARK 922        TOTAL FREE ENERGY PREDICTED BY IDOCK:   -5.35 KCAL/MOL
REMARK 923 INTER-LIGAND FREE ENERGY PREDICTED BY IDOCK:   -6.05 KCAL/MOL
REMARK 924 INTRA-LIGAND FREE ENERGY PREDICTED BY IDOCK:    0.70 KCAL/MOL
REMARK 927      BINDING AFFINITY PREDICTED BY RF-SCORE:    0.00 PKD
ROOT
HETATM    1  N   UNL     1     -12.586  14.429  69.401  1.00  0.00    -0.532 N  
HETATM    2  C   UNL     1     -11.427  14.357  68.669  1.00  0.00    -0.287 C  
HETATM    3  H1  UNL     1     -13.047  13.549  69.632  1.00  0.00     0.000 HD 
HETATM    4  H2  UNL     1     -12.969  15.325  69.701  1.00  0.00     0.000 HD 
HETATM    5  O   UNL     1     -10.872  15.417  68.391  1.00  0.00    -0.250 OA 
ENDROOT
BRANCH   2   6
HETATM    6  N   UNL     1     -11.074  13.064  68.253  1.00  0.00    -0.249 N  
HETATM    7  C   UNL     1     -11.114  11.949  69.169  1.00  0.00    -0.228 A  
HETATM    8  C   UNL     1     -12.109  11.887  70.163  1.00  0.00    -0.382 A  
HETATM    9  C   UNL     1     -12.204  10.802  71.038  1.00  0.00    -0.485 A  
HETATM   10  C   UNL     1     -11.295   9.756  70.950  1.00  0.00    -0.439 A  
HETATM   11  C   UNL     1     -10.287   9.804  69.993  1.00  0.00    -0.307 A  
HETATM   12  C   UNL     1     -10.187  10.885  69.096  1.00  0.00    -0.215 A  
HETATM   13  C   UNL     1      -9.034  10.872  68.191  1.00  0.00    -0.144 C  
HETATM   14  C   UNL     1      -9.065  11.276  66.917  1.00  0.00    -0.172 C  
HETATM   15  C   UNL     1     -10.264  11.791  66.251  1.00  0.00    -0.255 A  
HETATM   16  C   UNL     1     -10.448  11.436  64.904  1.00  0.00    -0.363 A  
HETATM   17  C   UNL     1     -11.527  11.929  64.171  1.00  0.00    -0.449 A  
HETATM   18  C   UNL     1     -12.426  12.797  64.770  1.00  0.00    -0.539 A  
HETATM   19  C   UNL     1     -12.249  13.168  66.103  1.00  0.00    -0.451 A  
HETATM   20  C   UNL     1     -11.171  12.675  66.867  1.00  0.00    -0.300 A  
ENDBRANCH   2   6
TORSDOF 1
ENDMDL
MODEL       37
REMARK 921   NORMALIZED FREE ENERGY PREDICTED BY IDOCK:   -5.12 KCAL/MOL
REMARK 922        TOTAL FREE ENERGY PREDICTED BY IDOCK:   -5.33 KCAL/MOL
REMARK 923 INTER-LIGAND FREE ENERGY PREDICTED BY IDOCK:   -5.43 KCAL/MOL
REMARK 924 INTRA-LIGAND FREE ENERGY PREDICTED BY IDOCK:    0.10 KCAL/MOL
REMARK 927      BINDING AFFINITY PREDICTED BY RF-SCORE:    0.00 PKD
ROOT
HETATM    1  N   UNL     1      -8.935   6.703  72.126  1.00  0.00    -0.138 N  
HETATM    2  C   UNL     1     -10.282   6.767  71.874  1.00  0.00    -0.189 C  
HETATM    3  H1  UNL     1      -8.341   7.390  71.663  1.00  0.00     0.000 HD 
HETATM    4  H2  UNL     1      -8.545   5.997  72.750  1.00  0.00     0.000 HD 
HETATM    5  O   UNL     1     -10.998   5.938  72.432  1.00  0.00    -0.235 OA 
ENDROOT
BRANCH   2   6
HETATM    6  N   UNL     1     -10.658   7.732  70.927  1.00  0.00    -0.212 N  
HETATM    7  C   UNL     1     -10.597   7.451  69.512  1.00  0.00    -0.237 A  
HETATM    8  C   UNL     1     -10.889   6.160  69.035  1.00  0.00    -0.416 A  
HETATM    9  C   UNL     1     -10.881   5.864  67.670  1.00  0.00    -0.331 A  
HETATM   10  C   UNL     1     -10.567   6.851  66.746  1.00  0.00    -0.304 A  
HETATM   11  C   UNL     1     -10.250   8.131  67.192  1.00  0.00    -0.366 A  
HETATM   12  C   UNL     1     -10.266   8.446  68.564  1.00  0.00    -0.228 A  
HETATM   13  C   UNL     1      -9.830   9.798  68.923  1.00  0.00    -0.177 C  
HETATM   14  C   UNL     1     -10.374  10.538  69.896  1.00  0.00    -0.164 C  
HETATM   15  C   UNL     1     -11.484  10.091  70.739  1.00  0.00    -0.438 A  
HETATM   16  C   UNL     1     -12.444  11.055  71.094  1.00  0.00    -0.502 A  
HETATM   17  C   UNL     1     -13.504  10.737  71.943  1.00  0.00    -0.327 A  
HETATM   18  C   UNL     1     -13.607   9.456  72.464  1.00  0.00    -0.441 A  
HETATM   19  C   UNL     1     -12.655   8.493  72.130  1.00  0.00    -0.431 A  
HETATM   20  C   UNL     1     -11.581   8.789  71.265  1.00  0.00    -0.292 A  
ENDBRANCH   2   6
TORSDOF 1
ENDMDL
MODEL       38
REMARK 921   NORMALIZED FREE ENERGY PREDICTED BY IDOCK:   -5.11 KCAL/MOL
REMARK 922        TOTAL FREE ENERGY PREDICTED BY IDOCK:   -5.32 KCAL/MOL
REMARK 923 INTER-LIGAND FREE ENERGY PREDICTED BY IDOCK:   -5.90 KCAL/MOL
REMARK 924 INTRA-LIGAND FREE ENERGY PREDICTED BY IDOCK:    0.58 KCAL/MOL
REMARK 927      BINDING AFFINITY PREDICTED BY RF-SCORE:    0.00 PKD
ROOT
HETATM    1  N   UNL     1      -9.795  17.048  66.209  1.00  0.00    -0.289 N  
HETATM    2  C   UNL     1     -10.607  16.221  65.475  1.00  0.00    -0.353 C  
HETATM    3  H1  UNL     1      -9.307  16.636  67.005  1.00  0.00     0.000 HD 
HETATM    4  H2  UNL     1      -9.684  18.033  65.970  1.00  0.00     0.000 HD 
HETATM    5  O   UNL     1     -11.195  16.718  64.517  1.00  0.00    -0.997 OA 
ENDROOT
BRANCH   2   6
HETATM    6  N   UNL     1     -10.730  14.918  65.979  1.00  0.00    -0.312 N  
HETATM    7  C   UNL     1     -11.014  14.681  67.375  1.00  0.00    -0.308 A  
HETATM    8  C   UNL     1     -11.858  15.559  68.082  1.00  0.00    -0.133 A  
HETATM    9  C   UNL     1     -12.189  15.337  69.421  1.00  0.00    -0.247 A  
HETATM   10  C   UNL     1     -11.673  14.237  70.092  1.00  0.00    -0.357 A  
HETATM   11  C   UNL     1     -10.817  13.367  69.424  1.00  0.00    -0.007 A  
HETATM   12  C   UNL     1     -10.484  13.571  68.071  1.00  0.00    -0.245 A  
HETATM   13  C   UNL     1      -9.506  12.643  67.497  1.00  0.00    -0.186 C  
HETATM   14  C   UNL     1      -9.553  12.167  66.248  1.00  0.00    -0.246 C  
HETATM   15  C   UNL     1     -10.596  12.514  65.280  1.00  0.00    -0.319 A  
HETATM   16  C   UNL     1     -11.035  11.491  64.422  1.00  0.00    -0.390 A  
HETATM   17  C   UNL     1     -11.980  11.742  63.427  1.00  0.00    -0.443 A  
HETATM   18  C   UNL     1     -12.485  13.023  63.267  1.00  0.00    -0.283 A  
HETATM   19  C   UNL     1     -12.049  14.050  64.103  1.00  0.00    -0.456 A  
HETATM   20  C   UNL     1     -11.102  13.818  65.121  1.00  0.00    -0.328 A  
ENDBRANCH   2   6
TORSDOF 1
ENDMDL
MODEL       39
REMARK 921   NORMALIZED FREE ENERGY PREDICTED BY IDOCK:   -5.09 KCAL/MOL
REMARK 922        TOTAL FREE ENERGY PREDICTED BY IDOCK:   -5.30 KCAL/MOL
REMARK 923 INTER-LIGAND FREE ENERGY PREDICTED BY IDOCK:   -5.36 KCAL/MOL
REMARK 924 INTRA-LIGAND FREE ENERGY PREDICTED BY IDOCK:    0.06 KCAL/MOL
REMARK 927      BINDING AFFINITY PREDICTED BY RF-SCORE:    0.00 PKD
ROOT
HETATM    1  N   UNL     1      -7.634  15.971  69.056  1.00  0.00    -0.197 N  
HETATM    2  C   UNL     1      -8.828  16.541  68.694  1.00  0.00    -0.237 C  
HETATM    3  H1  UNL     1      -7.572  14.954  69.015  1.00  0.00     0.000 HD 
HETATM    4  H2  UNL     1      -6.842  16.540  69.352  1.00  0.00     0.000 HD 
HETATM    5  O   UNL     1      -8.903  17.766  68.743  1.00  0.00    -0.279 OA 
ENDROOT
BRANCH   2   6
HETATM    6  N   UNL     1      -9.850  15.627  68.397  1.00  0.00    -0.204 N  
HETATM    7  C   UNL     1     -10.800  15.217  69.404  1.00  0.00    -0.262 A  
HETATM    8  C   UNL     1     -11.235  16.134  70.380  1.00  0.00    -0.394 A  
HETATM    9  C   UNL     1     -12.184  15.784  71.342  1.00  0.00    -0.500 A  
HETATM   10  C   UNL     1     -12.715  14.502  71.362  1.00  0.00    -0.407 A  
HETATM   11  C   UNL     1     -12.285  13.568  70.424  1.00  0.00    -0.426 A  
HETATM   12  C   UNL     1     -11.337  13.910  69.440  1.00  0.00    -0.311 A  
HETATM   13  C   UNL     1     -10.894  12.824  68.562  1.00  0.00    -0.279 C  
HETATM   14  C   UNL     1     -10.634  12.961  67.257  1.00  0.00    -0.243 C  
HETATM   15  C   UNL     1     -10.757  14.224  66.527  1.00  0.00    -0.297 A  
HETATM   16  C   UNL     1     -11.248  14.155  65.212  1.00  0.00    -0.326 A  
HETATM   17  C   UNL     1     -11.342  15.299  64.418  1.00  0.00    -0.224 A  
HETATM   18  C   UNL     1     -10.930  16.522  64.924  1.00  0.00    -0.223 A  
HETATM   19  C   UNL     1     -10.430  16.603  66.223  1.00  0.00    -0.272 A  
HETATM   20  C   UNL     1     -10.335  15.463  67.047  1.00  0.00    -0.280 A  
ENDBRANCH   2   6
TORSDOF 1
ENDMDL
MODEL       40
REMARK 921   NORMALIZED FREE ENERGY PREDICTED BY IDOCK:   -5.06 KCAL/MOL
REMARK 922        TOTAL FREE ENERGY PREDICTED BY IDOCK:   -5.26 KCAL/MOL
REMARK 923 INTER-LIGAND FREE ENERGY PREDICTED BY IDOCK:   -5.32 KCAL/MOL
REMARK 924 INTRA-LIGAND FREE ENERGY PREDICTED BY IDOCK:    0.06 KCAL/MOL
REMARK 927      BINDING AFFINITY PREDICTED BY RF-SCORE:    0.00 PKD
ROOT
HETATM    1  N   UNL     1     -12.179  13.654  65.835  1.00  0.00    -0.436 N  
HETATM    2  C   UNL     1     -11.611  12.959  66.872  1.00  0.00    -0.368 C  
HETATM    3  H1  UNL     1     -11.895  14.626  65.714  1.00  0.00     0.000 HD 
HETATM    4  H2  UNL     1     -12.857  13.217  65.210  1.00  0.00     0.000 HD 
HETATM    5  O   UNL     1     -11.953  11.788  67.017  1.00  0.00    -0.610 OA 
ENDROOT
BRANCH   2   6
HETATM    6  N   UNL     1     -10.768  13.718  67.697  1.00  0.00    -0.248 N  
HETATM    7  C   UNL     1     -11.235  14.247  68.957  1.00  0.00    -0.266 A  
HETATM    8  C   UNL     1     -12.147  13.511  69.737  1.00  0.00    -0.381 A  
HETATM    9  C   UNL     1     -12.587  13.972  70.980  1.00  0.00    -0.437 A  
HETATM   10  C   UNL     1     -12.136  15.190  71.469  1.00  0.00    -0.407 A  
HETATM   11  C   UNL     1     -11.253  15.950  70.707  1.00  0.00    -0.398 A  
HETATM   12  C   UNL     1     -10.792  15.491  69.458  1.00  0.00    -0.267 A  
HETATM   13  C   UNL     1      -9.936  16.413  68.706  1.00  0.00    -0.246 C  
HETATM   14  C   UNL     1      -8.884  16.042  67.968  1.00  0.00    -0.175 C  
HETATM   15  C   UNL     1      -8.445  14.653  67.812  1.00  0.00    -0.178 A  
HETATM   16  C   UNL     1      -7.059  14.425  67.763  1.00  0.00    -0.191 A  
HETATM   17  C   UNL     1      -6.548  13.143  67.555  1.00  0.00    -0.159 A  
HETATM   18  C   UNL     1      -7.416  12.078  67.376  1.00  0.00    -0.152 A  
HETATM   19  C   UNL     1      -8.793  12.292  67.410  1.00  0.00    -0.185 A  
HETATM   20  C   UNL     1      -9.333  13.576  67.629  1.00  0.00    -0.216 A  
ENDBRANCH   2   6
TORSDOF 1
ENDMDL
MODEL       41
REMARK 921   NORMALIZED FREE ENERGY PREDICTED BY IDOCK:   -5.01 KCAL/MOL
REMARK 922        TOTAL FREE ENERGY PREDICTED BY IDOCK:   -5.22 KCAL/MOL
REMARK 923 INTER-LIGAND FREE ENERGY PREDICTED BY IDOCK:   -5.29 KCAL/MOL
REMARK 924 INTRA-LIGAND FREE ENERGY PREDICTED BY IDOCK:    0.07 KCAL/MOL
REMARK 927      BINDING AFFINITY PREDICTED BY RF-SCORE:    0.00 PKD
ROOT
HETATM    1  N   UNL     1     -14.280   8.047  71.303  1.00  0.00    -0.649 N  
HETATM    2  C   UNL     1     -13.097   8.675  71.602  1.00  0.00    -0.346 C  
HETATM    3  H1  UNL     1     -14.225   7.181  70.767  1.00  0.00     0.000 HD 
HETATM    4  H2  UNL     1     -15.176   8.430  71.604  1.00  0.00     0.000 HD 
HETATM    5  O   UNL     1     -13.164   9.718  72.248  1.00  0.00    -0.437 OA 
ENDROOT
BRANCH   2   6
HETATM    6  N   UNL     1     -11.957   8.079  71.044  1.00  0.00    -0.280 N  
HETATM    7  C   UNL     1     -11.233   8.713  69.968  1.00  0.00    -0.094 A  
HETATM    8  C   UNL     1     -11.121  10.116  69.924  1.00  0.00    -0.346 A  
HETATM    9  C   UNL     1     -10.393  10.761  68.922  1.00  0.00    -0.220 A  
HETATM   10  C   UNL     1      -9.768  10.020  67.929  1.00  0.00    -0.168 A  
HETATM   11  C   UNL     1      -9.884   8.633  67.934  1.00  0.00    -0.211 A  
HETATM   12  C   UNL     1     -10.605   7.969  68.945  1.00  0.00    -0.160 A  
HETATM   13  C   UNL     1     -10.733   6.516  68.801  1.00  0.00    -0.320 C  
HETATM   14  C   UNL     1     -10.695   5.645  69.816  1.00  0.00    -0.401 C  
HETATM   15  C   UNL     1     -10.519   6.032  71.217  1.00  0.00    -0.283 A  
HETATM   16  C   UNL     1      -9.733   5.185  72.019  1.00  0.00    -0.205 A  
HETATM   17  C   UNL     1      -9.560   5.439  73.379  1.00  0.00    -0.151 A  
HETATM   18  C   UNL     1     -10.186   6.532  73.960  1.00  0.00    -0.374 A  
HETATM   19  C   UNL     1     -10.978   7.373  73.180  1.00  0.00    -0.408 A  
HETATM   20  C   UNL     1     -11.160   7.142  71.800  1.00  0.00    -0.236 A  
ENDBRANCH   2   6
TORSDOF 1
ENDMDL
MODEL       42
REMARK 921   NORMALIZED FREE ENERGY PREDICTED BY IDOCK:   -5.01 KCAL/MOL
REMARK 922        TOTAL FREE ENERGY PREDICTED BY IDOCK:   -5.22 KCAL/MOL
REMARK 923 INTER-LIGAND FREE ENERGY PREDICTED BY IDOCK:   -5.29 KCAL/MOL
REMARK 924 INTRA-LIGAND FREE ENERGY PREDICTED BY IDOCK:    0.07 KCAL/MOL
REMARK 927      BINDING AFFINITY PREDICTED BY RF-SCORE:    0.00 PKD
ROOT
HETATM    1  N   UNL     1     -12.122  10.776  68.903  1.00  0.00    -0.492 N  
HETATM    2  C   UNL     1     -11.565  11.955  68.476  1.00  0.00    -0.318 C  
HETATM    3  H1  UNL     1     -11.865   9.929  68.397  1.00  0.00     0.000 HD 
HETATM    4  H2  UNL     1     -12.767  10.749  69.693  1.00  0.00     0.000 HD 
HETATM    5  O   UNL     1     -11.874  12.976  69.085  1.00  0.00    -0.297 OA 
ENDROOT
BRANCH   2   6
HETATM    6  N   UNL     1     -10.771  11.847  67.324  1.00  0.00    -0.227 N  
HETATM    7  C   UNL     1     -11.206  12.398  66.063  1.00  0.00    -0.335 A  
HETATM    8  C   UNL     1     -11.947  13.595  66.034  1.00  0.00    -0.447 A  
HETATM    9  C   UNL     1     -12.348  14.179  64.830  1.00  0.00    -0.446 A  
HETATM   10  C   UNL     1     -12.030  13.573  63.623  1.00  0.00    -0.439 A  
HETATM   11  C   UNL     1     -11.320  12.376  63.624  1.00  0.00    -0.556 A  
HETATM   12  C   UNL     1     -10.899  11.783  64.829  1.00  0.00    -0.358 A  
HETATM   13  C   UNL     1     -10.236  10.481  64.712  1.00  0.00    -0.373 C  
HETATM   14  C   UNL     1      -9.204  10.084  65.465  1.00  0.00    -0.247 C  
HETATM   15  C   UNL     1      -8.594  10.904  66.513  1.00  0.00    -0.156 A  
HETATM   16  C   UNL     1      -7.198  10.824  66.654  1.00  0.00    -0.134 A  
HETATM   17  C   UNL     1      -6.535  11.521  67.665  1.00  0.00    -0.067 A  
HETATM   18  C   UNL     1      -7.263  12.293  68.558  1.00  0.00    -0.103 A  
HETATM   19  C   UNL     1      -8.649  12.372  68.437  1.00  0.00    -0.129 A  
HETATM   20  C   UNL     1      -9.340  11.684  67.418  1.00  0.00    -0.168 A  
ENDBRANCH   2   6
TORSDOF 1
ENDMDL
MODEL       43
REMARK 921   NORMALIZED FREE ENERGY PREDICTED BY IDOCK:   -5.01 KCAL/MOL
REMARK 922        TOTAL FREE ENERGY PREDICTED BY IDOCK:   -5.21 KCAL/MOL
REMARK 923 INTER-LIGAND FREE ENERGY PREDICTED BY IDOCK:   -5.29 KCAL/MOL
REMARK 924 INTRA-LIGAND FREE ENERGY PREDICTED BY IDOCK:    0.08 KCAL/MOL
REMARK 927      BINDING AFFINITY PREDICTED BY RF-SCORE:    0.00 PKD
ROOT
HETATM    1  N   UNL     1     -11.058   9.430  67.890  1.00  0.00    -0.503 N  
HETATM    2  C   UNL     1     -10.405   9.959  66.806  1.00  0.00    -0.217 C  
HETATM    3  H1  UNL     1     -11.529  10.084  68.516  1.00  0.00     0.000 HD 
HETATM    4  H2  UNL     1     -11.074   8.425  68.063  1.00  0.00     0.000 HD 
HETATM    5  O   UNL     1      -9.839   9.171  66.052  1.00  0.00    -0.277 OA 
ENDROOT
BRANCH   2   6
HETATM    6  N   UNL     1     -10.395  11.361  66.752  1.00  0.00    -0.225 N  
HETATM    7  C   UNL     1      -9.356  12.126  67.399  1.00  0.00    -0.181 A  
HETATM    8  C   UNL     1      -8.039  11.630  67.445  1.00  0.00    -0.153 A  
HETATM    9  C   UNL     1      -7.001  12.363  68.026  1.00  0.00    -0.097 A  
HETATM   10  C   UNL     1      -7.256  13.605  68.589  1.00  0.00    -0.110 A  
HETATM   11  C   UNL     1      -8.554  14.108  68.579  1.00  0.00    -0.163 A  
HETATM   12  C   UNL     1      -9.608  13.386  67.987  1.00  0.00    -0.219 A  
HETATM   13  C   UNL     1     -10.945  13.972  68.114  1.00  0.00    -0.268 C  
HETATM   14  C   UNL     1     -11.883  13.938  67.160  1.00  0.00    -0.445 C  
HETATM   15  C   UNL     1     -11.695  13.307  65.852  1.00  0.00    -0.403 A  
HETATM   16  C   UNL     1     -12.277  13.949  64.745  1.00  0.00    -0.441 A  
HETATM   17  C   UNL     1     -12.204  13.390  63.469  1.00  0.00    -0.468 A  
HETATM   18  C   UNL     1     -11.564  12.173  63.287  1.00  0.00    -0.418 A  
HETATM   19  C   UNL     1     -10.994  11.519  64.378  1.00  0.00    -0.390 A  
HETATM   20  C   UNL     1     -11.046  12.070  65.676  1.00  0.00    -0.313 A  
ENDBRANCH   2   6
TORSDOF 1
ENDMDL
MODEL       44
REMARK 921   NORMALIZED FREE ENERGY PREDICTED BY IDOCK:   -4.99 KCAL/MOL
REMARK 922        TOTAL FREE ENERGY PREDICTED BY IDOCK:   -5.19 KCAL/MOL
REMARK 923 INTER-LIGAND FREE ENERGY PREDICTED BY IDOCK:   -5.38 KCAL/MOL
REMARK 924 INTRA-LIGAND FREE ENERGY PREDICTED BY IDOCK:    0.19 KCAL/MOL
REMARK 927      BINDING AFFINITY PREDICTED BY RF-SCORE:    0.00 PKD
ROOT
HETATM    1  N   UNL     1     -11.552  12.768  70.014  1.00  0.00    -0.530 N  
HETATM    2  C   UNL     1     -11.517  12.273  68.735  1.00  0.00    -0.311 C  
HETATM    3  H1  UNL     1     -11.065  13.647  70.187  1.00  0.00     0.000 HD 
HETATM    4  H2  UNL     1     -12.046  12.279  70.760  1.00  0.00     0.000 HD 
HETATM    5  O   UNL     1     -12.105  11.214  68.528  1.00  0.00    -0.586 OA 
ENDROOT
BRANCH   2   6
HETATM    6  N   UNL     1     -10.726  13.009  67.841  1.00  0.00    -0.230 N  
HETATM    7  C   UNL     1      -9.285  12.976  67.918  1.00  0.00    -0.208 A  
HETATM    8  C   UNL     1      -8.625  11.790  68.291  1.00  0.00    -0.162 A  
HETATM    9  C   UNL     1      -7.231  11.710  68.335  1.00  0.00    -0.088 A  
HETATM   10  C   UNL     1      -6.460  12.821  68.020  1.00  0.00    -0.099 A  
HETATM   11  C   UNL     1      -7.087  14.013  67.672  1.00  0.00    -0.193 A  
HETATM   12  C   UNL     1      -8.491  14.104  67.612  1.00  0.00    -0.189 A  
HETATM   13  C   UNL     1      -9.042  15.431  67.321  1.00  0.00    -0.218 C  
HETATM   14  C   UNL     1     -10.118  15.656  66.559  1.00  0.00    -0.293 C  
HETATM   15  C   UNL     1     -10.895  14.599  65.910  1.00  0.00    -0.312 A  
HETATM   16  C   UNL     1     -11.396  14.873  64.625  1.00  0.00    -0.362 A  
HETATM   17  C   UNL     1     -12.198  13.950  63.954  1.00  0.00    -0.375 A  
HETATM   18  C   UNL     1     -12.524  12.749  64.566  1.00  0.00    -0.501 A  
HETATM   19  C   UNL     1     -12.045  12.469  65.845  1.00  0.00    -0.420 A  
HETATM   20  C   UNL     1     -11.224  13.382  66.539  1.00  0.00    -0.307 A  
ENDBRANCH   2   6
TORSDOF 1
ENDMDL
MODEL       45
REMARK 921   NORMALIZED FREE ENERGY PREDICTED BY IDOCK:   -4.99 KCAL/MOL
REMARK 922        TOTAL FREE ENERGY PREDICTED BY IDOCK:   -5.19 KCAL/MOL
REMARK 923 INTER-LIGAND FREE ENERGY PREDICTED BY IDOCK:   -5.27 KCAL/MOL
REMARK 924 INTRA-LIGAND FREE ENERGY PREDICTED BY IDOCK:    0.07 KCAL/MOL
REMARK 927      BINDING AFFINITY PREDICTED BY RF-SCORE:    0.00 PKD
ROOT
HETATM    1  N   UNL     1     -12.404  13.941  66.076  1.00  0.00    -0.467 N  
HETATM    2  C   UNL     1     -11.833  14.290  67.273  1.00  0.00    -0.413 C  
HETATM    3  H1  UNL     1     -12.500  12.945  65.877  1.00  0.00     0.000 HD 
HETATM    4  H2  UNL     1     -12.720  14.648  65.412  1.00  0.00     0.000 HD 
HETATM    5  O   UNL     1     -11.718  15.490  67.512  1.00  0.00    -0.194 OA 
ENDROOT
BRANCH   2   6
HETATM    6  N   UNL     1     -11.367  13.211  68.039  1.00  0.00    -0.274 N  
HETATM    7  C   UNL     1     -10.019  12.716  67.889  1.00  0.00    -0.228 A  
HETATM    8  C   UNL     1      -8.966  13.609  67.614  1.00  0.00    -0.202 A  
HETATM    9  C   UNL     1      -7.644  13.171  67.505  1.00  0.00    -0.166 A  
HETATM   10  C   UNL     1      -7.342  11.825  67.655  1.00  0.00    -0.119 A  
HETATM   11  C   UNL     1      -8.367  10.917  67.903  1.00  0.00    -0.119 A  
HETATM   12  C   UNL     1      -9.702  11.346  68.028  1.00  0.00    -0.190 A  
HETATM   13  C   UNL     1     -10.707  10.293  68.201  1.00  0.00    -0.287 C  
HETATM   14  C   UNL     1     -11.783  10.392  68.990  1.00  0.00    -0.167 C  
HETATM   15  C   UNL     1     -12.102  11.575  69.791  1.00  0.00    -0.374 A  
HETATM   16  C   UNL     1     -12.658  11.353  71.063  1.00  0.00    -0.487 A  
HETATM   17  C   UNL     1     -13.051  12.419  71.873  1.00  0.00    -0.471 A  
HETATM   18  C   UNL     1     -12.910  13.719  71.414  1.00  0.00    -0.449 A  
HETATM   19  C   UNL     1     -12.371  13.954  70.149  1.00  0.00    -0.400 A  
HETATM   20  C   UNL     1     -11.957  12.893  69.317  1.00  0.00    -0.260 A  
ENDBRANCH   2   6
TORSDOF 1
ENDMDL
MODEL       46
REMARK 921   NORMALIZED FREE ENERGY PREDICTED BY IDOCK:   -4.97 KCAL/MOL
REMARK 922        TOTAL FREE ENERGY PREDICTED BY IDOCK:   -5.17 KCAL/MOL
REMARK 923 INTER-LIGAND FREE ENERGY PREDICTED BY IDOCK:   -5.23 KCAL/MOL
REMARK 924 INTRA-LIGAND FREE ENERGY PREDICTED BY IDOCK:    0.06 KCAL/MOL
REMARK 927      BINDING AFFINITY PREDICTED BY RF-SCORE:    0.00 PKD
ROOT
HETATM    1  N   UNL     1      -8.914   7.867  74.200  1.00  0.00    -0.413 N  
HETATM    2  C   UNL     1     -10.052   7.397  73.595  1.00  0.00    -0.325 C  
HETATM    3  H1  UNL     1      -8.312   8.479  73.649  1.00  0.00     0.000 HD 
HETATM    4  H2  UNL     1      -8.679   7.614  75.159  1.00  0.00     0.000 HD 
HETATM    5  O   UNL     1     -10.777   6.659  74.258  1.00  0.00    -0.150 OA 
ENDROOT
BRANCH   2   6
HETATM    6  N   UNL     1     -10.193   7.758  72.246  1.00  0.00    -0.212 N  
HETATM    7  C   UNL     1      -9.882   6.826  71.188  1.00  0.00    -0.177 A  
HETATM    8  C   UNL     1     -10.147   5.453  71.356  1.00  0.00    -0.262 A  
HETATM    9  C   UNL     1      -9.899   4.529  70.338  1.00  0.00    -0.302 A  
HETATM   10  C   UNL     1      -9.366   4.953  69.129  1.00  0.00    -0.184 A  
HETATM   11  C   UNL     1      -9.072   6.301  68.945  1.00  0.00    -0.124 A  
HETATM   12  C   UNL     1      -9.328   7.245  69.958  1.00  0.00    -0.154 A  
HETATM   13  C   UNL     1      -8.897   8.619  69.686  1.00  0.00    -0.137 C  
HETATM   14  C   UNL     1      -9.573   9.713  70.052  1.00  0.00    -0.281 C  
HETATM   15  C   UNL     1     -10.844   9.683  70.779  1.00  0.00    -0.400 A  
HETATM   16  C   UNL     1     -11.802  10.652  70.430  1.00  0.00    -0.441 A  
HETATM   17  C   UNL     1     -13.017  10.740  71.109  1.00  0.00    -0.467 A  
HETATM   18  C   UNL     1     -13.283   9.873  72.158  1.00  0.00    -0.511 A  
HETATM   19  C   UNL     1     -12.337   8.915  72.523  1.00  0.00    -0.325 A  
HETATM   20  C   UNL     1     -11.106   8.801  71.844  1.00  0.00    -0.364 A  
ENDBRANCH   2   6
TORSDOF 1
ENDMDL
MODEL       47
REMARK 921   NORMALIZED FREE ENERGY PREDICTED BY IDOCK:   -4.92 KCAL/MOL
REMARK 922        TOTAL FREE ENERGY PREDICTED BY IDOCK:   -5.12 KCAL/MOL
REMARK 923 INTER-LIGAND FREE ENERGY PREDICTED BY IDOCK:   -5.18 KCAL/MOL
REMARK 924 INTRA-LIGAND FREE ENERGY PREDICTED BY IDOCK:    0.06 KCAL/MOL
REMARK 927      BINDING AFFINITY PREDICTED BY RF-SCORE:    0.00 PKD
ROOT
HETATM    1  N   UNL     1     -11.437   6.423  69.151  1.00  0.00    -0.608 N  
HETATM    2  C   UNL     1     -11.178   6.878  70.419  1.00  0.00    -0.312 C  
HETATM    3  H1  UNL     1     -11.175   7.030  68.375  1.00  0.00     0.000 HD 
HETATM    4  H2  UNL     1     -11.872   5.514  68.991  1.00  0.00     0.000 HD 
HETATM    5  O   UNL     1     -11.494   6.146  71.353  1.00  0.00    -0.293 OA 
ENDROOT
BRANCH   2   6
HETATM    6  N   UNL     1     -10.661   8.180  70.482  1.00  0.00    -0.216 N  
HETATM    7  C   UNL     1     -11.498   9.299  70.844  1.00  0.00    -0.303 A  
HETATM    8  C   UNL     1     -12.523   9.136  71.796  1.00  0.00    -0.447 A  
HETATM    9  C   UNL     1     -13.323  10.206  72.201  1.00  0.00    -0.431 A  
HETATM   10  C   UNL     1     -13.128  11.467  71.655  1.00  0.00    -0.498 A  
HETATM   11  C   UNL     1     -12.138  11.652  70.695  1.00  0.00    -0.432 A  
HETATM   12  C   UNL     1     -11.316  10.584  70.285  1.00  0.00    -0.407 A  
HETATM   13  C   UNL     1     -10.367  10.875  69.206  1.00  0.00    -0.211 C  
HETATM   14  C   UNL     1      -9.126  10.382  69.133  1.00  0.00    -0.197 C  
HETATM   15  C   UNL     1      -8.545   9.479  70.128  1.00  0.00    -0.250 A  
HETATM   16  C   UNL     1      -7.184   9.656  70.433  1.00  0.00    -0.147 A  
HETATM   17  C   UNL     1      -6.530   8.805  71.323  1.00  0.00    -0.071 A  
HETATM   18  C   UNL     1      -7.223   7.755  71.906  1.00  0.00    -0.069 A  
HETATM   19  C   UNL     1      -8.570   7.560  71.604  1.00  0.00    -0.125 A  
HETATM   20  C   UNL     1      -9.255   8.413  70.715  1.00  0.00    -0.159 A  
ENDBRANCH   2   6
TORSDOF 1
ENDMDL
MODEL       48
REMARK 921   NORMALIZED FREE ENERGY PREDICTED BY IDOCK:   -4.89 KCAL/MOL
REMARK 922        TOTAL FREE ENERGY PREDICTED BY IDOCK:   -5.09 KCAL/MOL
REMARK 923 INTER-LIGAND FREE ENERGY PREDICTED BY IDOCK:   -5.15 KCAL/MOL
REMARK 924 INTRA-LIGAND FREE ENERGY PREDICTED BY IDOCK:    0.06 KCAL/MOL
REMARK 927      BINDING AFFINITY PREDICTED BY RF-SCORE:    0.00 PKD
ROOT
HETATM    1  N   UNL     1     -11.486  15.337  64.503  1.00  0.00    -0.640 N  
HETATM    2  C   UNL     1     -11.881  14.438  65.461  1.00  0.00    -0.357 C  
HETATM    3  H1  UNL     1     -10.518  15.655  64.532  1.00  0.00     0.000 HD 
HETATM    4  H2  UNL     1     -12.135  15.673  63.790  1.00  0.00     0.000 HD 
HETATM    5  O   UNL     1     -13.047  14.055  65.425  1.00  0.00    -0.763 OA 
ENDROOT
BRANCH   2   6
HETATM    6  N   UNL     1     -10.905  14.141  66.425  1.00  0.00    -0.301 N  
HETATM    7  C   UNL     1     -10.946  14.739  67.738  1.00  0.00    -0.291 A  
HETATM    8  C   UNL     1     -12.184  14.993  68.359  1.00  0.00    -0.009 A  
HETATM    9  C   UNL     1     -12.260  15.531  69.646  1.00  0.00    -0.297 A  
HETATM   10  C   UNL     1     -11.099  15.842  70.341  1.00  0.00    -0.380 A  
HETATM   11  C   UNL     1      -9.863  15.623  69.740  1.00  0.00    -0.260 A  
HETATM   12  C   UNL     1      -9.771  15.070  68.448  1.00  0.00    -0.216 A  
HETATM   13  C   UNL     1      -8.423  14.968  67.883  1.00  0.00    -0.149 C  
HETATM   14  C   UNL     1      -7.991  13.951  67.128  1.00  0.00    -0.072 C  
HETATM   15  C   UNL     1      -8.816  12.797  66.763  1.00  0.00    -0.161 A  
HETATM   16  C   UNL     1      -8.178  11.545  66.721  1.00  0.00    -0.164 A  
HETATM   17  C   UNL     1      -8.867  10.399  66.324  1.00  0.00    -0.166 A  
HETATM   18  C   UNL     1     -10.198  10.494  65.947  1.00  0.00    -0.311 A  
HETATM   19  C   UNL     1     -10.840  11.731  65.972  1.00  0.00    -0.343 A  
HETATM   20  C   UNL     1     -10.167  12.901  66.380  1.00  0.00    -0.267 A  
ENDBRANCH   2   6
TORSDOF 1
ENDMDL
MODEL       49
REMARK 921   NORMALIZED FREE ENERGY PREDICTED BY IDOCK:   -4.89 KCAL/MOL
REMARK 922        TOTAL FREE ENERGY PREDICTED BY IDOCK:   -5.08 KCAL/MOL
REMARK 923 INTER-LIGAND FREE ENERGY PREDICTED BY IDOCK:   -5.17 KCAL/MOL
REMARK 924 INTRA-LIGAND FREE ENERGY PREDICTED BY IDOCK:    0.08 KCAL/MOL
REMARK 927      BINDING AFFINITY PREDICTED BY RF-SCORE:    0.00 PKD
ROOT
HETATM    1  N   UNL     1      -9.715  14.438  65.354  1.00  0.00    -0.553 N  
HETATM    2  C   UNL     1      -9.940  15.111  66.528  1.00  0.00    -0.266 C  
HETATM    3  H1  UNL     1      -8.840  14.631  64.866  1.00  0.00     0.000 HD 
HETATM    4  H2  UNL     1     -10.393  13.773  64.984  1.00  0.00     0.000 HD 
HETATM    5  O   UNL     1     -10.993  14.878  67.115  1.00  0.00    -0.307 OA 
ENDROOT
BRANCH   2   6
HETATM    6  N   UNL     1      -8.959  16.058  66.860  1.00  0.00    -0.211 N  
HETATM    7  C   UNL     1      -9.253  17.471  66.852  1.00  0.00    -0.265 A  
HETATM    8  C   UNL     1     -10.526  17.930  67.242  1.00  0.00    -0.373 A  
HETATM    9  C   UNL     1     -10.831  19.292  67.286  1.00  0.00    -0.554 A  
HETATM   10  C   UNL     1      -9.875  20.232  66.929  1.00  0.00    -0.597 A  
HETATM   11  C   UNL     1      -8.616  19.805  66.516  1.00  0.00    -0.396 A  
HETATM   12  C   UNL     1      -8.291  18.436  66.478  1.00  0.00    -0.290 A  
HETATM   13  C   UNL     1      -6.968  18.099  65.943  1.00  0.00    -0.319 C  
HETATM   14  C   UNL     1      -6.186  17.121  66.412  1.00  0.00    -0.202 C  
HETATM   15  C   UNL     1      -6.551  16.248  67.530  1.00  0.00    -0.193 A  
HETATM   16  C   UNL     1      -5.521  15.880  68.414  1.00  0.00    -0.106 A  
HETATM   17  C   UNL     1      -5.761  15.003  69.472  1.00  0.00    -0.101 A  
HETATM   18  C   UNL     1      -7.028  14.469  69.649  1.00  0.00    -0.122 A  
HETATM   19  C   UNL     1      -8.056  14.815  68.772  1.00  0.00    -0.158 A  
HETATM   20  C   UNL     1      -7.840  15.708  67.702  1.00  0.00    -0.154 A  
ENDBRANCH   2   6
TORSDOF 1
ENDMDL
MODEL       50
REMARK 921   NORMALIZED FREE ENERGY PREDICTED BY IDOCK:   -4.87 KCAL/MOL
REMARK 922        TOTAL FREE ENERGY PREDICTED BY IDOCK:   -5.06 KCAL/MOL
REMARK 923 INTER-LIGAND FREE ENERGY PREDICTED BY IDOCK:   -5.12 KCAL/MOL
REMARK 924 INTRA-LIGAND FREE ENERGY PREDICTED BY IDOCK:    0.06 KCAL/MOL
REMARK 927      BINDING AFFINITY PREDICTED BY RF-SCORE:    0.00 PKD
ROOT
HETATM    1  N   UNL     1     -11.491  12.876  70.054  1.00  0.00    -0.523 N  
HETATM    2  C   UNL     1     -11.554  12.180  68.874  1.00  0.00    -0.324 C  
HETATM    3  H1  UNL     1     -10.780  13.603  70.129  1.00  0.00     0.000 HD 
HETATM    4  H2  UNL     1     -12.128  12.674  70.825  1.00  0.00     0.000 HD 
HETATM    5  O   UNL     1     -12.411  11.304  68.784  1.00  0.00    -0.518 OA 
ENDROOT
BRANCH   2   6
HETATM    6  N   UNL     1     -10.556  12.508  67.944  1.00  0.00    -0.213 N  
HETATM    7  C   UNL     1      -9.428  11.635  67.721  1.00  0.00    -0.178 A  
HETATM    8  C   UNL     1      -9.592  10.238  67.788  1.00  0.00    -0.171 A  
HETATM    9  C   UNL     1      -8.532   9.364  67.536  1.00  0.00    -0.122 A  
HETATM   10  C   UNL     1      -7.276   9.864  67.223  1.00  0.00    -0.086 A  
HETATM   11  C   UNL     1      -7.081  11.241  67.174  1.00  0.00    -0.125 A  
HETATM   12  C   UNL     1      -8.142  12.134  67.414  1.00  0.00    -0.171 A  
HETATM   13  C   UNL     1      -7.800  13.559  67.422  1.00  0.00    -0.157 C  
HETATM   14  C   UNL     1      -8.579  14.530  66.933  1.00  0.00    -0.207 C  
HETATM   15  C   UNL     1      -9.888  14.297  66.319  1.00  0.00    -0.323 A  
HETATM   16  C   UNL     1     -10.225  15.095  65.212  1.00  0.00    -0.400 A  
HETATM   17  C   UNL     1     -11.474  14.986  64.600  1.00  0.00    -0.382 A  
HETATM   18  C   UNL     1     -12.408  14.091  65.099  1.00  0.00    -0.468 A  
HETATM   19  C   UNL     1     -12.092  13.302  66.204  1.00  0.00    -0.477 A  
HETATM   20  C   UNL     1     -10.832  13.387  66.833  1.00  0.00    -0.277 A  
ENDBRANCH   2   6
TORSDOF 1
ENDMDL
MODEL       51
REMARK 921   NORMALIZED FREE ENERGY PREDICTED BY IDOCK:   -4.85 KCAL/MOL
REMARK 922        TOTAL FREE ENERGY PREDICTED BY IDOCK:   -5.04 KCAL/MOL
REMARK 923 INTER-LIGAND FREE ENERGY PREDICTED BY IDOCK:   -5.11 KCAL/MOL
REMARK 924 INTRA-LIGAND FREE ENERGY PREDICTED BY IDOCK:    0.06 KCAL/MOL
REMARK 927      BINDING AFFINITY PREDICTED BY RF-SCORE:    0.00 PKD
ROOT
HETATM    1  N   UNL     1     -10.791  12.504  69.559  1.00  0.00    -0.442 N  
HETATM    2  C   UNL     1     -11.230  11.283  69.112  1.00  0.00    -0.273 C  
HETATM    3  H1  UNL     1      -9.875  12.534  70.007  1.00  0.00     0.000 HD 
HETATM    4  H2  UNL     1     -11.356  13.345  69.447  1.00  0.00     0.000 HD 
HETATM    5  O   UNL     1     -12.333  11.247  68.572  1.00  0.00    -0.543 OA 
ENDROOT
BRANCH   2   6
HETATM    6  N   UNL     1     -10.384  10.206  69.418  1.00  0.00    -0.216 N  
HETATM    7  C   UNL     1     -10.578   9.421  70.614  1.00  0.00    -0.290 A  
HETATM    8  C   UNL     1     -11.879   9.171  71.091  1.00  0.00    -0.374 A  
HETATM    9  C   UNL     1     -12.105   8.380  72.220  1.00  0.00    -0.456 A  
HETATM   10  C   UNL     1     -11.033   7.830  72.910  1.00  0.00    -0.467 A  
HETATM   11  C   UNL     1      -9.736   8.082  72.474  1.00  0.00    -0.325 A  
HETATM   12  C   UNL     1      -9.494   8.867  71.331  1.00  0.00    -0.344 A  
HETATM   13  C   UNL     1      -8.088   9.138  71.018  1.00  0.00    -0.179 C  
HETATM   14  C   UNL     1      -7.582   9.189  69.780  1.00  0.00    -0.079 C  
HETATM   15  C   UNL     1      -8.371   8.979  68.565  1.00  0.00    -0.124 A  
HETATM   16  C   UNL     1      -7.751   8.282  67.514  1.00  0.00    -0.099 A  
HETATM   17  C   UNL     1      -8.403   8.087  66.296  1.00  0.00    -0.121 A  
HETATM   18  C   UNL     1      -9.676   8.603  66.108  1.00  0.00    -0.292 A  
HETATM   19  C   UNL     1     -10.298   9.307  67.137  1.00  0.00    -0.330 A  
HETATM   20  C   UNL     1      -9.664   9.507  68.381  1.00  0.00    -0.154 A  
ENDBRANCH   2   6
TORSDOF 1
ENDMDL
MODEL       52
REMARK 921   NORMALIZED FREE ENERGY PREDICTED BY IDOCK:   -4.82 KCAL/MOL
REMARK 922        TOTAL FREE ENERGY PREDICTED BY IDOCK:   -5.02 KCAL/MOL
REMARK 923 INTER-LIGAND FREE ENERGY PREDICTED BY IDOCK:   -5.92 KCAL/MOL
REMARK 924 INTRA-LIGAND FREE ENERGY PREDICTED BY IDOCK:    0.90 KCAL/MOL
REMARK 927      BINDING AFFINITY PREDICTED BY RF-SCORE:    0.00 PKD
ROOT
HETATM    1  N   UNL     1     -12.783  15.095  69.658  1.00  0.00    -0.605 N  
HETATM    2  C   UNL     1     -12.155  13.894  69.443  1.00  0.00    -0.337 C  
HETATM    3  H1  UNL     1     -12.897  15.712  68.855  1.00  0.00     0.000 HD 
HETATM    4  H2  UNL     1     -13.122  15.358  70.583  1.00  0.00     0.000 HD 
HETATM    5  O   UNL     1     -12.017  13.151  70.411  1.00  0.00    -0.332 OA 
ENDROOT
BRANCH   2   6
HETATM    6  N   UNL     1     -11.665  13.712  68.141  1.00  0.00    -0.338 N  
HETATM    7  C   UNL     1     -11.258  14.837  67.332  1.00  0.00    -0.339 A  
HETATM    8  C   UNL     1     -10.644  15.953  67.933  1.00  0.00    -0.300 A  
HETATM    9  C   UNL     1     -10.199  17.039  67.176  1.00  0.00    -0.306 A  
HETATM   10  C   UNL     1     -10.370  17.044  65.799  1.00  0.00    -0.275 A  
HETATM   11  C   UNL     1     -10.996  15.966  65.182  1.00  0.00    -0.389 A  
HETATM   12  C   UNL     1     -11.439  14.858  65.931  1.00  0.00    -0.276 A  
HETATM   13  C   UNL     1     -12.162  13.822  65.189  1.00  0.00    -0.453 C  
HETATM   14  C   UNL     1     -12.053  12.509  65.416  1.00  0.00    -0.494 C  
HETATM   15  C   UNL     1     -11.190  11.927  66.446  1.00  0.00    -0.387 A  
HETATM   16  C   UNL     1     -10.538  10.723  66.126  1.00  0.00    -0.241 A  
HETATM   17  C   UNL     1      -9.744  10.063  67.065  1.00  0.00    -0.227 A  
HETATM   18  C   UNL     1      -9.607  10.589  68.340  1.00  0.00    -0.164 A  
HETATM   19  C   UNL     1     -10.258  11.776  68.675  1.00  0.00    -0.211 A  
HETATM   20  C   UNL     1     -11.057  12.466  67.740  1.00  0.00    -0.247 A  
ENDBRANCH   2   6
TORSDOF 1
ENDMDL
MODEL       53
REMARK 921   NORMALIZED FREE ENERGY PREDICTED BY IDOCK:   -4.81 KCAL/MOL
REMARK 922        TOTAL FREE ENERGY PREDICTED BY IDOCK:   -5.00 KCAL/MOL
REMARK 923 INTER-LIGAND FREE ENERGY PREDICTED BY IDOCK:   -5.08 KCAL/MOL
REMARK 924 INTRA-LIGAND FREE ENERGY PREDICTED BY IDOCK:    0.07 KCAL/MOL
REMARK 927      BINDING AFFINITY PREDICTED BY RF-SCORE:    0.00 PKD
ROOT
HETATM    1  N   UNL     1     -10.423  17.190  66.396  1.00  0.00    -0.293 N  
HETATM    2  C   UNL     1      -9.928  16.916  67.646  1.00  0.00    -0.271 C  
HETATM    3  H1  UNL     1     -10.937  16.446  65.925  1.00  0.00     0.000 HD 
HETATM    4  H2  UNL     1     -10.282  18.099  65.957  1.00  0.00     0.000 HD 
HETATM    5  O   UNL     1      -9.309  17.813  68.214  1.00  0.00    -0.271 OA 
ENDROOT
BRANCH   2   6
HETATM    6  N   UNL     1     -10.123  15.596  68.080  1.00  0.00    -0.223 N  
HETATM    7  C   UNL     1      -9.148  14.568  67.801  1.00  0.00    -0.190 A  
HETATM    8  C   UNL     1      -7.775  14.880  67.791  1.00  0.00    -0.174 A  
HETATM    9  C   UNL     1      -6.803  13.902  67.567  1.00  0.00    -0.148 A  
HETATM   10  C   UNL     1      -7.181  12.587  67.334  1.00  0.00    -0.146 A  
HETATM   11  C   UNL     1      -8.532  12.255  67.315  1.00  0.00    -0.181 A  
HETATM   12  C   UNL     1      -9.522  13.228  67.551  1.00  0.00    -0.220 A  
HETATM   13  C   UNL     1     -10.912  12.783  67.419  1.00  0.00    -0.285 C  
HETATM   14  C   UNL     1     -11.918  13.191  68.201  1.00  0.00    -0.333 C  
HETATM   15  C   UNL     1     -11.762  14.145  69.301  1.00  0.00    -0.368 A  
HETATM   16  C   UNL     1     -12.527  13.914  70.458  1.00  0.00    -0.422 A  
HETATM   17  C   UNL     1     -12.491  14.802  71.533  1.00  0.00    -0.403 A  
HETATM   18  C   UNL     1     -11.704  15.941  71.457  1.00  0.00    -0.545 A  
HETATM   19  C   UNL     1     -10.950  16.189  70.311  1.00  0.00    -0.345 A  
HETATM   20  C   UNL     1     -10.962  15.301  69.216  1.00  0.00    -0.261 A  
ENDBRANCH   2   6
TORSDOF 1
ENDMDL
MODEL       54
REMARK 921   NORMALIZED FREE ENERGY PREDICTED BY IDOCK:   -4.79 KCAL/MOL
REMARK 922        TOTAL FREE ENERGY PREDICTED BY IDOCK:   -4.98 KCAL/MOL
REMARK 923 INTER-LIGAND FREE ENERGY PREDICTED BY IDOCK:   -5.26 KCAL/MOL
REMARK 924 INTRA-LIGAND FREE ENERGY PREDICTED BY IDOCK:    0.28 KCAL/MOL
REMARK 927      BINDING AFFINITY PREDICTED BY RF-SCORE:    0.00 PKD
ROOT
HETATM    1  N   UNL     1     -12.395  15.337  69.386  1.00  0.00    -0.586 N  
HETATM    2  C   UNL     1     -11.034  15.507  69.391  1.00  0.00    -0.276 C  
HETATM    3  H1  UNL     1     -12.857  15.296  68.478  1.00  0.00     0.000 HD 
HETATM    4  H2  UNL     1     -12.923  15.254  70.255  1.00  0.00     0.000 HD 
HETATM    5  O   UNL     1     -10.478  15.556  70.485  1.00  0.00    -0.302 OA 
ENDROOT
BRANCH   2   6
HETATM    6  N   UNL     1     -10.460  15.695  68.124  1.00  0.00    -0.253 N  
HETATM    7  C   UNL     1      -9.452  16.704  67.904  1.00  0.00    -0.225 A  
HETATM    8  C   UNL     1      -8.514  16.998  68.912  1.00  0.00    -0.193 A  
HETATM    9  C   UNL     1      -7.500  17.938  68.717  1.00  0.00    -0.271 A  
HETATM   10  C   UNL     1      -7.405  18.620  67.512  1.00  0.00    -0.227 A  
HETATM   11  C   UNL     1      -8.334  18.367  66.507  1.00  0.00    -0.290 A  
HETATM   12  C   UNL     1      -9.355  17.413  66.685  1.00  0.00    -0.279 A  
HETATM   13  C   UNL     1     -10.327  17.294  65.595  1.00  0.00    -0.185 C  
HETATM   14  C   UNL     1     -10.868  16.143  65.182  1.00  0.00    -0.376 C  
HETATM   15  C   UNL     1     -10.559  14.838  65.770  1.00  0.00    -0.338 A  
HETATM   16  C   UNL     1     -10.480  13.744  64.890  1.00  0.00    -0.437 A  
HETATM   17  C   UNL     1     -10.251  12.453  65.366  1.00  0.00    -0.302 A  
HETATM   18  C   UNL     1     -10.116  12.236  66.729  1.00  0.00    -0.224 A  
HETATM   19  C   UNL     1     -10.204  13.309  67.614  1.00  0.00    -0.228 A  
HETATM   20  C   UNL     1     -10.425  14.625  67.156  1.00  0.00    -0.268 A  
ENDBRANCH   2   6
TORSDOF 1
ENDMDL
MODEL       55
REMARK 921   NORMALIZED FREE ENERGY PREDICTED BY IDOCK:   -4.75 KCAL/MOL
REMARK 922        TOTAL FREE ENERGY PREDICTED BY IDOCK:   -4.94 KCAL/MOL
REMARK 923 INTER-LIGAND FREE ENERGY PREDICTED BY IDOCK:   -5.13 KCAL/MOL
REMARK 924 INTRA-LIGAND FREE ENERGY PREDICTED BY IDOCK:    0.18 KCAL/MOL
REMARK 927      BINDING AFFINITY PREDICTED BY RF-SCORE:    0.00 PKD
ROOT
HETATM    1  N   UNL     1     -11.233  15.841  70.152  1.00  0.00    -0.317 N  
HETATM    2  C   UNL     1     -11.113  14.761  69.314  1.00  0.00    -0.266 C  
HETATM    3  H1  UNL     1     -10.938  16.748  69.790  1.00  0.00     0.000 HD 
HETATM    4  H2  UNL     1     -11.602  15.741  71.098  1.00  0.00     0.000 HD 
HETATM    5  O   UNL     1     -11.467  13.669  69.751  1.00  0.00    -0.251 OA 
ENDROOT
BRANCH   2   6
HETATM    6  N   UNL     1     -10.506  15.040  68.080  1.00  0.00    -0.240 N  
HETATM    7  C   UNL     1      -9.088  15.289  67.985  1.00  0.00    -0.176 A  
HETATM    8  C   UNL     1      -8.192  14.598  68.823  1.00  0.00    -0.156 A  
HETATM    9  C   UNL     1      -6.810  14.783  68.729  1.00  0.00    -0.099 A  
HETATM   10  C   UNL     1      -6.289  15.674  67.801  1.00  0.00    -0.179 A  
HETATM   11  C   UNL     1      -7.154  16.388  66.977  1.00  0.00    -0.259 A  
HETATM   12  C   UNL     1      -8.547  16.203  67.053  1.00  0.00    -0.233 A  
HETATM   13  C   UNL     1      -9.363  17.071  66.199  1.00  0.00    -0.245 C  
HETATM   14  C   UNL     1     -10.477  16.685  65.568  1.00  0.00    -0.285 C  
HETATM   15  C   UNL     1     -11.035  15.334  65.647  1.00  0.00    -0.348 A  
HETATM   16  C   UNL     1     -11.608  14.810  64.475  1.00  0.00    -0.366 A  
HETATM   17  C   UNL     1     -12.218  13.556  64.470  1.00  0.00    -0.445 A  
HETATM   18  C   UNL     1     -12.280  12.817  65.642  1.00  0.00    -0.503 A  
HETATM   19  C   UNL     1     -11.728  13.330  66.815  1.00  0.00    -0.434 A  
HETATM   20  C   UNL     1     -11.096  14.591  66.841  1.00  0.00    -0.325 A  
ENDBRANCH   2   6
TORSDOF 1
ENDMDL
MODEL       56
REMARK 921   NORMALIZED FREE ENERGY PREDICTED BY IDOCK:   -4.73 KCAL/MOL
REMARK 922        TOTAL FREE ENERGY PREDICTED BY IDOCK:   -4.92 KCAL/MOL
REMARK 923 INTER-LIGAND FREE ENERGY PREDICTED BY IDOCK:   -5.01 KCAL/MOL
REMARK 924 INTRA-LIGAND FREE ENERGY PREDICTED BY IDOCK:    0.09 KCAL/MOL
REMARK 927      BINDING AFFINITY PREDICTED BY RF-SCORE:    0.00 PKD
ROOT
HETATM    1  N   UNL     1     -11.271  14.049  69.747  1.00  0.00    -0.436 N  
HETATM    2  C   UNL     1     -10.768  14.609  68.599  1.00  0.00    -0.250 C  
HETATM    3  H1  UNL     1     -11.181  13.038  69.851  1.00  0.00     0.000 HD 
HETATM    4  H2  UNL     1     -11.715  14.619  70.466  1.00  0.00     0.000 HD 
HETATM    5  O   UNL     1     -10.876  15.826  68.475  1.00  0.00    -0.262 OA 
ENDROOT
BRANCH   2   6
HETATM    6  N   UNL     1     -10.270  13.688  67.666  1.00  0.00    -0.236 N  
HETATM    7  C   UNL     1     -10.898  13.518  66.377  1.00  0.00    -0.290 A  
HETATM    8  C   UNL     1     -11.464  14.625  65.716  1.00  0.00    -0.338 A  
HETATM    9  C   UNL     1     -12.041  14.505  64.450  1.00  0.00    -0.492 A  
HETATM   10  C   UNL     1     -12.080  13.271  63.816  1.00  0.00    -0.546 A  
HETATM   11  C   UNL     1     -11.549  12.155  64.458  1.00  0.00    -0.403 A  
HETATM   12  C   UNL     1     -10.953  12.264  65.729  1.00  0.00    -0.338 A  
HETATM   13  C   UNL     1     -10.508  11.010  66.344  1.00  0.00    -0.312 C  
HETATM   14  C   UNL     1      -9.396  10.875  67.075  1.00  0.00    -0.180 C  
HETATM   15  C   UNL     1      -8.468  11.972  67.359  1.00  0.00    -0.170 A  
HETATM   16  C   UNL     1      -7.097  11.659  67.377  1.00  0.00    -0.124 A  
HETATM   17  C   UNL     1      -6.143  12.624  67.699  1.00  0.00    -0.147 A  
HETATM   18  C   UNL     1      -6.548  13.909  68.025  1.00  0.00    -0.145 A  
HETATM   19  C   UNL     1      -7.905  14.231  68.023  1.00  0.00    -0.143 A  
HETATM   20  C   UNL     1      -8.887  13.275  67.691  1.00  0.00    -0.200 A  
ENDBRANCH   2   6
TORSDOF 1
ENDMDL
MODEL       57
REMARK 921   NORMALIZED FREE ENERGY PREDICTED BY IDOCK:   -4.72 KCAL/MOL
REMARK 922        TOTAL FREE ENERGY PREDICTED BY IDOCK:   -4.91 KCAL/MOL
REMARK 923 INTER-LIGAND FREE ENERGY PREDICTED BY IDOCK:   -4.97 KCAL/MOL
REMARK 924 INTRA-LIGAND FREE ENERGY PREDICTED BY IDOCK:    0.06 KCAL/MOL
REMARK 927      BINDING AFFINITY PREDICTED BY RF-SCORE:    0.00 PKD
ROOT
HETATM    1  N   UNL     1     -10.843  19.298  67.003  1.00  0.00    -0.457 N  
HETATM    2  C   UNL     1     -10.308  18.789  68.159  1.00  0.00    -0.365 C  
HETATM    3  H1  UNL     1     -10.902  18.670  66.201  1.00  0.00     0.000 HD 
HETATM    4  H2  UNL     1     -11.168  20.263  66.947  1.00  0.00     0.000 HD 
HETATM    5  O   UNL     1     -10.238  19.545  69.125  1.00  0.00    -0.375 OA 
ENDROOT
BRANCH   2   6
HETATM    6  N   UNL     1      -9.824  17.477  68.055  1.00  0.00    -0.285 N  
HETATM    7  C   UNL     1      -8.407  17.208  67.986  1.00  0.00    -0.218 A  
HETATM    8  C   UNL     1      -7.501  18.006  68.709  1.00  0.00    -0.271 A  
HETATM    9  C   UNL     1      -6.128  17.749  68.699  1.00  0.00    -0.192 A  
HETATM   10  C   UNL     1      -5.624  16.692  67.954  1.00  0.00    -0.134 A  
HETATM   11  C   UNL     1      -6.495  15.901  67.210  1.00  0.00    -0.174 A  
HETATM   12  C   UNL     1      -7.882  16.142  67.220  1.00  0.00    -0.207 A  
HETATM   13  C   UNL     1      -8.692  15.303  66.332  1.00  0.00    -0.265 C  
HETATM   14  C   UNL     1      -9.908  14.833  66.631  1.00  0.00    -0.270 C  
HETATM   15  C   UNL     1     -10.597  15.097  67.896  1.00  0.00    -0.257 A  
HETATM   16  C   UNL     1     -11.357  14.046  68.440  1.00  0.00    -0.321 A  
HETATM   17  C   UNL     1     -12.097  14.224  69.609  1.00  0.00    -0.396 A  
HETATM   18  C   UNL     1     -12.103  15.459  70.238  1.00  0.00    -0.402 A  
HETATM   19  C   UNL     1     -11.365  16.514  69.703  1.00  0.00    -0.077 A  
HETATM   20  C   UNL     1     -10.600  16.355  68.528  1.00  0.00    -0.304 A  
ENDBRANCH   2   6
TORSDOF 1
ENDMDL
MODEL       58
REMARK 921   NORMALIZED FREE ENERGY PREDICTED BY IDOCK:   -4.66 KCAL/MOL
REMARK 922        TOTAL FREE ENERGY PREDICTED BY IDOCK:   -4.85 KCAL/MOL
REMARK 923 INTER-LIGAND FREE ENERGY PREDICTED BY IDOCK:   -4.91 KCAL/MOL
REMARK 924 INTRA-LIGAND FREE ENERGY PREDICTED BY IDOCK:    0.07 KCAL/MOL
REMARK 927      BINDING AFFINITY PREDICTED BY RF-SCORE:    0.00 PKD
ROOT
HETATM    1  N   UNL     1     -11.287   6.591  67.766  1.00  0.00    -0.674 N  
HETATM    2  C   UNL     1     -10.958   6.670  69.095  1.00  0.00    -0.287 C  
HETATM    3  H1  UNL     1     -11.266   7.457  67.227  1.00  0.00     0.000 HD 
HETATM    4  H2  UNL     1     -11.542   5.703  67.334  1.00  0.00     0.000 HD 
HETATM    5  O   UNL     1     -10.984   5.627  69.743  1.00  0.00    -0.345 OA 
ENDROOT
BRANCH   2   6
HETATM    6  N   UNL     1     -10.720   7.971  69.565  1.00  0.00    -0.215 N  
HETATM    7  C   UNL     1     -11.656   8.631  70.443  1.00  0.00    -0.078 A  
HETATM    8  C   UNL     1     -12.366   7.888  71.406  1.00  0.00    -0.334 A  
HETATM    9  C   UNL     1     -13.248   8.500  72.299  1.00  0.00    -0.361 A  
HETATM   10  C   UNL     1     -13.453   9.871  72.245  1.00  0.00    -0.397 A  
HETATM   11  C   UNL     1     -12.783  10.627  71.288  1.00  0.00    -0.537 A  
HETATM   12  C   UNL     1     -11.882  10.025  70.388  1.00  0.00    -0.343 A  
HETATM   13  C   UNL     1     -11.302  10.903  69.368  1.00  0.00    -0.347 C  
HETATM   14  C   UNL     1     -10.041  10.827  68.928  1.00  0.00    -0.217 C  
HETATM   15  C   UNL     1      -9.065   9.848  69.412  1.00  0.00    -0.216 A  
HETATM   16  C   UNL     1      -7.737  10.287  69.552  1.00  0.00    -0.167 A  
HETATM   17  C   UNL     1      -6.727   9.410  69.947  1.00  0.00    -0.058 A  
HETATM   18  C   UNL     1      -7.028   8.079  70.189  1.00  0.00    -0.048 A  
HETATM   19  C   UNL     1      -8.339   7.626  70.042  1.00  0.00    -0.134 A  
HETATM   20  C   UNL     1      -9.378   8.497  69.654  1.00  0.00    -0.157 A  
ENDBRANCH   2   6
TORSDOF 1
ENDMDL
MODEL       59
REMARK 921   NORMALIZED FREE ENERGY PREDICTED BY IDOCK:   -4.64 KCAL/MOL
REMARK 922        TOTAL FREE ENERGY PREDICTED BY IDOCK:   -4.83 KCAL/MOL
REMARK 923 INTER-LIGAND FREE ENERGY PREDICTED BY IDOCK:   -4.89 KCAL/MOL
REMARK 924 INTRA-LIGAND FREE ENERGY PREDICTED BY IDOCK:    0.06 KCAL/MOL
REMARK 927      BINDING AFFINITY PREDICTED BY RF-SCORE:    0.00 PKD
ROOT
HETATM    1  N   UNL     1     -11.009  15.286  71.295  1.00  0.00    -0.517 N  
HETATM    2  C   UNL     1     -11.179  15.632  69.979  1.00  0.00    -0.325 C  
HETATM    3  H1  UNL     1     -10.051  15.211  71.638  1.00  0.00     0.000 HD 
HETATM    4  H2  UNL     1     -11.807  15.110  71.905  1.00  0.00     0.000 HD 
HETATM    5  O   UNL     1     -12.333  15.722  69.566  1.00  0.00    -0.281 OA 
ENDROOT
BRANCH   2   6
HETATM    6  N   UNL     1      -9.990  15.753  69.244  1.00  0.00    -0.244 N  
HETATM    7  C   UNL     1      -9.485  14.654  68.456  1.00  0.00    -0.216 A  
HETATM    8  C   UNL     1     -10.378  13.788  67.798  1.00  0.00    -0.241 A  
HETATM    9  C   UNL     1      -9.924  12.740  66.993  1.00  0.00    -0.231 A  
HETATM   10  C   UNL     1      -8.562  12.524  66.836  1.00  0.00    -0.158 A  
HETATM   11  C   UNL     1      -7.657  13.350  67.495  1.00  0.00    -0.176 A  
HETATM   12  C   UNL     1      -8.100  14.417  68.300  1.00  0.00    -0.139 A  
HETATM   13  C   UNL     1      -7.062  15.164  69.014  1.00  0.00    -0.140 C  
HETATM   14  C   UNL     1      -7.077  16.487  69.211  1.00  0.00    -0.219 C  
HETATM   15  C   UNL     1      -8.144  17.371  68.735  1.00  0.00    -0.234 A  
HETATM   16  C   UNL     1      -7.759  18.640  68.267  1.00  0.00    -0.321 A  
HETATM   17  C   UNL     1      -8.710  19.572  67.852  1.00  0.00    -0.364 A  
HETATM   18  C   UNL     1     -10.058  19.255  67.917  1.00  0.00    -0.492 A  
HETATM   19  C   UNL     1     -10.454  18.005  68.392  1.00  0.00    -0.326 A  
HETATM   20  C   UNL     1      -9.511  17.042  68.807  1.00  0.00    -0.263 A  
ENDBRANCH   2   6
TORSDOF 1
ENDMDL
MODEL       60
REMARK 921   NORMALIZED FREE ENERGY PREDICTED BY IDOCK:   -4.62 KCAL/MOL
REMARK 922        TOTAL FREE ENERGY PREDICTED BY IDOCK:   -4.80 KCAL/MOL
REMARK 923 INTER-LIGAND FREE ENERGY PREDICTED BY IDOCK:   -5.03 KCAL/MOL
REMARK 924 INTRA-LIGAND FREE ENERGY PREDICTED BY IDOCK:    0.23 KCAL/MOL
REMARK 927      BINDING AFFINITY PREDICTED BY RF-SCORE:    0.00 PKD
ROOT
HETATM    1  N   UNL     1     -12.412  13.753  69.477  1.00  0.00    -0.317 N  
HETATM    2  C   UNL     1     -11.741  14.742  68.804  1.00  0.00    -0.323 C  
HETATM    3  H1  UNL     1     -12.096  12.794  69.334  1.00  0.00     0.000 HD 
HETATM    4  H2  UNL     1     -13.194  13.967  70.096  1.00  0.00     0.000 HD 
HETATM    5  O   UNL     1     -12.123  15.897  68.978  1.00  0.00    -0.328 OA 
ENDROOT
BRANCH   2   6
HETATM    6  N   UNL     1     -10.749  14.285  67.923  1.00  0.00    -0.238 N  
HETATM    7  C   UNL     1     -11.095  13.576  66.714  1.00  0.00    -0.299 A  
HETATM    8  C   UNL     1     -12.259  13.921  66.001  1.00  0.00    -0.495 A  
HETATM    9  C   UNL     1     -12.601  13.285  64.805  1.00  0.00    -0.398 A  
HETATM   10  C   UNL     1     -11.792  12.277  64.298  1.00  0.00    -0.482 A  
HETATM   11  C   UNL     1     -10.649  11.900  64.995  1.00  0.00    -0.335 A  
HETATM   12  C   UNL     1     -10.286  12.540  66.195  1.00  0.00    -0.269 A  
HETATM   13  C   UNL     1      -9.112  12.001  66.887  1.00  0.00    -0.196 C  
HETATM   14  C   UNL     1      -8.203  12.742  67.530  1.00  0.00    -0.179 C  
HETATM   15  C   UNL     1      -8.261  14.202  67.630  1.00  0.00    -0.193 A  
HETATM   16  C   UNL     1      -7.040  14.895  67.562  1.00  0.00    -0.215 A  
HETATM   17  C   UNL     1      -6.990  16.282  67.709  1.00  0.00    -0.155 A  
HETATM   18  C   UNL     1      -8.159  16.990  67.944  1.00  0.00    -0.196 A  
HETATM   19  C   UNL     1      -9.375  16.314  68.027  1.00  0.00    -0.214 A  
HETATM   20  C   UNL     1      -9.451  14.915  67.871  1.00  0.00    -0.200 A  
ENDBRANCH   2   6
TORSDOF 1
ENDMDL
MODEL       61
REMARK 921   NORMALIZED FREE ENERGY PREDICTED BY IDOCK:   -4.60 KCAL/MOL
REMARK 922        TOTAL FREE ENERGY PREDICTED BY IDOCK:   -4.78 KCAL/MOL
REMARK 923 INTER-LIGAND FREE ENERGY PREDICTED BY IDOCK:   -4.87 KCAL/MOL
REMARK 924 INTRA-LIGAND FREE ENERGY PREDICTED BY IDOCK:    0.09 KCAL/MOL
REMARK 927      BINDING AFFINITY PREDICTED BY RF-SCORE:    0.00 PKD
ROOT
HETATM    1  N   UNL     1      -6.680  14.078  67.212  1.00  0.00    -0.163 N  
HETATM    2  C   UNL     1      -7.470  14.770  68.095  1.00  0.00    -0.117 C  
HETATM    3  H1  UNL     1      -7.051  13.926  66.274  1.00  0.00     0.000 HD 
HETATM    4  H2  UNL     1      -5.760  13.730  67.482  1.00  0.00     0.000 HD 
HETATM    5  O   UNL     1      -7.023  14.952  69.224  1.00  0.00    -0.126 OA 
ENDROOT
BRANCH   2   6
HETATM    6  N   UNL     1      -8.742  15.105  67.607  1.00  0.00    -0.165 N  
HETATM    7  C   UNL     1      -9.846  14.179  67.704  1.00  0.00    -0.229 A  
HETATM    8  C   UNL     1      -9.960  13.331  68.822  1.00  0.00    -0.051 A  
HETATM    9  C   UNL     1     -11.037  12.454  68.970  1.00  0.00    -0.288 A  
HETATM   10  C   UNL     1     -12.023  12.393  67.995  1.00  0.00    -0.264 A  
HETATM   11  C   UNL     1     -11.922  13.203  66.867  1.00  0.00    -0.421 A  
HETATM   12  C   UNL     1     -10.848  14.100  66.711  1.00  0.00    -0.296 A  
HETATM   13  C   UNL     1     -10.799  14.837  65.446  1.00  0.00    -0.372 C  
HETATM   14  C   UNL     1     -10.414  16.112  65.324  1.00  0.00    -0.356 C  
HETATM   15  C   UNL     1      -9.986  16.947  66.448  1.00  0.00    -0.321 A  
HETATM   16  C   UNL     1     -10.369  18.300  66.420  1.00  0.00    -0.418 A  
HETATM   17  C   UNL     1      -9.957  19.185  67.416  1.00  0.00    -0.432 A  
HETATM   18  C   UNL     1      -9.141  18.734  68.442  1.00  0.00    -0.372 A  
HETATM   19  C   UNL     1      -8.742  17.399  68.475  1.00  0.00    -0.277 A  
HETATM   20  C   UNL     1      -9.155  16.483  67.485  1.00  0.00    -0.197 A  
ENDBRANCH   2   6
TORSDOF 1
ENDMDL
MODEL       62
REMARK 921   NORMALIZED FREE ENERGY PREDICTED BY IDOCK:   -4.55 KCAL/MOL
REMARK 922        TOTAL FREE ENERGY PREDICTED BY IDOCK:   -4.73 KCAL/MOL
REMARK 923 INTER-LIGAND FREE ENERGY PREDICTED BY IDOCK:   -4.81 KCAL/MOL
REMARK 924 INTRA-LIGAND FREE ENERGY PREDICTED BY IDOCK:    0.08 KCAL/MOL
REMARK 927      BINDING AFFINITY PREDICTED BY RF-SCORE:    0.00 PKD
ROOT
HETATM    1  N   UNL     1     -11.239   6.994  67.386  1.00  0.00    -0.607 N  
HETATM    2  C   UNL     1     -10.515   8.005  67.966  1.00  0.00    -0.184 C  
HETATM    3  H1  UNL     1     -11.915   6.507  67.975  1.00  0.00     0.000 HD 
HETATM    4  H2  UNL     1     -11.108   6.741  66.407  1.00  0.00     0.000 HD 
HETATM    5  O   UNL     1      -9.702   8.592  67.257  1.00  0.00    -0.159 OA 
ENDROOT
BRANCH   2   6
HETATM    6  N   UNL     1     -10.742   8.176  69.341  1.00  0.00    -0.199 N  
HETATM    7  C   UNL     1      -9.979   7.440  70.320  1.00  0.00    -0.188 A  
HETATM    8  C   UNL     1      -8.623   7.144  70.082  1.00  0.00    -0.140 A  
HETATM    9  C   UNL     1      -7.844   6.470  71.026  1.00  0.00    -0.110 A  
HETATM   10  C   UNL     1      -8.405   6.063  72.228  1.00  0.00    -0.113 A  
HETATM   11  C   UNL     1      -9.749   6.320  72.479  1.00  0.00    -0.163 A  
HETATM   12  C   UNL     1     -10.544   7.009  71.542  1.00  0.00    -0.232 A  
HETATM   13  C   UNL     1     -11.964   7.146  71.874  1.00  0.00    -0.343 C  
HETATM   14  C   UNL     1     -12.704   8.230  71.614  1.00  0.00    -0.351 C  
HETATM   15  C   UNL     1     -12.188   9.433  70.958  1.00  0.00    -0.354 A  
HETATM   16  C   UNL     1     -12.674  10.669  71.418  1.00  0.00    -0.545 A  
HETATM   17  C   UNL     1     -12.287  11.865  70.813  1.00  0.00    -0.416 A  
HETATM   18  C   UNL     1     -11.423  11.839  69.729  1.00  0.00    -0.320 A  
HETATM   19  C   UNL     1     -10.943  10.619  69.254  1.00  0.00    -0.294 A  
HETATM   20  C   UNL     1     -11.312   9.398  69.856  1.00  0.00    -0.093 A  
ENDBRANCH   2   6
TORSDOF 1
ENDMDL
MODEL       63
REMARK 921   NORMALIZED FREE ENERGY PREDICTED BY IDOCK:   -4.40 KCAL/MOL
REMARK 922        TOTAL FREE ENERGY PREDICTED BY IDOCK:   -4.56 KCAL/MOL
REMARK 923 INTER-LIGAND FREE ENERGY PREDICTED BY IDOCK:   -4.88 KCAL/MOL
REMARK 924 INTRA-LIGAND FREE ENERGY PREDICTED BY IDOCK:    0.32 KCAL/MOL
REMARK 927      BINDING AFFINITY PREDICTED BY RF-SCORE:    0.00 PKD
ROOT
HETATM    1  N   UNL     1      -9.749  14.992  70.068  1.00  0.00    -0.470 N  
HETATM    2  C   UNL     1      -9.719  15.146  68.705  1.00  0.00    -0.221 C  
HETATM    3  H1  UNL     1      -9.832  14.041  70.428  1.00  0.00     0.000 HD 
HETATM    4  H2  UNL     1      -9.690  15.794  70.695  1.00  0.00     0.000 HD 
HETATM    5  O   UNL     1      -9.619  16.291  68.272  1.00  0.00    -0.212 OA 
ENDROOT
BRANCH   2   6
HETATM    6  N   UNL     1      -9.901  13.962  67.975  1.00  0.00    -0.227 N  
HETATM    7  C   UNL     1     -10.716  13.937  66.784  1.00  0.00    -0.281 A  
HETATM    8  C   UNL     1     -10.740  15.049  65.922  1.00  0.00    -0.337 A  
HETATM    9  C   UNL     1     -11.484  15.044  64.739  1.00  0.00    -0.403 A  
HETATM   10  C   UNL     1     -12.234  13.928  64.395  1.00  0.00    -0.449 A  
HETATM   11  C   UNL     1     -12.248  12.824  65.241  1.00  0.00    -0.535 A  
HETATM   12  C   UNL     1     -11.494  12.811  66.430  1.00  0.00    -0.409 A  
HETATM   13  C   UNL     1     -11.654  11.632  67.286  1.00  0.00    -0.316 C  
HETATM   14  C   UNL     1     -10.665  11.057  67.979  1.00  0.00    -0.260 C  
HETATM   15  C   UNL     1      -9.280  11.533  67.975  1.00  0.00    -0.175 A  
HETATM   16  C   UNL     1      -8.270  10.556  68.001  1.00  0.00    -0.112 A  
HETATM   17  C   UNL     1      -6.923  10.915  68.061  1.00  0.00    -0.072 A  
HETATM   18  C   UNL     1      -6.570  12.254  68.114  1.00  0.00    -0.067 A  
HETATM   19  C   UNL     1      -7.562  13.234  68.101  1.00  0.00    -0.141 A  
HETATM   20  C   UNL     1      -8.930  12.895  68.030  1.00  0.00    -0.196 A  
ENDBRANCH   2   6
TORSDOF 1
ENDMDL
MODEL       64
REMARK 921   NORMALIZED FREE ENERGY PREDICTED BY IDOCK:   -4.39 KCAL/MOL
REMARK 922        TOTAL FREE ENERGY PREDICTED BY IDOCK:   -4.55 KCAL/MOL
REMARK 923 INTER-LIGAND FREE ENERGY PREDICTED BY IDOCK:   -4.62 KCAL/MOL
REMARK 924 INTRA-LIGAND FREE ENERGY PREDICTED BY IDOCK:    0.07 KCAL/MOL
REMARK 927      BINDING AFFINITY PREDICTED BY RF-SCORE:    0.00 PKD
ROOT
HETATM    1  N   UNL     1     -12.378  15.454  69.144  1.00  0.00    -0.609 N  
HETATM    2  C   UNL     1     -11.309  16.208  69.559  1.00  0.00    -0.321 C  
HETATM    3  H1  UNL     1     -12.366  15.118  68.182  1.00  0.00     0.000 HD 
HETATM    4  H2  UNL     1     -13.152  15.240  69.773  1.00  0.00     0.000 HD 
HETATM    5  O   UNL     1     -11.324  16.613  70.718  1.00  0.00    -0.226 OA 
ENDROOT
BRANCH   2   6
HETATM    6  N   UNL     1     -10.369  16.494  68.558  1.00  0.00    -0.271 N  
HETATM    7  C   UNL     1     -10.247  17.823  68.006  1.00  0.00    -0.377 A  
HETATM    8  C   UNL     1     -10.442  18.949  68.828  1.00  0.00    -0.040 A  
HETATM    9  C   UNL     1     -10.291  20.249  68.339  1.00  0.00    -0.305 A  
HETATM   10  C   UNL     1      -9.952  20.456  67.009  1.00  0.00    -0.568 A  
HETATM   11  C   UNL     1      -9.777  19.361  66.168  1.00  0.00    -0.423 A  
HETATM   12  C   UNL     1      -9.915  18.045  66.651  1.00  0.00    -0.362 A  
HETATM   13  C   UNL     1      -9.795  16.975  65.657  1.00  0.00    -0.019 C  
HETATM   14  C   UNL     1      -9.204  15.796  65.879  1.00  0.00    -0.337 C  
HETATM   15  C   UNL     1      -8.594  15.414  67.154  1.00  0.00    -0.235 A  
HETATM   16  C   UNL     1      -7.412  14.656  67.095  1.00  0.00    -0.035 A  
HETATM   17  C   UNL     1      -6.793  14.195  68.257  1.00  0.00    -0.107 A  
HETATM   18  C   UNL     1      -7.359  14.471  69.492  1.00  0.00    -0.063 A  
HETATM   19  C   UNL     1      -8.538  15.211  69.566  1.00  0.00    -0.133 A  
HETATM   20  C   UNL     1      -9.176  15.696  68.405  1.00  0.00    -0.191 A  
ENDBRANCH   2   6
TORSDOF 1
ENDMDL
MODEL       65
REMARK 921   NORMALIZED FREE ENERGY PREDICTED BY IDOCK:   -4.38 KCAL/MOL
REMARK 922        TOTAL FREE ENERGY PREDICTED BY IDOCK:   -4.54 KCAL/MOL
REMARK 923 INTER-LIGAND FREE ENERGY PREDICTED BY IDOCK:   -4.63 KCAL/MOL
REMARK 924 INTRA-LIGAND FREE ENERGY PREDICTED BY IDOCK:    0.08 KCAL/MOL
REMARK 927      BINDING AFFINITY PREDICTED BY RF-SCORE:    0.00 PKD
ROOT
HETATM    1  N   UNL     1      -9.966  12.476  64.250  1.00  0.00    -0.565 N  
HETATM    2  C   UNL     1     -10.495  12.980  65.411  1.00  0.00    -0.296 C  
HETATM    3  H1  UNL     1      -9.088  11.964  64.321  1.00  0.00     0.000 HD 
HETATM    4  H2  UNL     1     -10.433  12.609  63.352  1.00  0.00     0.000 HD 
HETATM    5  O   UNL     1     -11.554  13.597  65.325  1.00  0.00    -0.310 OA 
ENDROOT
BRANCH   2   6
HETATM    6  N   UNL     1      -9.696  12.795  66.550  1.00  0.00    -0.251 N  
HETATM    7  C   UNL     1      -8.663  13.741  66.897  1.00  0.00    -0.154 A  
HETATM    8  C   UNL     1      -8.851  15.115  66.652  1.00  0.00    -0.321 A  
HETATM    9  C   UNL     1      -7.891  16.062  67.014  1.00  0.00    -0.263 A  
HETATM   10  C   UNL     1      -6.710  15.659  67.621  1.00  0.00    -0.204 A  
HETATM   11  C   UNL     1      -6.487  14.305  67.853  1.00  0.00    -0.175 A  
HETATM   12  C   UNL     1      -7.451  13.340  67.504  1.00  0.00    -0.163 A  
HETATM   13  C   UNL     1      -7.072  11.940  67.714  1.00  0.00    -0.103 C  
HETATM   14  C   UNL     1      -7.904  10.983  68.140  1.00  0.00    -0.116 C  
HETATM   15  C   UNL     1      -9.316  11.209  68.454  1.00  0.00    -0.185 A  
HETATM   16  C   UNL     1      -9.846  10.507  69.551  1.00  0.00    -0.170 A  
HETATM   17  C   UNL     1     -11.195  10.612  69.888  1.00  0.00    -0.378 A  
HETATM   18  C   UNL     1     -12.036  11.405  69.123  1.00  0.00    -0.395 A  
HETATM   19  C   UNL     1     -11.527  12.098  68.025  1.00  0.00    -0.380 A  
HETATM   20  C   UNL     1     -10.164  12.016  67.671  1.00  0.00    -0.199 A  
ENDBRANCH   2   6
TORSDOF 1
ENDMDL
MODEL       66
REMARK 921   NORMALIZED FREE ENERGY PREDICTED BY IDOCK:   -4.35 KCAL/MOL
REMARK 922        TOTAL FREE ENERGY PREDICTED BY IDOCK:   -4.52 KCAL/MOL
REMARK 923 INTER-LIGAND FREE ENERGY PREDICTED BY IDOCK:   -4.64 KCAL/MOL
REMARK 924 INTRA-LIGAND FREE ENERGY PREDICTED BY IDOCK:    0.12 KCAL/MOL
REMARK 927      BINDING AFFINITY PREDICTED BY RF-SCORE:    0.00 PKD
ROOT
HETATM    1  N   UNL     1      -7.119  10.833  65.849  1.00  0.00    -0.265 N  
HETATM    2  C   UNL     1      -8.019   9.881  65.442  1.00  0.00    -0.134 C  
HETATM    3  H1  UNL     1      -7.402  11.446  66.613  1.00  0.00     0.000 HD 
HETATM    4  H2  UNL     1      -6.205  10.923  65.406  1.00  0.00     0.000 HD 
HETATM    5  O   UNL     1      -7.678   9.143  64.521  1.00  0.00    -0.106 OA 
ENDROOT
BRANCH   2   6
HETATM    6  N   UNL     1      -9.265   9.938  66.084  1.00  0.00    -0.160 N  
HETATM    7  C   UNL     1     -10.271  10.891  65.678  1.00  0.00    -0.263 A  
HETATM    8  C   UNL     1     -10.405  11.242  64.322  1.00  0.00    -0.399 A  
HETATM    9  C   UNL     1     -11.394  12.128  63.888  1.00  0.00    -0.501 A  
HETATM   10  C   UNL     1     -12.268  12.697  64.805  1.00  0.00    -0.528 A  
HETATM   11  C   UNL     1     -12.142  12.387  66.155  1.00  0.00    -0.295 A  
HETATM   12  C   UNL     1     -11.157  11.486  66.604  1.00  0.00    -0.355 A  
HETATM   13  C   UNL     1     -11.061  11.303  68.055  1.00  0.00    -0.325 C  
HETATM   14  C   UNL     1     -10.800  10.137  68.658  1.00  0.00    -0.272 C  
HETATM   15  C   UNL     1     -10.574   8.880  67.942  1.00  0.00    -0.244 A  
HETATM   16  C   UNL     1     -11.092   7.711  68.527  1.00  0.00     0.233 A  
HETATM   17  C   UNL     1     -10.874   6.460  67.950  1.00  0.00    -0.404 A  
HETATM   18  C   UNL     1     -10.120   6.360  66.791  1.00  0.00    -0.239 A  
HETATM   19  C   UNL     1      -9.590   7.510  66.206  1.00  0.00    -0.134 A  
HETATM   20  C   UNL     1      -9.806   8.786  66.766  1.00  0.00    -0.247 A  
ENDBRANCH   2   6
TORSDOF 1
ENDMDL
MODEL       67
REMARK 921   NORMALIZED FREE ENERGY PREDICTED BY IDOCK:   -4.35 KCAL/MOL
REMARK 922        TOTAL FREE ENERGY PREDICTED BY IDOCK:   -4.52 KCAL/MOL
REMARK 923 INTER-LIGAND FREE ENERGY PREDICTED BY IDOCK:   -4.60 KCAL/MOL
REMARK 924 INTRA-LIGAND FREE ENERGY PREDICTED BY IDOCK:    0.08 KCAL/MOL
REMARK 927      BINDING AFFINITY PREDICTED BY RF-SCORE:    0.00 PKD
ROOT
HETATM    1  N   UNL     1      -6.574  16.043  67.270  1.00  0.00    -0.187 N  
HETATM    2  C   UNL     1      -7.083  16.557  68.436  1.00  0.00    -0.160 C  
HETATM    3  H1  UNL     1      -6.306  16.708  66.546  1.00  0.00     0.000 HD 
HETATM    4  H2  UNL     1      -6.470  15.037  67.134  1.00  0.00     0.000 HD 
HETATM    5  O   UNL     1      -7.407  15.755  69.309  1.00  0.00    -0.189 OA 
ENDROOT
BRANCH   2   6
HETATM    6  N   UNL     1      -7.251  17.950  68.441  1.00  0.00    -0.246 N  
HETATM    7  C   UNL     1      -8.470  18.556  67.961  1.00  0.00    -0.283 A  
HETATM    8  C   UNL     1      -9.706  17.915  68.168  1.00  0.00    -0.320 A  
HETATM    9  C   UNL     1     -10.909  18.492  67.755  1.00  0.00    -0.289 A  
HETATM   10  C   UNL     1     -10.906  19.722  67.111  1.00  0.00    -0.467 A  
HETATM   11  C   UNL     1      -9.695  20.366  66.872  1.00  0.00    -0.567 A  
HETATM   12  C   UNL     1      -8.477  19.801  67.293  1.00  0.00    -0.363 A  
HETATM   13  C   UNL     1      -7.261  20.524  66.909  1.00  0.00    -0.344 C  
HETATM   14  C   UNL     1      -6.176  20.650  67.681  1.00  0.00    -0.318 C  
HETATM   15  C   UNL     1      -6.058  20.076  69.024  1.00  0.00    -0.331 A  
HETATM   16  C   UNL     1      -5.375  20.841  69.986  1.00  0.00    -0.387 A  
HETATM   17  C   UNL     1      -5.160  20.350  71.274  1.00  0.00    -0.304 A  
HETATM   18  C   UNL     1      -5.608  19.082  71.610  1.00  0.00    -0.147 A  
HETATM   19  C   UNL     1      -6.275  18.308  70.662  1.00  0.00     0.566 A  
HETATM   20  C   UNL     1      -6.514  18.787  69.357  1.00  0.00    -0.262 A  
ENDBRANCH   2   6
TORSDOF 1
ENDMDL
MODEL       68
REMARK 921   NORMALIZED FREE ENERGY PREDICTED BY IDOCK:   -4.35 KCAL/MOL
REMARK 922        TOTAL FREE ENERGY PREDICTED BY IDOCK:   -4.52 KCAL/MOL
REMARK 923 INTER-LIGAND FREE ENERGY PREDICTED BY IDOCK:   -4.62 KCAL/MOL
REMARK 924 INTRA-LIGAND FREE ENERGY PREDICTED BY IDOCK:    0.10 KCAL/MOL
REMARK 927      BINDING AFFINITY PREDICTED BY RF-SCORE:    0.00 PKD
ROOT
HETATM    1  N   UNL     1     -13.436   8.696  71.231  1.00  0.00    -0.542 N  
HETATM    2  C   UNL     1     -12.113   9.029  71.374  1.00  0.00    -0.327 C  
HETATM    3  H1  UNL     1     -13.647   7.755  70.900  1.00  0.00     0.000 HD 
HETATM    4  H2  UNL     1     -14.178   9.362  71.446  1.00  0.00     0.000 HD 
HETATM    5  O   UNL     1     -11.860  10.163  71.773  1.00  0.00    -0.281 OA 
ENDROOT
BRANCH   2   6
HETATM    6  N   UNL     1     -11.210   8.041  70.954  1.00  0.00    -0.263 N  
HETATM    7  C   UNL     1     -10.850   7.903  69.563  1.00  0.00    -0.136 A  
HETATM    8  C   UNL     1     -10.741   9.043  68.745  1.00  0.00    -0.140 A  
HETATM    9  C   UNL     1     -10.353   8.950  67.406  1.00  0.00    -0.337 A  
HETATM   10  C   UNL     1     -10.077   7.710  66.846  1.00  0.00    -0.348 A  
HETATM   11  C   UNL     1     -10.201   6.564  67.626  1.00  0.00    -0.210 A  
HETATM   12  C   UNL     1     -10.579   6.644  68.980  1.00  0.00    -0.273 A  
HETATM   13  C   UNL     1     -10.762   5.368  69.678  1.00  0.00    -0.267 C  
HETATM   14  C   UNL     1     -10.420   5.143  70.951  1.00  0.00    -0.258 C  
HETATM   15  C   UNL     1      -9.813   6.150  71.824  1.00  0.00    -0.185 A  
HETATM   16  C   UNL     1      -8.826   5.705  72.721  1.00  0.00    -0.122 A  
HETATM   17  C   UNL     1      -8.235   6.579  73.633  1.00  0.00    -0.119 A  
HETATM   18  C   UNL     1      -8.637   7.906  73.673  1.00  0.00    -0.316 A  
HETATM   19  C   UNL     1      -9.624   8.358  72.798  1.00  0.00    -0.308 A  
HETATM   20  C   UNL     1     -10.227   7.495  71.860  1.00  0.00    -0.188 A  
ENDBRANCH   2   6
TORSDOF 1
ENDMDL
MODEL       69
REMARK 921   NORMALIZED FREE ENERGY PREDICTED BY IDOCK:   -4.31 KCAL/MOL
REMARK 922        TOTAL FREE ENERGY PREDICTED BY IDOCK:   -4.47 KCAL/MOL
REMARK 923 INTER-LIGAND FREE ENERGY PREDICTED BY IDOCK:   -4.55 KCAL/MOL
REMARK 924 INTRA-LIGAND FREE ENERGY PREDICTED BY IDOCK:    0.08 KCAL/MOL
REMARK 927      BINDING AFFINITY PREDICTED BY RF-SCORE:    0.00 PKD
ROOT
HETATM    1  N   UNL     1      -9.263   5.790  67.892  1.00  0.00    -0.109 N  
HETATM    2  C   UNL     1     -10.309   6.669  68.011  1.00  0.00    -0.191 C  
HETATM    3  H1  UNL     1      -8.454   5.944  68.493  1.00  0.00     0.000 HD 
HETATM    4  H2  UNL     1      -9.293   5.014  67.231  1.00  0.00     0.000 HD 
HETATM    5  O   UNL     1     -11.284   6.483  67.286  1.00  0.00    -0.376 OA 
ENDROOT
BRANCH   2   6
HETATM    6  N   UNL     1     -10.084   7.735  68.896  1.00  0.00    -0.190 N  
HETATM    7  C   UNL     1      -9.924   9.085  68.412  1.00  0.00    -0.180 A  
HETATM    8  C   UNL     1     -10.656   9.527  67.294  1.00  0.00    -0.317 A  
HETATM    9  C   UNL     1     -10.558  10.839  66.825  1.00  0.00    -0.307 A  
HETATM   10  C   UNL     1      -9.712  11.741  67.455  1.00  0.00    -0.185 A  
HETATM   11  C   UNL     1      -8.958  11.324  68.548  1.00  0.00    -0.166 A  
HETATM   12  C   UNL     1      -9.056  10.008  69.038  1.00  0.00    -0.172 A  
HETATM   13  C   UNL     1      -8.150   9.657  70.136  1.00  0.00    -0.205 C  
HETATM   14  C   UNL     1      -8.475   8.867  71.165  1.00  0.00    -0.250 C  
HETATM   15  C   UNL     1      -9.789   8.242  71.333  1.00  0.00    -0.240 A  
HETATM   16  C   UNL     1     -10.292   8.156  72.643  1.00  0.00    -0.398 A  
HETATM   17  C   UNL     1     -11.507   7.523  72.907  1.00  0.00    -0.311 A  
HETATM   18  C   UNL     1     -12.225   6.952  71.868  1.00  0.00    -0.370 A  
HETATM   19  C   UNL     1     -11.732   7.019  70.565  1.00  0.00    -0.359 A  
HETATM   20  C   UNL     1     -10.512   7.663  70.272  1.00  0.00    -0.224 A  
ENDBRANCH   2   6
TORSDOF 1
ENDMDL
MODEL       70
REMARK 921   NORMALIZED FREE ENERGY PREDICTED BY IDOCK:   -4.28 KCAL/MOL
REMARK 922        TOTAL FREE ENERGY PREDICTED BY IDOCK:   -4.44 KCAL/MOL
REMARK 923 INTER-LIGAND FREE ENERGY PREDICTED BY IDOCK:   -5.00 KCAL/MOL
REMARK 924 INTRA-LIGAND FREE ENERGY PREDICTED BY IDOCK:    0.56 KCAL/MOL
REMARK 927      BINDING AFFINITY PREDICTED BY RF-SCORE:    0.00 PKD
ROOT
HETATM    1  N   UNL     1     -10.603  17.925  67.529  1.00  0.00    -0.392 N  
HETATM    2  C   UNL     1     -10.387  16.846  66.710  1.00  0.00    -0.298 C  
HETATM    3  H1  UNL     1     -10.384  17.811  68.519  1.00  0.00     0.000 HD 
HETATM    4  H2  UNL     1     -10.968  18.804  67.164  1.00  0.00     0.000 HD 
HETATM    5  O   UNL     1     -10.652  16.984  65.518  1.00  0.00    -0.542 OA 
ENDROOT
BRANCH   2   6
HETATM    6  N   UNL     1      -9.970  15.680  67.371  1.00  0.00    -0.230 N  
HETATM    7  C   UNL     1      -8.568  15.367  67.518  1.00  0.00    -0.174 A  
HETATM    8  C   UNL     1      -7.630  16.399  67.710  1.00  0.00    -0.160 A  
HETATM    9  C   UNL     1      -6.273  16.130  67.899  1.00  0.00    -0.144 A  
HETATM   10  C   UNL     1      -5.815  14.819  67.885  1.00  0.00    -0.146 A  
HETATM   11  C   UNL     1      -6.717  13.781  67.672  1.00  0.00    -0.189 A  
HETATM   12  C   UNL     1      -8.090  14.038  67.493  1.00  0.00    -0.197 A  
HETATM   13  C   UNL     1      -8.931  12.877  67.189  1.00  0.00    -0.219 C  
HETATM   14  C   UNL     1     -10.173  12.697  67.651  1.00  0.00    -0.217 C  
HETATM   15  C   UNL     1     -10.864  13.644  68.529  1.00  0.00    -0.275 A  
HETATM   16  C   UNL     1     -11.683  13.102  69.534  1.00  0.00    -0.382 A  
HETATM   17  C   UNL     1     -12.428  13.926  70.378  1.00  0.00    -0.404 A  
HETATM   18  C   UNL     1     -12.377  15.302  70.215  1.00  0.00    -0.407 A  
HETATM   19  C   UNL     1     -11.578  15.853  69.214  1.00  0.00    -0.372 A  
HETATM   20  C   UNL     1     -10.809  15.041  68.356  1.00  0.00    -0.256 A  
ENDBRANCH   2   6
TORSDOF 1
ENDMDL
MODEL       71
REMARK 921   NORMALIZED FREE ENERGY PREDICTED BY IDOCK:   -4.28 KCAL/MOL
REMARK 922        TOTAL FREE ENERGY PREDICTED BY IDOCK:   -4.44 KCAL/MOL
REMARK 923 INTER-LIGAND FREE ENERGY PREDICTED BY IDOCK:   -4.78 KCAL/MOL
REMARK 924 INTRA-LIGAND FREE ENERGY PREDICTED BY IDOCK:    0.34 KCAL/MOL
REMARK 927      BINDING AFFINITY PREDICTED BY RF-SCORE:    0.00 PKD
ROOT
HETATM    1  N   UNL     1     -12.283  16.610  68.959  1.00  0.00     0.100 N  
HETATM    2  C   UNL     1     -12.174  15.570  69.848  1.00  0.00    -0.325 C  
HETATM    3  H1  UNL     1     -11.931  16.454  68.014  1.00  0.00     0.000 HD 
HETATM    4  H2  UNL     1     -12.697  17.501  69.232  1.00  0.00     0.000 HD 
HETATM    5  O   UNL     1     -12.598  15.758  70.986  1.00  0.00    -0.451 OA 
ENDROOT
BRANCH   2   6
HETATM    6  N   UNL     1     -11.502  14.442  69.354  1.00  0.00    -0.273 N  
HETATM    7  C   UNL     1     -10.119  14.518  68.944  1.00  0.00    -0.224 A  
HETATM    8  C   UNL     1      -9.223  15.357  69.633  1.00  0.00    -0.188 A  
HETATM    9  C   UNL     1      -7.871  15.422  69.291  1.00  0.00    -0.225 A  
HETATM   10  C   UNL     1      -7.381  14.659  68.240  1.00  0.00    -0.117 A  
HETATM   11  C   UNL     1      -8.250  13.839  67.526  1.00  0.00    -0.194 A  
HETATM   12  C   UNL     1      -9.614  13.755  67.868  1.00  0.00    -0.222 A  
HETATM   13  C   UNL     1     -10.450  12.929  66.992  1.00  0.00    -0.244 C  
HETATM   14  C   UNL     1     -11.453  12.150  67.413  1.00  0.00    -0.415 C  
HETATM   15  C   UNL     1     -11.851  12.018  68.816  1.00  0.00    -0.358 A  
HETATM   16  C   UNL     1     -12.254  10.743  69.248  1.00  0.00    -0.185 A  
HETATM   17  C   UNL     1     -12.709  10.534  70.550  1.00  0.00    -0.385 A  
HETATM   18  C   UNL     1     -12.783  11.601  71.432  1.00  0.00    -0.445 A  
HETATM   19  C   UNL     1     -12.399  12.875  71.014  1.00  0.00    -0.318 A  
HETATM   20  C   UNL     1     -11.926  13.108  69.705  1.00  0.00    -0.314 A  
ENDBRANCH   2   6
TORSDOF 1
ENDMDL
MODEL       72
REMARK 921   NORMALIZED FREE ENERGY PREDICTED BY IDOCK:   -4.27 KCAL/MOL
REMARK 922        TOTAL FREE ENERGY PREDICTED BY IDOCK:   -4.43 KCAL/MOL
REMARK 923 INTER-LIGAND FREE ENERGY PREDICTED BY IDOCK:   -4.49 KCAL/MOL
REMARK 924 INTRA-LIGAND FREE ENERGY PREDICTED BY IDOCK:    0.06 KCAL/MOL
REMARK 927      BINDING AFFINITY PREDICTED BY RF-SCORE:    0.00 PKD
ROOT
HETATM    1  N   UNL     1     -12.311   7.378  70.481  1.00  0.00    -0.554 N  
HETATM    2  C   UNL     1     -11.359   8.311  70.809  1.00  0.00    -0.266 C  
HETATM    3  H1  UNL     1     -12.296   7.012  69.529  1.00  0.00     0.000 HD 
HETATM    4  H2  UNL     1     -13.003   7.064  71.160  1.00  0.00     0.000 HD 
HETATM    5  O   UNL     1     -11.377   8.752  71.955  1.00  0.00    -0.339 OA 
ENDROOT
BRANCH   2   6
HETATM    6  N   UNL     1     -10.535   8.709  69.745  1.00  0.00    -0.217 N  
HETATM    7  C   UNL     1     -10.840   9.883  68.964  1.00  0.00    -0.215 A  
HETATM    8  C   UNL     1     -11.420  11.009  69.578  1.00  0.00    -0.370 A  
HETATM    9  C   UNL     1     -11.689  12.178  68.861  1.00  0.00    -0.381 A  
HETATM   10  C   UNL     1     -11.396  12.245  67.507  1.00  0.00    -0.388 A  
HETATM   11  C   UNL     1     -10.844  11.138  66.869  1.00  0.00    -0.333 A  
HETATM   12  C   UNL     1     -10.557   9.958  67.581  1.00  0.00    -0.325 A  
HETATM   13  C   UNL     1     -10.061   8.829  66.790  1.00  0.00    -0.359 C  
HETATM   14  C   UNL     1      -9.122   7.969  67.200  1.00  0.00    -0.159 C  
HETATM   15  C   UNL     1      -8.461   8.042  68.504  1.00  0.00    -0.128 A  
HETATM   16  C   UNL     1      -7.094   7.717  68.545  1.00  0.00    -0.081 A  
HETATM   17  C   UNL     1      -6.394   7.699  69.752  1.00  0.00    -0.031 A  
HETATM   18  C   UNL     1      -7.057   7.987  70.935  1.00  0.00    -0.049 A  
HETATM   19  C   UNL     1      -8.416   8.299  70.911  1.00  0.00    -0.144 A  
HETATM   20  C   UNL     1      -9.141   8.334  69.702  1.00  0.00    -0.154 A  
ENDBRANCH   2   6
TORSDOF 1
ENDMDL
MODEL       73
REMARK 921   NORMALIZED FREE ENERGY PREDICTED BY IDOCK:   -4.26 KCAL/MOL
REMARK 922        TOTAL FREE ENERGY PREDICTED BY IDOCK:   -4.42 KCAL/MOL
REMARK 923 INTER-LIGAND FREE ENERGY PREDICTED BY IDOCK:   -4.86 KCAL/MOL
REMARK 924 INTRA-LIGAND FREE ENERGY PREDICTED BY IDOCK:    0.44 KCAL/MOL
REMARK 927      BINDING AFFINITY PREDICTED BY RF-SCORE:    0.00 PKD
ROOT
HETATM    1  N   UNL     1      -7.738  12.633  67.770  1.00  0.00    -0.131 N  
HETATM    2  C   UNL     1      -8.855  12.145  67.140  1.00  0.00    -0.191 C  
HETATM    3  H1  UNL     1      -7.722  13.629  67.987  1.00  0.00     0.000 HD 
HETATM    4  H2  UNL     1      -6.957  12.023  68.013  1.00  0.00     0.000 HD 
HETATM    5  O   UNL     1      -8.874  10.945  66.880  1.00  0.00    -0.139 OA 
ENDROOT
BRANCH   2   6
HETATM    6  N   UNL     1      -9.804  13.118  66.791  1.00  0.00    -0.245 N  
HETATM    7  C   UNL     1     -10.623  12.971  65.611  1.00  0.00    -0.282 A  
HETATM    8  C   UNL     1     -11.062  11.695  65.210  1.00  0.00    -0.298 A  
HETATM    9  C   UNL     1     -11.890  11.521  64.099  1.00  0.00    -0.134 A  
HETATM   10  C   UNL     1     -12.291  12.620  63.351  1.00  0.00    -0.553 A  
HETATM   11  C   UNL     1     -11.851  13.890  63.710  1.00  0.00    -0.234 A  
HETATM   12  C   UNL     1     -11.026  14.081  64.835  1.00  0.00    -0.398 A  
HETATM   13  C   UNL     1     -10.554  15.449  65.066  1.00  0.00    -0.445 C  
HETATM   14  C   UNL     1     -10.417  16.012  66.272  1.00  0.00    -0.326 C  
HETATM   15  C   UNL     1     -10.723  15.330  67.531  1.00  0.00    -0.285 A  
HETATM   16  C   UNL     1     -11.311  16.102  68.548  1.00  0.00    -0.359 A  
HETATM   17  C   UNL     1     -11.582  15.554  69.802  1.00  0.00    -0.345 A  
HETATM   18  C   UNL     1     -11.251  14.233  70.061  1.00  0.00    -0.154 A  
HETATM   19  C   UNL     1     -10.655  13.459  69.066  1.00  0.00    -0.106 A  
HETATM   20  C   UNL     1     -10.381  13.988  67.787  1.00  0.00    -0.236 A  
ENDBRANCH   2   6
TORSDOF 1
ENDMDL
MODEL       74
REMARK 921   NORMALIZED FREE ENERGY PREDICTED BY IDOCK:   -4.26 KCAL/MOL
REMARK 922        TOTAL FREE ENERGY PREDICTED BY IDOCK:   -4.42 KCAL/MOL
REMARK 923 INTER-LIGAND FREE ENERGY PREDICTED BY IDOCK:   -4.48 KCAL/MOL
REMARK 924 INTRA-LIGAND FREE ENERGY PREDICTED BY IDOCK:    0.06 KCAL/MOL
REMARK 927      BINDING AFFINITY PREDICTED BY RF-SCORE:    0.00 PKD
ROOT
HETATM    1  N   UNL     1     -10.234  10.482  65.809  1.00  0.00    -0.257 N  
HETATM    2  C   UNL     1      -9.487  10.421  66.958  1.00  0.00    -0.163 C  
HETATM    3  H1  UNL     1     -10.938  11.218  65.748  1.00  0.00     0.000 HD 
HETATM    4  H2  UNL     1     -10.092   9.819  65.047  1.00  0.00     0.000 HD 
HETATM    5  O   UNL     1      -8.640   9.535  67.030  1.00  0.00    -0.126 OA 
ENDROOT
BRANCH   2   6
HETATM    6  N   UNL     1      -9.859  11.341  67.950  1.00  0.00    -0.172 N  
HETATM    7  C   UNL     1     -10.634  10.929  69.096  1.00  0.00    -0.220 A  
HETATM    8  C   UNL     1     -10.437   9.655  69.661  1.00  0.00    -0.246 A  
HETATM    9  C   UNL     1     -11.139   9.240  70.796  1.00  0.00    -0.349 A  
HETATM   10  C   UNL     1     -12.068  10.085  71.387  1.00  0.00    -0.498 A  
HETATM   11  C   UNL     1     -12.300  11.341  70.834  1.00  0.00    -0.490 A  
HETATM   12  C   UNL     1     -11.591  11.777  69.698  1.00  0.00    -0.393 A  
HETATM   13  C   UNL     1     -11.981  13.080  69.152  1.00  0.00    -0.320 C  
HETATM   14  C   UNL     1     -11.129  13.974  68.639  1.00  0.00    -0.286 C  
HETATM   15  C   UNL     1      -9.682  13.768  68.553  1.00  0.00    -0.193 A  
HETATM   16  C   UNL     1      -8.863  14.887  68.784  1.00  0.00    -0.183 A  
HETATM   17  C   UNL     1      -7.476  14.801  68.664  1.00  0.00    -0.126 A  
HETATM   18  C   UNL     1      -6.891  13.600  68.294  1.00  0.00    -0.108 A  
HETATM   19  C   UNL     1      -7.691  12.485  68.049  1.00  0.00    -0.140 A  
HETATM   20  C   UNL     1      -9.095  12.545  68.174  1.00  0.00    -0.204 A  
ENDBRANCH   2   6
TORSDOF 1
ENDMDL
MODEL       75
REMARK 921   NORMALIZED FREE ENERGY PREDICTED BY IDOCK:   -4.24 KCAL/MOL
REMARK 922        TOTAL FREE ENERGY PREDICTED BY IDOCK:   -4.40 KCAL/MOL
REMARK 923 INTER-LIGAND FREE ENERGY PREDICTED BY IDOCK:   -4.48 KCAL/MOL
REMARK 924 INTRA-LIGAND FREE ENERGY PREDICTED BY IDOCK:    0.08 KCAL/MOL
REMARK 927      BINDING AFFINITY PREDICTED BY RF-SCORE:    0.00 PKD
ROOT
HETATM    1  N   UNL     1      -6.136  11.703  67.130  1.00  0.00    -0.114 N  
HETATM    2  C   UNL     1      -7.285  12.307  67.574  1.00  0.00    -0.139 C  
HETATM    3  H1  UNL     1      -6.237  10.954  66.446  1.00  0.00     0.000 HD 
HETATM    4  H2  UNL     1      -5.219  11.992  67.470  1.00  0.00     0.000 HD 
HETATM    5  O   UNL     1      -7.162  13.209  68.399  1.00  0.00    -0.091 OA 
ENDROOT
BRANCH   2   6
HETATM    6  N   UNL     1      -8.473  11.741  67.086  1.00  0.00    -0.163 N  
HETATM    7  C   UNL     1      -9.116  10.647  67.772  1.00  0.00    -0.143 A  
HETATM    8  C   UNL     1      -9.087  10.581  69.179  1.00  0.00    -0.177 A  
HETATM    9  C   UNL     1      -9.735   9.559  69.877  1.00  0.00    -0.252 A  
HETATM   10  C   UNL     1     -10.418   8.568  69.186  1.00  0.00    -0.217 A  
HETATM   11  C   UNL     1     -10.442   8.596  67.795  1.00  0.00    -0.287 A  
HETATM   12  C   UNL     1      -9.803   9.626  67.078  1.00  0.00    -0.249 A  
HETATM   13  C   UNL     1      -9.819   9.504  65.618  1.00  0.00    -0.343 C  
HETATM   14  C   UNL     1      -9.956  10.531  64.771  1.00  0.00    -0.412 C  
HETATM   15  C   UNL     1     -10.109  11.924  65.195  1.00  0.00    -0.293 A  
HETATM   16  C   UNL     1     -10.986  12.727  64.444  1.00  0.00    -0.393 A  
HETATM   17  C   UNL     1     -11.149  14.081  64.736  1.00  0.00    -0.391 A  
HETATM   18  C   UNL     1     -10.425  14.654  65.769  1.00  0.00    -0.338 A  
HETATM   19  C   UNL     1      -9.542  13.873  66.515  1.00  0.00    -0.299 A  
HETATM   20  C   UNL     1      -9.368  12.500  66.246  1.00  0.00    -0.177 A  
ENDBRANCH   2   6
TORSDOF 1
ENDMDL
MODEL       76
REMARK 921   NORMALIZED FREE ENERGY PREDICTED BY IDOCK:   -4.23 KCAL/MOL
REMARK 922        TOTAL FREE ENERGY PREDICTED BY IDOCK:   -4.39 KCAL/MOL
REMARK 923 INTER-LIGAND FREE ENERGY PREDICTED BY IDOCK:   -4.45 KCAL/MOL
REMARK 924 INTRA-LIGAND FREE ENERGY PREDICTED BY IDOCK:    0.06 KCAL/MOL
REMARK 927      BINDING AFFINITY PREDICTED BY RF-SCORE:    0.00 PKD
ROOT
HETATM    1  N   UNL     1     -13.070  10.346  69.955  1.00  0.00    -0.435 N  
HETATM    2  C   UNL     1     -11.792  10.823  70.097  1.00  0.00    -0.343 C  
HETATM    3  H1  UNL     1     -13.585  10.632  69.123  1.00  0.00     0.000 HD 
HETATM    4  H2  UNL     1     -13.488   9.731  70.653  1.00  0.00     0.000 HD 
HETATM    5  O   UNL     1     -11.172  10.478  71.100  1.00  0.00    -0.103 OA 
ENDROOT
BRANCH   2   6
HETATM    6  N   UNL     1     -11.389  11.728  69.104  1.00  0.00    -0.258 N  
HETATM    7  C   UNL     1     -11.508  13.154  69.301  1.00  0.00    -0.291 A  
HETATM    8  C   UNL     1     -11.306  13.709  70.579  1.00  0.00     0.310 A  
HETATM    9  C   UNL     1     -11.371  15.087  70.797  1.00  0.00    -0.307 A  
HETATM   10  C   UNL     1     -11.654  15.946  69.744  1.00  0.00    -0.340 A  
HETATM   11  C   UNL     1     -11.882  15.421  68.475  1.00  0.00    -0.293 A  
HETATM   12  C   UNL     1     -11.808  14.035  68.239  1.00  0.00    -0.406 A  
HETATM   13  C   UNL     1     -12.153  13.590  66.886  1.00  0.00    -0.417 C  
HETATM   14  C   UNL     1     -11.539  12.597  66.233  1.00  0.00    -0.440 C  
HETATM   15  C   UNL     1     -10.432  11.816  66.788  1.00  0.00    -0.260 A  
HETATM   16  C   UNL     1      -9.408  11.441  65.901  1.00  0.00    -0.247 A  
HETATM   17  C   UNL     1      -8.344  10.645  66.326  1.00  0.00    -0.155 A  
HETATM   18  C   UNL     1      -8.300  10.198  67.638  1.00  0.00    -0.114 A  
HETATM   19  C   UNL     1      -9.316  10.552  68.525  1.00  0.00    -0.168 A  
HETATM   20  C   UNL     1     -10.396  11.364  68.122  1.00  0.00    -0.188 A  
ENDBRANCH   2   6
TORSDOF 1
ENDMDL
MODEL       77
REMARK 921   NORMALIZED FREE ENERGY PREDICTED BY IDOCK:   -4.22 KCAL/MOL
REMARK 922        TOTAL FREE ENERGY PREDICTED BY IDOCK:   -4.38 KCAL/MOL
REMARK 923 INTER-LIGAND FREE ENERGY PREDICTED BY IDOCK:   -4.45 KCAL/MOL
REMARK 924 INTRA-LIGAND FREE ENERGY PREDICTED BY IDOCK:    0.08 KCAL/MOL
REMARK 927      BINDING AFFINITY PREDICTED BY RF-SCORE:    0.00 PKD
ROOT
HETATM    1  N   UNL     1     -13.309   8.818  70.938  1.00  0.00    -0.469 N  
HETATM    2  C   UNL     1     -12.199   9.612  70.802  1.00  0.00    -0.230 C  
HETATM    3  H1  UNL     1     -13.246   7.864  70.583  1.00  0.00     0.000 HD 
HETATM    4  H2  UNL     1     -14.161   9.167  71.376  1.00  0.00     0.000 HD 
HETATM    5  O   UNL     1     -12.275  10.761  71.230  1.00  0.00    -0.352 OA 
ENDROOT
BRANCH   2   6
HETATM    6  N   UNL     1     -11.136   9.023  70.101  1.00  0.00    -0.232 N  
HETATM    7  C   UNL     1     -10.752   9.496  68.792  1.00  0.00    -0.190 A  
HETATM    8  C   UNL     1     -10.839  10.868  68.484  1.00  0.00    -0.262 A  
HETATM    9  C   UNL     1     -10.435  11.366  67.244  1.00  0.00    -0.241 A  
HETATM   10  C   UNL     1      -9.947  10.504  66.272  1.00  0.00    -0.276 A  
HETATM   11  C   UNL     1      -9.874   9.140  66.541  1.00  0.00    -0.333 A  
HETATM   12  C   UNL     1     -10.265   8.625  67.792  1.00  0.00    -0.282 A  
HETATM   13  C   UNL     1     -10.228   7.167  67.932  1.00  0.00    -0.231 C  
HETATM   14  C   UNL     1      -9.858   6.519  69.042  1.00  0.00    -0.153 C  
HETATM   15  C   UNL     1      -9.437   7.187  70.275  1.00  0.00    -0.162 A  
HETATM   16  C   UNL     1      -8.392   6.589  71.000  1.00  0.00    -0.126 A  
HETATM   17  C   UNL     1      -7.965   7.119  72.218  1.00  0.00    -0.101 A  
HETATM   18  C   UNL     1      -8.590   8.244  72.735  1.00  0.00    -0.270 A  
HETATM   19  C   UNL     1      -9.636   8.840  72.033  1.00  0.00    -0.356 A  
HETATM   20  C   UNL     1     -10.078   8.328  70.795  1.00  0.00    -0.190 A  
ENDBRANCH   2   6
TORSDOF 1
ENDMDL
MODEL       78
REMARK 921   NORMALIZED FREE ENERGY PREDICTED BY IDOCK:   -4.20 KCAL/MOL
REMARK 922        TOTAL FREE ENERGY PREDICTED BY IDOCK:   -4.36 KCAL/MOL
REMARK 923 INTER-LIGAND FREE ENERGY PREDICTED BY IDOCK:   -4.42 KCAL/MOL
REMARK 924 INTRA-LIGAND FREE ENERGY PREDICTED BY IDOCK:    0.06 KCAL/MOL
REMARK 927      BINDING AFFINITY PREDICTED BY RF-SCORE:    0.00 PKD
ROOT
HETATM    1  N   UNL     1      -9.236   9.708  65.954  1.00  0.00    -0.179 N  
HETATM    2  C   UNL     1      -8.544  10.386  66.925  1.00  0.00    -0.127 C  
HETATM    3  H1  UNL     1     -10.253   9.773  65.974  1.00  0.00     0.000 HD 
HETATM    4  H2  UNL     1      -8.753   9.162  65.241  1.00  0.00     0.000 HD 
HETATM    5  O   UNL     1      -7.319  10.308  66.900  1.00  0.00    -0.093 OA 
ENDROOT
BRANCH   2   6
HETATM    6  N   UNL     1      -9.348  11.018  67.887  1.00  0.00    -0.155 N  
HETATM    7  C   UNL     1      -9.692  10.356  69.123  1.00  0.00    -0.220 A  
HETATM    8  C   UNL     1      -8.765   9.500  69.748  1.00  0.00    -0.204 A  
HETATM    9  C   UNL     1      -9.048   8.877  70.965  1.00  0.00    -0.303 A  
HETATM   10  C   UNL     1     -10.273   9.083  71.583  1.00  0.00    -0.418 A  
HETATM   11  C   UNL     1     -11.218   9.904  70.975  1.00  0.00    -0.435 A  
HETATM   12  C   UNL     1     -10.941  10.548  69.754  1.00  0.00    -0.350 A  
HETATM   13  C   UNL     1     -12.041  11.317  69.164  1.00  0.00    -0.348 C  
HETATM   14  C   UNL     1     -11.894  12.480  68.519  1.00  0.00    -0.341 C  
HETATM   15  C   UNL     1     -10.605  13.144  68.315  1.00  0.00    -0.260 A  
HETATM   16  C   UNL     1     -10.590  14.547  68.399  1.00  0.00    -0.244 A  
HETATM   17  C   UNL     1      -9.422  15.270  68.159  1.00  0.00    -0.203 A  
HETATM   18  C   UNL     1      -8.258  14.600  67.814  1.00  0.00    -0.169 A  
HETATM   19  C   UNL     1      -8.261  13.210  67.715  1.00  0.00    -0.168 A  
HETATM   20  C   UNL     1      -9.427  12.457  67.963  1.00  0.00    -0.208 A  
ENDBRANCH   2   6
TORSDOF 1
ENDMDL
MODEL       79
REMARK 921   NORMALIZED FREE ENERGY PREDICTED BY IDOCK:   -4.19 KCAL/MOL
REMARK 922        TOTAL FREE ENERGY PREDICTED BY IDOCK:   -4.34 KCAL/MOL
REMARK 923 INTER-LIGAND FREE ENERGY PREDICTED BY IDOCK:   -4.94 KCAL/MOL
REMARK 924 INTRA-LIGAND FREE ENERGY PREDICTED BY IDOCK:    0.60 KCAL/MOL
REMARK 927      BINDING AFFINITY PREDICTED BY RF-SCORE:    0.00 PKD
ROOT
HETATM    1  N   UNL     1      -8.013   9.177  68.598  1.00  0.00    -0.100 N  
HETATM    2  C   UNL     1      -8.193   9.234  69.957  1.00  0.00    -0.154 C  
HETATM    3  H1  UNL     1      -8.729   8.699  68.052  1.00  0.00     0.000 HD 
HETATM    4  H2  UNL     1      -7.196   9.596  68.153  1.00  0.00     0.000 HD 
HETATM    5  O   UNL     1      -7.330   9.809  70.615  1.00  0.00    -0.231 OA 
ENDROOT
BRANCH   2   6
HETATM    6  N   UNL     1      -9.315   8.536  70.430  1.00  0.00    -0.160 N  
HETATM    7  C   UNL     1     -10.558   9.218  70.701  1.00  0.00    -0.262 A  
HETATM    8  C   UNL     1     -10.961  10.299  69.894  1.00  0.00    -0.358 A  
HETATM    9  C   UNL     1     -12.177  10.954  70.100  1.00  0.00    -0.423 A  
HETATM   10  C   UNL     1     -13.017  10.553  71.130  1.00  0.00    -0.506 A  
HETATM   11  C   UNL     1     -12.633   9.503  71.958  1.00  0.00    -0.456 A  
HETATM   12  C   UNL     1     -11.415   8.826  71.754  1.00  0.00    -0.413 A  
HETATM   13  C   UNL     1     -11.073   7.797  72.740  1.00  0.00    -0.457 C  
HETATM   14  C   UNL     1     -10.471   6.638  72.451  1.00  0.00    -0.232 C  
HETATM   15  C   UNL     1     -10.070   6.241  71.099  1.00  0.00    -0.218 A  
HETATM   16  C   UNL     1     -10.219   4.884  70.763  1.00  0.00    -0.276 A  
HETATM   17  C   UNL     1      -9.807   4.402  69.520  1.00  0.00    -0.258 A  
HETATM   18  C   UNL     1      -9.223   5.266  68.606  1.00  0.00    -0.143 A  
HETATM   19  C   UNL     1      -9.058   6.611  68.932  1.00  0.00    -0.132 A  
HETATM   20  C   UNL     1      -9.476   7.124  70.177  1.00  0.00    -0.161 A  
ENDBRANCH   2   6
TORSDOF 1
ENDMDL
MODEL       80
REMARK 921   NORMALIZED FREE ENERGY PREDICTED BY IDOCK:   -4.18 KCAL/MOL
REMARK 922        TOTAL FREE ENERGY PREDICTED BY IDOCK:   -4.34 KCAL/MOL
REMARK 923 INTER-LIGAND FREE ENERGY PREDICTED BY IDOCK:   -4.43 KCAL/MOL
REMARK 924 INTRA-LIGAND FREE ENERGY PREDICTED BY IDOCK:    0.09 KCAL/MOL
REMARK 927      BINDING AFFINITY PREDICTED BY RF-SCORE:    0.00 PKD
ROOT
HETATM    1  N   UNL     1      -8.517   5.507  71.010  1.00  0.00    -0.123 N  
HETATM    2  C   UNL     1      -9.790   5.597  70.507  1.00  0.00    -0.191 C  
HETATM    3  H1  UNL     1      -7.990   6.375  71.103  1.00  0.00     0.000 HD 
HETATM    4  H2  UNL     1      -8.114   4.609  71.279  1.00  0.00     0.000 HD 
HETATM    5  O   UNL     1     -10.424   4.551  70.394  1.00  0.00    -0.071 OA 
ENDROOT
BRANCH   2   6
HETATM    6  N   UNL     1     -10.171   6.884  70.098  1.00  0.00    -0.190 N  
HETATM    7  C   UNL     1      -9.837   7.379  68.784  1.00  0.00    -0.164 A  
HETATM    8  C   UNL     1      -9.821   6.502  67.682  1.00  0.00    -0.146 A  
HETATM    9  C   UNL     1      -9.544   6.955  66.390  1.00  0.00    -0.152 A  
HETATM   10  C   UNL     1      -9.262   8.296  66.168  1.00  0.00    -0.250 A  
HETATM   11  C   UNL     1      -9.247   9.180  67.243  1.00  0.00    -0.157 A  
HETATM   12  C   UNL     1      -9.536   8.739  68.549  1.00  0.00    -0.158 A  
HETATM   13  C   UNL     1      -9.405   9.739  69.613  1.00  0.00    -0.237 C  
HETATM   14  C   UNL     1     -10.217   9.832  70.672  1.00  0.00    -0.290 C  
HETATM   15  C   UNL     1     -11.353   8.940  70.911  1.00  0.00    -0.336 A  
HETATM   16  C   UNL     1     -12.510   9.515  71.466  1.00  0.00    -0.463 A  
HETATM   17  C   UNL     1     -13.620   8.734  71.785  1.00  0.00    -0.453 A  
HETATM   18  C   UNL     1     -13.581   7.364  71.571  1.00  0.00    -0.454 A  
HETATM   19  C   UNL     1     -12.436   6.778  71.033  1.00  0.00    -0.318 A  
HETATM   20  C   UNL     1     -11.305   7.550  70.693  1.00  0.00    -0.281 A  
ENDBRANCH   2   6
TORSDOF 1
ENDMDL
MODEL       81
REMARK 921   NORMALIZED FREE ENERGY PREDICTED BY IDOCK:   -4.13 KCAL/MOL
REMARK 922        TOTAL FREE ENERGY PREDICTED BY IDOCK:   -4.28 KCAL/MOL
REMARK 923 INTER-LIGAND FREE ENERGY PREDICTED BY IDOCK:   -4.83 KCAL/MOL
REMARK 924 INTRA-LIGAND FREE ENERGY PREDICTED BY IDOCK:    0.55 KCAL/MOL
REMARK 927      BINDING AFFINITY PREDICTED BY RF-SCORE:    0.00 PKD
ROOT
HETATM    1  N   UNL     1     -12.225  14.188  65.015  1.00  0.00    -0.421 N  
HETATM    2  C   UNL     1     -10.979  13.622  64.916  1.00  0.00    -0.367 C  
HETATM    3  H1  UNL     1     -12.457  14.653  65.893  1.00  0.00     0.000 HD 
HETATM    4  H2  UNL     1     -12.891  14.145  64.244  1.00  0.00     0.000 HD 
HETATM    5  O   UNL     1     -10.699  13.062  63.859  1.00  0.00    -0.392 OA 
ENDROOT
BRANCH   2   6
HETATM    6  N   UNL     1     -10.210  13.683  66.088  1.00  0.00    -0.297 N  
HETATM    7  C   UNL     1      -9.841  14.950  66.673  1.00  0.00    -0.260 A  
HETATM    8  C   UNL     1     -10.731  16.040  66.617  1.00  0.00    -0.247 A  
HETATM    9  C   UNL     1     -10.425  17.267  67.209  1.00  0.00    -0.319 A  
HETATM   10  C   UNL     1      -9.213  17.441  67.864  1.00  0.00    -0.256 A  
HETATM   11  C   UNL     1      -8.305  16.388  67.914  1.00  0.00    -0.174 A  
HETATM   12  C   UNL     1      -8.605  15.142  67.331  1.00  0.00    -0.201 A  
HETATM   13  C   UNL     1      -7.540  14.136  67.368  1.00  0.00    -0.179 C  
HETATM   14  C   UNL     1      -7.737  12.827  67.562  1.00  0.00    -0.168 C  
HETATM   15  C   UNL     1      -9.054  12.221  67.765  1.00  0.00    -0.191 A  
HETATM   16  C   UNL     1      -9.134  11.162  68.686  1.00  0.00    -0.166 A  
HETATM   17  C   UNL     1     -10.334  10.483  68.900  1.00  0.00    -0.226 A  
HETATM   18  C   UNL     1     -11.464  10.842  68.181  1.00  0.00    -0.346 A  
HETATM   19  C   UNL     1     -11.396  11.881  67.254  1.00  0.00    -0.393 A  
HETATM   20  C   UNL     1     -10.197  12.589  67.029  1.00  0.00    -0.221 A  
ENDBRANCH   2   6
TORSDOF 1
ENDMDL
MODEL       82
REMARK 921   NORMALIZED FREE ENERGY PREDICTED BY IDOCK:   -4.11 KCAL/MOL
REMARK 922        TOTAL FREE ENERGY PREDICTED BY IDOCK:   -4.27 KCAL/MOL
REMARK 923 INTER-LIGAND FREE ENERGY PREDICTED BY IDOCK:   -4.33 KCAL/MOL
REMARK 924 INTRA-LIGAND FREE ENERGY PREDICTED BY IDOCK:    0.06 KCAL/MOL
REMARK 927      BINDING AFFINITY PREDICTED BY RF-SCORE:    0.00 PKD
ROOT
HETATM    1  N   UNL     1     -13.232   6.690  71.989  1.00  0.00    -0.489 N  
HETATM    2  C   UNL     1     -12.254   7.345  71.284  1.00  0.00    -0.341 C  
HETATM    3  H1  UNL     1     -12.998   5.774  72.371  1.00  0.00     0.000 HD 
HETATM    4  H2  UNL     1     -14.155   7.103  72.125  1.00  0.00     0.000 HD 
HETATM    5  O   UNL     1     -12.537   8.449  70.824  1.00  0.00    -0.026 OA 
ENDROOT
BRANCH   2   6
HETATM    6  N   UNL     1     -11.070   6.614  71.104  1.00  0.00    -0.266 N  
HETATM    7  C   UNL     1     -10.740   6.032  69.825  1.00  0.00    -0.330 A  
HETATM    8  C   UNL     1     -11.087   6.699  68.635  1.00  0.00    -0.288 A  
HETATM    9  C   UNL     1     -10.745   6.186  67.381  1.00  0.00    -0.403 A  
HETATM   10  C   UNL     1     -10.059   4.984  67.285  1.00  0.00    -0.226 A  
HETATM   11  C   UNL     1      -9.725   4.291  68.445  1.00  0.00    -0.165 A  
HETATM   12  C   UNL     1     -10.052   4.802  69.715  1.00  0.00    -0.289 A  
HETATM   13  C   UNL     1      -9.730   3.946  70.860  1.00  0.00    -0.253 C  
HETATM   14  C   UNL     1      -9.279   4.391  72.039  1.00  0.00    -0.169 C  
HETATM   15  C   UNL     1      -9.047   5.805  72.343  1.00  0.00    -0.142 A  
HETATM   16  C   UNL     1      -7.931   6.110  73.142  1.00  0.00    -0.107 A  
HETATM   17  C   UNL     1      -7.664   7.421  73.535  1.00  0.00    -0.124 A  
HETATM   18  C   UNL     1      -8.520   8.442  73.149  1.00  0.00    -0.201 A  
HETATM   19  C   UNL     1      -9.637   8.152  72.368  1.00  0.00    -0.335 A  
HETATM   20  C   UNL     1      -9.922   6.835  71.950  1.00  0.00    -0.176 A  
ENDBRANCH   2   6
TORSDOF 1
ENDMDL
MODEL       83
REMARK 921   NORMALIZED FREE ENERGY PREDICTED BY IDOCK:   -4.10 KCAL/MOL
REMARK 922        TOTAL FREE ENERGY PREDICTED BY IDOCK:   -4.25 KCAL/MOL
REMARK 923 INTER-LIGAND FREE ENERGY PREDICTED BY IDOCK:   -4.32 KCAL/MOL
REMARK 924 INTRA-LIGAND FREE ENERGY PREDICTED BY IDOCK:    0.07 KCAL/MOL
REMARK 927      BINDING AFFINITY PREDICTED BY RF-SCORE:    0.00 PKD
ROOT
HETATM    1  N   UNL     1     -10.934   6.257  67.416  1.00  0.00    -0.427 N  
HETATM    2  C   UNL     1     -10.023   7.203  67.022  1.00  0.00    -0.217 C  
HETATM    3  H1  UNL     1     -11.507   6.472  68.232  1.00  0.00     0.000 HD 
HETATM    4  H2  UNL     1     -11.034   5.374  66.915  1.00  0.00     0.000 HD 
HETATM    5  O   UNL     1      -9.333   6.943  66.039  1.00  0.00    -0.104 OA 
ENDROOT
BRANCH   2   6
HETATM    6  N   UNL     1      -9.939   8.324  67.862  1.00  0.00    -0.174 N  
HETATM    7  C   UNL     1      -8.997   8.368  68.955  1.00  0.00    -0.146 A  
HETATM    8  C   UNL     1      -7.733   7.761  68.823  1.00  0.00    -0.113 A  
HETATM    9  C   UNL     1      -6.782   7.822  69.843  1.00  0.00    -0.042 A  
HETATM   10  C   UNL     1      -7.075   8.479  71.030  1.00  0.00    -0.068 A  
HETATM   11  C   UNL     1      -8.325   9.067  71.196  1.00  0.00    -0.212 A  
HETATM   12  C   UNL     1      -9.290   9.024  70.171  1.00  0.00    -0.213 A  
HETATM   13  C   UNL     1     -10.600   9.599  70.491  1.00  0.00    -0.369 C  
HETATM   14  C   UNL     1     -11.353  10.295  69.633  1.00  0.00    -0.315 C  
HETATM   15  C   UNL     1     -10.966  10.578  68.249  1.00  0.00    -0.314 A  
HETATM   16  C   UNL     1     -11.312  11.840  67.735  1.00  0.00    -0.358 A  
HETATM   17  C   UNL     1     -11.039  12.177  66.409  1.00  0.00    -0.358 A  
HETATM   18  C   UNL     1     -10.435  11.249  65.575  1.00  0.00    -0.323 A  
HETATM   19  C   UNL     1     -10.098   9.989  66.067  1.00  0.00    -0.318 A  
HETATM   20  C   UNL     1     -10.354   9.629  67.407  1.00  0.00    -0.247 A  
ENDBRANCH   2   6
TORSDOF 1
ENDMDL
MODEL       84
REMARK 921   NORMALIZED FREE ENERGY PREDICTED BY IDOCK:   -4.10 KCAL/MOL
REMARK 922        TOTAL FREE ENERGY PREDICTED BY IDOCK:   -4.25 KCAL/MOL
REMARK 923 INTER-LIGAND FREE ENERGY PREDICTED BY IDOCK:   -5.35 KCAL/MOL
REMARK 924 INTRA-LIGAND FREE ENERGY PREDICTED BY IDOCK:    1.09 KCAL/MOL
REMARK 927      BINDING AFFINITY PREDICTED BY RF-SCORE:    0.00 PKD
ROOT
HETATM    1  N   UNL     1      -8.701   8.738  64.208  1.00  0.00    -0.402 N  
HETATM    2  C   UNL     1      -9.071  10.026  63.916  1.00  0.00    -0.259 C  
HETATM    3  H1  UNL     1      -8.855   8.414  65.162  1.00  0.00     0.000 HD 
HETATM    4  H2  UNL     1      -8.290   8.130  63.500  1.00  0.00     0.000 HD 
HETATM    5  O   UNL     1      -8.886  10.417  62.766  1.00  0.00    -0.186 OA 
ENDROOT
BRANCH   2   6
HETATM    6  N   UNL     1      -9.537  10.767  65.012  1.00  0.00    -0.233 N  
HETATM    7  C   UNL     1     -10.380  11.925  64.827  1.00  0.00    -0.281 A  
HETATM    8  C   UNL     1     -11.325  11.950  63.784  1.00  0.00    -0.532 A  
HETATM    9  C   UNL     1     -12.185  13.036  63.602  1.00  0.00    -0.568 A  
HETATM   10  C   UNL     1     -12.113  14.131  64.451  1.00  0.00    -0.486 A  
HETATM   11  C   UNL     1     -11.171  14.142  65.476  1.00  0.00    -0.317 A  
HETATM   12  C   UNL     1     -10.306  13.050  65.678  1.00  0.00    -0.294 A  
HETATM   13  C   UNL     1      -9.298  13.209  66.730  1.00  0.00    -0.244 C  
HETATM   14  C   UNL     1      -8.900  12.234  67.554  1.00  0.00    -0.182 C  
HETATM   15  C   UNL     1      -9.422  10.867  67.515  1.00  0.00    -0.168 A  
HETATM   16  C   UNL     1      -9.601  10.216  68.748  1.00  0.00    -0.170 A  
HETATM   17  C   UNL     1     -10.036   8.892  68.807  1.00  0.00    -0.195 A  
HETATM   18  C   UNL     1     -10.279   8.196  67.633  1.00  0.00    -0.296 A  
HETATM   19  C   UNL     1     -10.094   8.824  66.402  1.00  0.00    -0.313 A  
HETATM   20  C   UNL     1      -9.665  10.165  66.318  1.00  0.00    -0.218 A  
ENDBRANCH   2   6
TORSDOF 1
ENDMDL
MODEL       85
REMARK 921   NORMALIZED FREE ENERGY PREDICTED BY IDOCK:   -4.04 KCAL/MOL
REMARK 922        TOTAL FREE ENERGY PREDICTED BY IDOCK:   -4.18 KCAL/MOL
REMARK 923 INTER-LIGAND FREE ENERGY PREDICTED BY IDOCK:   -4.62 KCAL/MOL
REMARK 924 INTRA-LIGAND FREE ENERGY PREDICTED BY IDOCK:    0.43 KCAL/MOL
REMARK 927      BINDING AFFINITY PREDICTED BY RF-SCORE:    0.00 PKD
ROOT
HETATM    1  N   UNL     1      -8.493   8.257  63.871  1.00  0.00    -0.395 N  
HETATM    2  C   UNL     1      -8.991   9.515  63.644  1.00  0.00    -0.173 C  
HETATM    3  H1  UNL     1      -8.419   7.953  64.842  1.00  0.00     0.000 HD 
HETATM    4  H2  UNL     1      -8.210   7.651  63.101  1.00  0.00     0.000 HD 
HETATM    5  O   UNL     1      -9.080   9.881  62.475  1.00  0.00    -0.250 OA 
ENDROOT
BRANCH   2   6
HETATM    6  N   UNL     1      -9.252  10.262  64.803  1.00  0.00    -0.218 N  
HETATM    7  C   UNL     1      -8.217  10.513  65.778  1.00  0.00    -0.160 A  
HETATM    8  C   UNL     1      -6.887  10.710  65.361  1.00  0.00    -0.020 A  
HETATM    9  C   UNL     1      -5.869  10.997  66.272  1.00  0.00    -0.148 A  
HETATM   10  C   UNL     1      -6.152  11.083  67.628  1.00  0.00    -0.048 A  
HETATM   11  C   UNL     1      -7.454  10.869  68.070  1.00  0.00    -0.090 A  
HETATM   12  C   UNL     1      -8.493  10.590  67.162  1.00  0.00    -0.127 A  
HETATM   13  C   UNL     1      -9.804  10.296  67.747  1.00  0.00    -0.195 C  
HETATM   14  C   UNL     1     -10.973  10.687  67.228  1.00  0.00    -0.348 C  
HETATM   15  C   UNL     1     -11.099  11.468  65.995  1.00  0.00    -0.289 A  
HETATM   16  C   UNL     1     -12.107  12.447  65.961  1.00  0.00    -0.327 A  
HETATM   17  C   UNL     1     -12.342  13.198  64.808  1.00  0.00    -0.477 A  
HETATM   18  C   UNL     1     -11.584  12.965  63.671  1.00  0.00    -0.547 A  
HETATM   19  C   UNL     1     -10.589  11.989  63.687  1.00  0.00    -0.503 A  
HETATM   20  C   UNL     1     -10.327  11.225  64.843  1.00  0.00    -0.304 A  
ENDBRANCH   2   6
TORSDOF 1
ENDMDL
MODEL       86
REMARK 921   NORMALIZED FREE ENERGY PREDICTED BY IDOCK:   -4.03 KCAL/MOL
REMARK 922        TOTAL FREE ENERGY PREDICTED BY IDOCK:   -4.18 KCAL/MOL
REMARK 923 INTER-LIGAND FREE ENERGY PREDICTED BY IDOCK:   -4.32 KCAL/MOL
REMARK 924 INTRA-LIGAND FREE ENERGY PREDICTED BY IDOCK:    0.14 KCAL/MOL
REMARK 927      BINDING AFFINITY PREDICTED BY RF-SCORE:    0.00 PKD
ROOT
HETATM    1  N   UNL     1     -13.090   8.820  71.245  1.00  0.00    -0.503 N  
HETATM    2  C   UNL     1     -12.696   7.517  71.419  1.00  0.00    -0.348 C  
HETATM    3  H1  UNL     1     -12.372   9.493  70.978  1.00  0.00     0.000 HD 
HETATM    4  H2  UNL     1     -14.061   9.103  71.377  1.00  0.00     0.000 HD 
HETATM    5  O   UNL     1     -13.562   6.707  71.740  1.00  0.00    -0.198 OA 
ENDROOT
BRANCH   2   6
HETATM    6  N   UNL     1     -11.316   7.299  71.291  1.00  0.00    -0.256 N  
HETATM    7  C   UNL     1     -10.556   6.686  72.354  1.00  0.00    -0.214 A  
HETATM    8  C   UNL     1     -11.137   5.680  73.148  1.00  0.00    -0.315 A  
HETATM    9  C   UNL     1     -10.418   5.036  74.158  1.00  0.00    -0.333 A  
HETATM   10  C   UNL     1      -9.100   5.392  74.408  1.00  0.00    -0.117 A  
HETATM   11  C   UNL     1      -8.508   6.401  73.654  1.00  0.00    -0.127 A  
HETATM   12  C   UNL     1      -9.218   7.050  72.626  1.00  0.00    -0.154 A  
HETATM   13  C   UNL     1      -8.524   8.155  71.958  1.00  0.00    -0.206 C  
HETATM   14  C   UNL     1      -8.605   8.424  70.650  1.00  0.00    -0.150 C  
HETATM   15  C   UNL     1      -9.405   7.643  69.704  1.00  0.00    -0.156 A  
HETATM   16  C   UNL     1      -8.864   7.445  68.422  1.00  0.00    -0.121 A  
HETATM   17  C   UNL     1      -9.580   6.767  67.435  1.00  0.00    -0.158 A  
HETATM   18  C   UNL     1     -10.853   6.294  67.712  1.00  0.00    -0.424 A  
HETATM   19  C   UNL     1     -11.408   6.494  68.976  1.00  0.00    -0.296 A  
HETATM   20  C   UNL     1     -10.699   7.167  69.992  1.00  0.00    -0.248 A  
ENDBRANCH   2   6
TORSDOF 1
ENDMDL
MODEL       87
REMARK 921   NORMALIZED FREE ENERGY PREDICTED BY IDOCK:   -4.01 KCAL/MOL
REMARK 922        TOTAL FREE ENERGY PREDICTED BY IDOCK:   -4.15 KCAL/MOL
REMARK 923 INTER-LIGAND FREE ENERGY PREDICTED BY IDOCK:   -4.67 KCAL/MOL
REMARK 924 INTRA-LIGAND FREE ENERGY PREDICTED BY IDOCK:    0.51 KCAL/MOL
REMARK 927      BINDING AFFINITY PREDICTED BY RF-SCORE:    0.00 PKD
ROOT
HETATM    1  N   UNL     1      -6.955  13.779  67.288  1.00  0.00    -0.287 N  
HETATM    2  C   UNL     1      -7.417  14.359  68.442  1.00  0.00    -0.119 C  
HETATM    3  H1  UNL     1      -7.601  13.728  66.501  1.00  0.00     0.000 HD 
HETATM    4  H2  UNL     1      -6.005  13.414  67.220  1.00  0.00     0.000 HD 
HETATM    5  O   UNL     1      -6.638  14.421  69.390  1.00  0.00    -0.120 OA 
ENDROOT
BRANCH   2   6
HETATM    6  N   UNL     1      -8.769  14.732  68.412  1.00  0.00    -0.162 N  
HETATM    7  C   UNL     1      -9.180  16.010  67.882  1.00  0.00    -0.196 A  
HETATM    8  C   UNL     1      -8.496  16.573  66.788  1.00  0.00    -0.273 A  
HETATM    9  C   UNL     1      -8.892  17.787  66.222  1.00  0.00    -0.201 A  
HETATM   10  C   UNL     1      -9.978  18.476  66.745  1.00  0.00    -0.381 A  
HETATM   11  C   UNL     1     -10.658  17.954  67.841  1.00  0.00    -0.387 A  
HETATM   12  C   UNL     1     -10.276  16.726  68.414  1.00  0.00    -0.296 A  
HETATM   13  C   UNL     1     -11.007  16.318  69.617  1.00  0.00    -0.346 C  
HETATM   14  C   UNL     1     -11.357  15.058  69.903  1.00  0.00    -0.307 C  
HETATM   15  C   UNL     1     -11.053  13.911  69.045  1.00  0.00    -0.302 A  
HETATM   16  C   UNL     1     -12.032  12.907  68.951  1.00  0.00    -0.291 A  
HETATM   17  C   UNL     1     -11.807  11.749  68.207  1.00  0.00    -0.340 A  
HETATM   18  C   UNL     1     -10.593  11.572  67.562  1.00  0.00    -0.243 A  
HETATM   19  C   UNL     1      -9.607  12.554  67.657  1.00  0.00    -0.190 A  
HETATM   20  C   UNL     1      -9.816  13.737  68.394  1.00  0.00    -0.227 A  
ENDBRANCH   2   6
TORSDOF 1
ENDMDL
MODEL       88
REMARK 921   NORMALIZED FREE ENERGY PREDICTED BY IDOCK:   -4.01 KCAL/MOL
REMARK 922        TOTAL FREE ENERGY PREDICTED BY IDOCK:   -4.15 KCAL/MOL
REMARK 923 INTER-LIGAND FREE ENERGY PREDICTED BY IDOCK:   -4.36 KCAL/MOL
REMARK 924 INTRA-LIGAND FREE ENERGY PREDICTED BY IDOCK:    0.21 KCAL/MOL
REMARK 927      BINDING AFFINITY PREDICTED BY RF-SCORE:    0.00 PKD
ROOT
HETATM    1  N   UNL     1     -10.886  11.325  65.811  1.00  0.00    -0.234 N  
HETATM    2  C   UNL     1     -10.715  11.253  67.171  1.00  0.00    -0.253 C  
HETATM    3  H1  UNL     1     -10.698  12.222  65.365  1.00  0.00     0.000 HD 
HETATM    4  H2  UNL     1     -11.189  10.515  65.270  1.00  0.00     0.000 HD 
HETATM    5  O   UNL     1     -10.943  10.172  67.708  1.00  0.00    -0.280 OA 
ENDROOT
BRANCH   2   6
HETATM    6  N   UNL     1     -10.384  12.469  67.787  1.00  0.00    -0.217 N  
HETATM    7  C   UNL     1     -11.100  12.936  68.950  1.00  0.00    -0.255 A  
HETATM    8  C   UNL     1     -11.567  12.015  69.908  1.00  0.00    -0.315 A  
HETATM    9  C   UNL     1     -12.226  12.435  71.066  1.00  0.00    -0.201 A  
HETATM   10  C   UNL     1     -12.447  13.786  71.290  1.00  0.00    -0.428 A  
HETATM   11  C   UNL     1     -12.017  14.716  70.348  1.00  0.00    -0.375 A  
HETATM   12  C   UNL     1     -11.341  14.308  69.182  1.00  0.00    -0.312 A  
HETATM   13  C   UNL     1     -11.014  15.365  68.221  1.00  0.00    -0.288 C  
HETATM   14  C   UNL     1      -9.885  15.417  67.504  1.00  0.00    -0.217 C  
HETATM   15  C   UNL     1      -8.819  14.417  67.586  1.00  0.00    -0.193 A  
HETATM   16  C   UNL     1      -7.496  14.886  67.498  1.00  0.00    -0.224 A  
HETATM   17  C   UNL     1      -6.417  14.002  67.504  1.00  0.00    -0.068 A  
HETATM   18  C   UNL     1      -6.648  12.637  67.580  1.00  0.00    -0.143 A  
HETATM   19  C   UNL     1      -7.955  12.157  67.656  1.00  0.00    -0.157 A  
HETATM   20  C   UNL     1      -9.061  13.032  67.661  1.00  0.00    -0.198 A  
ENDBRANCH   2   6
TORSDOF 1
ENDMDL
MODEL       89
REMARK 921   NORMALIZED FREE ENERGY PREDICTED BY IDOCK:   -3.98 KCAL/MOL
REMARK 922        TOTAL FREE ENERGY PREDICTED BY IDOCK:   -4.13 KCAL/MOL
REMARK 923 INTER-LIGAND FREE ENERGY PREDICTED BY IDOCK:   -4.62 KCAL/MOL
REMARK 924 INTRA-LIGAND FREE ENERGY PREDICTED BY IDOCK:    0.49 KCAL/MOL
REMARK 927      BINDING AFFINITY PREDICTED BY RF-SCORE:    0.00 PKD
ROOT
HETATM    1  N   UNL     1      -9.542   7.514  68.662  1.00  0.00    -0.150 N  
HETATM    2  C   UNL     1     -10.227   8.466  67.949  1.00  0.00    -0.217 C  
HETATM    3  H1  UNL     1      -9.204   7.779  69.587  1.00  0.00     0.000 HD 
HETATM    4  H2  UNL     1      -9.379   6.582  68.283  1.00  0.00     0.000 HD 
HETATM    5  O   UNL     1     -10.634   8.147  66.834  1.00  0.00    -0.329 OA 
ENDROOT
BRANCH   2   6
HETATM    6  N   UNL     1     -10.293   9.726  68.563  1.00  0.00    -0.194 N  
HETATM    7  C   UNL     1     -11.172   9.965  69.682  1.00  0.00    -0.208 A  
HETATM    8  C   UNL     1     -11.402   8.948  70.629  1.00  0.00    -0.299 A  
HETATM    9  C   UNL     1     -12.213   9.159  71.747  1.00  0.00    -0.442 A  
HETATM   10  C   UNL     1     -12.826  10.388  71.940  1.00  0.00    -0.519 A  
HETATM   11  C   UNL     1     -12.636  11.403  71.007  1.00  0.00    -0.487 A  
HETATM   12  C   UNL     1     -11.812  11.209  69.882  1.00  0.00    -0.439 A  
HETATM   13  C   UNL     1     -11.755  12.315  68.922  1.00  0.00    -0.380 C  
HETATM   14  C   UNL     1     -10.655  12.692  68.262  1.00  0.00    -0.250 C  
HETATM   15  C   UNL     1      -9.350  12.044  68.410  1.00  0.00    -0.175 A  
HETATM   16  C   UNL     1      -8.218  12.876  68.380  1.00  0.00    -0.121 A  
HETATM   17  C   UNL     1      -6.931  12.342  68.453  1.00  0.00    -0.082 A  
HETATM   18  C   UNL     1      -6.760  10.969  68.537  1.00  0.00    -0.061 A  
HETATM   19  C   UNL     1      -7.874  10.131  68.555  1.00  0.00    -0.095 A  
HETATM   20  C   UNL     1      -9.185  10.648  68.494  1.00  0.00    -0.170 A  
ENDBRANCH   2   6
TORSDOF 1
ENDMDL
MODEL       90
REMARK 921   NORMALIZED FREE ENERGY PREDICTED BY IDOCK:   -3.97 KCAL/MOL
REMARK 922        TOTAL FREE ENERGY PREDICTED BY IDOCK:   -4.12 KCAL/MOL
REMARK 923 INTER-LIGAND FREE ENERGY PREDICTED BY IDOCK:   -4.65 KCAL/MOL
REMARK 924 INTRA-LIGAND FREE ENERGY PREDICTED BY IDOCK:    0.53 KCAL/MOL
REMARK 927      BINDING AFFINITY PREDICTED BY RF-SCORE:    0.00 PKD
ROOT
HETATM    1  N   UNL     1      -7.691  11.841  69.087  1.00  0.00    -0.344 N  
HETATM    2  C   UNL     1      -8.533  10.820  69.450  1.00  0.00     0.016 C  
HETATM    3  H1  UNL     1      -7.854  12.280  68.181  1.00  0.00     0.000 HD 
HETATM    4  H2  UNL     1      -6.934  12.148  69.698  1.00  0.00     0.000 HD 
HETATM    5  O   UNL     1      -8.337  10.292  70.541  1.00  0.00     0.112 OA 
ENDROOT
BRANCH   2   6
HETATM    6  N   UNL     1      -9.466  10.451  68.469  1.00  0.00    -0.153 N  
HETATM    7  C   UNL     1     -10.011   9.115  68.423  1.00  0.00    -0.181 A  
HETATM    8  C   UNL     1     -10.254   8.410  69.617  1.00  0.00    -0.209 A  
HETATM    9  C   UNL     1     -10.820   7.133  69.611  1.00  0.00    -0.254 A  
HETATM   10  C   UNL     1     -11.145   6.521  68.409  1.00  0.00    -0.340 A  
HETATM   11  C   UNL     1     -10.893   7.186  67.212  1.00  0.00    -0.382 A  
HETATM   12  C   UNL     1     -10.334   8.478  67.204  1.00  0.00    -0.377 A  
HETATM   13  C   UNL     1     -10.032   9.044  65.886  1.00  0.00    -0.169 C  
HETATM   14  C   UNL     1     -10.191  10.331  65.557  1.00  0.00    -0.308 C  
HETATM   15  C   UNL     1     -10.692  11.353  66.477  1.00  0.00    -0.325 A  
HETATM   16  C   UNL     1     -11.538  12.338  65.937  1.00  0.00    -0.450 A  
HETATM   17  C   UNL     1     -12.015  13.387  66.724  1.00  0.00    -0.447 A  
HETATM   18  C   UNL     1     -11.638  13.475  68.055  1.00  0.00    -0.372 A  
HETATM   19  C   UNL     1     -10.790  12.512  68.601  1.00  0.00    -0.280 A  
HETATM   20  C   UNL     1     -10.303  11.437  67.828  1.00  0.00    -0.182 A  
ENDBRANCH   2   6
TORSDOF 1
ENDMDL
MODEL       91
REMARK 921   NORMALIZED FREE ENERGY PREDICTED BY IDOCK:   -3.97 KCAL/MOL
REMARK 922        TOTAL FREE ENERGY PREDICTED BY IDOCK:   -4.11 KCAL/MOL
REMARK 923 INTER-LIGAND FREE ENERGY PREDICTED BY IDOCK:   -4.68 KCAL/MOL
REMARK 924 INTRA-LIGAND FREE ENERGY PREDICTED BY IDOCK:    0.57 KCAL/MOL
REMARK 927      BINDING AFFINITY PREDICTED BY RF-SCORE:    0.00 PKD
ROOT
HETATM    1  N   UNL     1     -11.533   6.732  67.065  1.00  0.00    -0.716 N  
HETATM    2  C   UNL     1     -10.563   6.646  68.031  1.00  0.00    -0.245 C  
HETATM    3  H1  UNL     1     -12.014   7.625  66.965  1.00  0.00     0.000 HD 
HETATM    4  H2  UNL     1     -11.762   5.935  66.471  1.00  0.00     0.000 HD 
HETATM    5  O   UNL     1      -9.983   5.570  68.151  1.00  0.00    -0.136 OA 
ENDROOT
BRANCH   2   6
HETATM    6  N   UNL     1     -10.423   7.794  68.827  1.00  0.00    -0.202 N  
HETATM    7  C   UNL     1      -9.858   7.717  70.153  1.00  0.00    -0.184 A  
HETATM    8  C   UNL     1      -8.823   6.804  70.429  1.00  0.00    -0.152 A  
HETATM    9  C   UNL     1      -8.225   6.733  71.689  1.00  0.00    -0.110 A  
HETATM   10  C   UNL     1      -8.656   7.566  72.712  1.00  0.00    -0.159 A  
HETATM   11  C   UNL     1      -9.695   8.461  72.474  1.00  0.00    -0.359 A  
HETATM   12  C   UNL     1     -10.299   8.552  71.205  1.00  0.00    -0.288 A  
HETATM   13  C   UNL     1     -11.439   9.466  71.095  1.00  0.00    -0.422 C  
HETATM   14  C   UNL     1     -11.698  10.233  70.030  1.00  0.00    -0.330 C  
HETATM   15  C   UNL     1     -10.869  10.261  68.823  1.00  0.00    -0.265 A  
HETATM   16  C   UNL     1     -10.698  11.507  68.195  1.00  0.00    -0.242 A  
HETATM   17  C   UNL     1      -9.977  11.621  67.007  1.00  0.00    -0.226 A  
HETATM   18  C   UNL     1      -9.433  10.488  66.421  1.00  0.00    -0.208 A  
HETATM   19  C   UNL     1      -9.606   9.244  67.026  1.00  0.00    -0.223 A  
HETATM   20  C   UNL     1     -10.322   9.105  68.233  1.00  0.00    -0.214 A  
ENDBRANCH   2   6
TORSDOF 1
ENDMDL
MODEL       92
REMARK 921   NORMALIZED FREE ENERGY PREDICTED BY IDOCK:   -3.97 KCAL/MOL
REMARK 922        TOTAL FREE ENERGY PREDICTED BY IDOCK:   -4.11 KCAL/MOL
REMARK 923 INTER-LIGAND FREE ENERGY PREDICTED BY IDOCK:   -4.20 KCAL/MOL
REMARK 924 INTRA-LIGAND FREE ENERGY PREDICTED BY IDOCK:    0.09 KCAL/MOL
REMARK 927      BINDING AFFINITY PREDICTED BY RF-SCORE:    0.00 PKD
ROOT
HETATM    1  N   UNL     1     -11.863  12.956  66.680  1.00  0.00    -0.392 N  
HETATM    2  C   UNL     1     -11.288  12.698  67.898  1.00  0.00    -0.288 C  
HETATM    3  H1  UNL     1     -11.683  12.291  65.929  1.00  0.00     0.000 HD 
HETATM    4  H2  UNL     1     -12.447  13.779  66.532  1.00  0.00     0.000 HD 
HETATM    5  O   UNL     1     -11.506  13.499  68.803  1.00  0.00    -0.266 OA 
ENDROOT
BRANCH   2   6
HETATM    6  N   UNL     1     -10.440  11.580  67.923  1.00  0.00    -0.179 N  
HETATM    7  C   UNL     1      -9.055  11.685  67.529  1.00  0.00    -0.172 A  
HETATM    8  C   UNL     1      -8.327  12.855  67.814  1.00  0.00    -0.178 A  
HETATM    9  C   UNL     1      -6.975  12.974  67.485  1.00  0.00    -0.155 A  
HETATM   10  C   UNL     1      -6.318  11.929  66.850  1.00  0.00    -0.107 A  
HETATM   11  C   UNL     1      -7.021  10.770  66.535  1.00  0.00    -0.130 A  
HETATM   12  C   UNL     1      -8.381  10.631  66.871  1.00  0.00    -0.125 A  
HETATM   13  C   UNL     1      -9.040   9.405  66.412  1.00  0.00    -0.199 C  
HETATM   14  C   UNL     1      -9.957   8.728  67.112  1.00  0.00    -0.295 C  
HETATM   15  C   UNL     1     -10.429   9.127  68.440  1.00  0.00    -0.241 A  
HETATM   16  C   UNL     1     -10.690   8.096  69.360  1.00  0.00    -0.164 A  
HETATM   17  C   UNL     1     -11.200   8.375  70.628  1.00  0.00    -0.275 A  
HETATM   18  C   UNL     1     -11.475   9.686  70.985  1.00  0.00    -0.444 A  
HETATM   19  C   UNL     1     -11.234  10.717  70.078  1.00  0.00    -0.366 A  
HETATM   20  C   UNL     1     -10.708  10.461  68.795  1.00  0.00    -0.225 A  
ENDBRANCH   2   6
TORSDOF 1
ENDMDL
MODEL       93
REMARK 921   NORMALIZED FREE ENERGY PREDICTED BY IDOCK:   -3.96 KCAL/MOL
REMARK 922        TOTAL FREE ENERGY PREDICTED BY IDOCK:   -4.11 KCAL/MOL
REMARK 923 INTER-LIGAND FREE ENERGY PREDICTED BY IDOCK:   -4.74 KCAL/MOL
REMARK 924 INTRA-LIGAND FREE ENERGY PREDICTED BY IDOCK:    0.64 KCAL/MOL
REMARK 927      BINDING AFFINITY PREDICTED BY RF-SCORE:    0.00 PKD
ROOT
HETATM    1  N   UNL     1     -10.764  17.945  69.110  1.00  0.00    -0.263 N  
HETATM    2  C   UNL     1      -9.988  18.555  68.157  1.00  0.00    -0.361 C  
HETATM    3  H1  UNL     1     -10.566  16.965  69.315  1.00  0.00     0.000 HD 
HETATM    4  H2  UNL     1     -11.506  18.449  69.593  1.00  0.00     0.000 HD 
HETATM    5  O   UNL     1     -10.225  19.735  67.911  1.00  0.00    -0.402 OA 
ENDROOT
BRANCH   2   6
HETATM    6  N   UNL     1      -9.069  17.709  67.517  1.00  0.00    -0.238 N  
HETATM    7  C   UNL     1      -9.459  16.399  67.054  1.00  0.00    -0.230 A  
HETATM    8  C   UNL     1     -10.754  16.186  66.545  1.00  0.00    -0.220 A  
HETATM    9  C   UNL     1     -11.151  14.942  66.049  1.00  0.00    -0.334 A  
HETATM   10  C   UNL     1     -10.265  13.873  66.061  1.00  0.00    -0.317 A  
HETATM   11  C   UNL     1      -8.987  14.049  66.581  1.00  0.00    -0.177 A  
HETATM   12  C   UNL     1      -8.569  15.301  67.074  1.00  0.00    -0.256 A  
HETATM   13  C   UNL     1      -7.234  15.347  67.677  1.00  0.00    -0.206 C  
HETATM   14  C   UNL     1      -6.381  16.369  67.556  1.00  0.00    -0.192 C  
HETATM   15  C   UNL     1      -6.670  17.589  66.800  1.00  0.00    -0.237 A  
HETATM   16  C   UNL     1      -5.606  18.161  66.081  1.00  0.00    -0.212 A  
HETATM   17  C   UNL     1      -5.770  19.356  65.380  1.00  0.00    -0.207 A  
HETATM   18  C   UNL     1      -6.995  20.005  65.405  1.00  0.00    -0.332 A  
HETATM   19  C   UNL     1      -8.056  19.456  66.125  1.00  0.00    -0.323 A  
HETATM   20  C   UNL     1      -7.917  18.243  66.831  1.00  0.00    -0.236 A  
ENDBRANCH   2   6
TORSDOF 1
ENDMDL
MODEL       94
REMARK 921   NORMALIZED FREE ENERGY PREDICTED BY IDOCK:   -3.95 KCAL/MOL
REMARK 922        TOTAL FREE ENERGY PREDICTED BY IDOCK:   -4.09 KCAL/MOL
REMARK 923 INTER-LIGAND FREE ENERGY PREDICTED BY IDOCK:   -4.64 KCAL/MOL
REMARK 924 INTRA-LIGAND FREE ENERGY PREDICTED BY IDOCK:    0.55 KCAL/MOL
REMARK 927      BINDING AFFINITY PREDICTED BY RF-SCORE:    0.00 PKD
ROOT
HETATM    1  N   UNL     1      -8.378  10.378  69.901  1.00  0.00    -0.369 N  
HETATM    2  C   UNL     1      -9.172   9.359  69.438  1.00  0.00    -0.165 C  
HETATM    3  H1  UNL     1      -8.234  10.435  70.909  1.00  0.00     0.000 HD 
HETATM    4  H2  UNL     1      -7.951  11.050  69.264  1.00  0.00     0.000 HD 
HETATM    5  O   UNL     1      -9.345   9.291  68.224  1.00  0.00    -0.134 OA 
ENDROOT
BRANCH   2   6
HETATM    6  N   UNL     1      -9.761   8.571  70.438  1.00  0.00    -0.172 N  
HETATM    7  C   UNL     1      -8.953   7.840  71.385  1.00  0.00    -0.133 A  
HETATM    8  C   UNL     1      -7.739   8.384  71.845  1.00  0.00    -0.157 A  
HETATM    9  C   UNL     1      -6.953   7.724  72.793  1.00  0.00    -0.085 A  
HETATM   10  C   UNL     1      -7.356   6.495  73.296  1.00  0.00    -0.085 A  
HETATM   11  C   UNL     1      -8.540   5.923  72.841  1.00  0.00    -0.121 A  
HETATM   12  C   UNL     1      -9.348   6.583  71.895  1.00  0.00    -0.148 A  
HETATM   13  C   UNL     1     -10.524   5.847  71.423  1.00  0.00    -0.291 C  
HETATM   14  C   UNL     1     -11.711   6.403  71.158  1.00  0.00    -0.359 C  
HETATM   15  C   UNL     1     -11.995   7.833  71.304  1.00  0.00    -0.324 A  
HETATM   16  C   UNL     1     -13.269   8.184  71.784  1.00  0.00    -0.365 A  
HETATM   17  C   UNL     1     -13.651   9.521  71.898  1.00  0.00    -0.468 A  
HETATM   18  C   UNL     1     -12.771  10.522  71.516  1.00  0.00    -0.558 A  
HETATM   19  C   UNL     1     -11.510  10.188  71.025  1.00  0.00    -0.436 A  
HETATM   20  C   UNL     1     -11.097   8.844  70.911  1.00  0.00    -0.271 A  
ENDBRANCH   2   6
TORSDOF 1
ENDMDL
MODEL       95
REMARK 921   NORMALIZED FREE ENERGY PREDICTED BY IDOCK:   -3.94 KCAL/MOL
REMARK 922        TOTAL FREE ENERGY PREDICTED BY IDOCK:   -4.08 KCAL/MOL
REMARK 923 INTER-LIGAND FREE ENERGY PREDICTED BY IDOCK:   -4.15 KCAL/MOL
REMARK 924 INTRA-LIGAND FREE ENERGY PREDICTED BY IDOCK:    0.07 KCAL/MOL
REMARK 927      BINDING AFFINITY PREDICTED BY RF-SCORE:    0.00 PKD
ROOT
HETATM    1  N   UNL     1     -11.961  11.746  67.773  1.00  0.00    -0.176 N  
HETATM    2  C   UNL     1     -11.431  12.365  66.670  1.00  0.00    -0.370 C  
HETATM    3  H1  UNL     1     -11.358  11.652  68.590  1.00  0.00     0.000 HD 
HETATM    4  H2  UNL     1     -12.919  11.395  67.777  1.00  0.00     0.000 HD 
HETATM    5  O   UNL     1     -12.158  12.479  65.686  1.00  0.00    -0.480 OA 
ENDROOT
BRANCH   2   6
HETATM    6  N   UNL     1     -10.076  12.713  66.785  1.00  0.00    -0.233 N  
HETATM    7  C   UNL     1      -9.035  11.801  66.375  1.00  0.00    -0.201 A  
HETATM    8  C   UNL     1      -9.230  10.960  65.263  1.00  0.00    -0.236 A  
HETATM    9  C   UNL     1      -8.229  10.096  64.813  1.00  0.00    -0.161 A  
HETATM   10  C   UNL     1      -7.009  10.042  65.473  1.00  0.00    -0.124 A  
HETATM   11  C   UNL     1      -6.798  10.844  66.590  1.00  0.00    -0.127 A  
HETATM   12  C   UNL     1      -7.794  11.728  67.047  1.00  0.00    -0.161 A  
HETATM   13  C   UNL     1      -7.494  12.458  68.282  1.00  0.00    -0.124 C  
HETATM   14  C   UNL     1      -7.843  13.728  68.517  1.00  0.00    -0.132 C  
HETATM   15  C   UNL     1      -8.576  14.564  67.565  1.00  0.00    -0.198 A  
HETATM   16  C   UNL     1      -8.213  15.920  67.495  1.00  0.00    -0.177 A  
HETATM   17  C   UNL     1      -8.897  16.806  66.662  1.00  0.00    -0.286 A  
HETATM   18  C   UNL     1      -9.963  16.351  65.901  1.00  0.00    -0.358 A  
HETATM   19  C   UNL     1     -10.342  15.011  65.970  1.00  0.00    -0.326 A  
HETATM   20  C   UNL     1      -9.659  14.094  66.797  1.00  0.00    -0.282 A  
ENDBRANCH   2   6
TORSDOF 1
ENDMDL
MODEL       96
REMARK 921   NORMALIZED FREE ENERGY PREDICTED BY IDOCK:   -3.92 KCAL/MOL
REMARK 922        TOTAL FREE ENERGY PREDICTED BY IDOCK:   -4.06 KCAL/MOL
REMARK 923 INTER-LIGAND FREE ENERGY PREDICTED BY IDOCK:   -4.24 KCAL/MOL
REMARK 924 INTRA-LIGAND FREE ENERGY PREDICTED BY IDOCK:    0.19 KCAL/MOL
REMARK 927      BINDING AFFINITY PREDICTED BY RF-SCORE:    0.00 PKD
ROOT
HETATM    1  N   UNL     1     -13.020   9.583  72.137  1.00  0.00    -0.410 N  
HETATM    2  C   UNL     1     -12.722   8.290  71.787  1.00  0.00    -0.336 C  
HETATM    3  H1  UNL     1     -12.252  10.165  72.471  1.00  0.00     0.000 HD 
HETATM    4  H2  UNL     1     -13.971   9.946  72.066  1.00  0.00     0.000 HD 
HETATM    5  O   UNL     1     -13.647   7.590  71.385  1.00  0.00    -0.362 OA 
ENDROOT
BRANCH   2   6
HETATM    6  N   UNL     1     -11.392   7.909  72.024  1.00  0.00    -0.274 N  
HETATM    7  C   UNL     1     -11.081   6.707  72.759  1.00  0.00    -0.249 A  
HETATM    8  C   UNL     1     -11.899   5.568  72.630  1.00  0.00    -0.176 A  
HETATM    9  C   UNL     1     -11.603   4.375  73.294  1.00  0.00    -0.218 A  
HETATM   10  C   UNL     1     -10.488   4.293  74.115  1.00  0.00    -0.307 A  
HETATM   11  C   UNL     1      -9.675   5.411  74.280  1.00  0.00    -0.180 A  
HETATM   12  C   UNL     1      -9.955   6.617  73.608  1.00  0.00    -0.270 A  
HETATM   13  C   UNL     1      -9.083   7.752  73.926  1.00  0.00    -0.298 C  
HETATM   14  C   UNL     1      -8.667   8.661  73.038  1.00  0.00     0.039 C  
HETATM   15  C   UNL     1      -9.030   8.644  71.619  1.00  0.00    -0.305 A  
HETATM   16  C   UNL     1      -8.037   9.031  70.702  1.00  0.00    -0.184 A  
HETATM   17  C   UNL     1      -8.309   9.104  69.336  1.00  0.00    -0.124 A  
HETATM   18  C   UNL     1      -9.582   8.810  68.871  1.00  0.00    -0.158 A  
HETATM   19  C   UNL     1     -10.580   8.437  69.771  1.00  0.00    -0.221 A  
HETATM   20  C   UNL     1     -10.326   8.345  71.155  1.00  0.00    -0.212 A  
ENDBRANCH   2   6
TORSDOF 1
ENDMDL
MODEL       97
REMARK 921   NORMALIZED FREE ENERGY PREDICTED BY IDOCK:   -3.88 KCAL/MOL
REMARK 922        TOTAL FREE ENERGY PREDICTED BY IDOCK:   -4.02 KCAL/MOL
REMARK 923 INTER-LIGAND FREE ENERGY PREDICTED BY IDOCK:   -4.51 KCAL/MOL
REMARK 924 INTRA-LIGAND FREE ENERGY PREDICTED BY IDOCK:    0.49 KCAL/MOL
REMARK 927      BINDING AFFINITY PREDICTED BY RF-SCORE:    0.00 PKD
ROOT
HETATM    1  N   UNL     1     -10.412  15.976  65.564  1.00  0.00    -0.393 N  
HETATM    2  C   UNL     1     -10.710  15.036  66.518  1.00  0.00    -0.312 C  
HETATM    3  H1  UNL     1      -9.659  15.757  64.912  1.00  0.00     0.000 HD 
HETATM    4  H2  UNL     1     -10.923  16.857  65.508  1.00  0.00     0.000 HD 
HETATM    5  O   UNL     1     -11.618  15.301  67.302  1.00  0.00    -0.286 OA 
ENDROOT
BRANCH   2   6
HETATM    6  N   UNL     1      -9.863  13.918  66.525  1.00  0.00    -0.282 N  
HETATM    7  C   UNL     1      -9.997  12.873  65.538  1.00  0.00    -0.213 A  
HETATM    8  C   UNL     1     -10.371  13.193  64.218  1.00  0.00    -0.361 A  
HETATM    9  C   UNL     1     -10.469  12.213  63.227  1.00  0.00    -0.360 A  
HETATM   10  C   UNL     1     -10.208  10.885  63.534  1.00  0.00    -0.379 A  
HETATM   11  C   UNL     1      -9.860  10.538  64.836  1.00  0.00    -0.379 A  
HETATM   12  C   UNL     1      -9.746  11.516  65.842  1.00  0.00    -0.260 A  
HETATM   13  C   UNL     1      -9.461  11.025  67.193  1.00  0.00    -0.181 C  
HETATM   14  C   UNL     1      -8.661  11.640  68.072  1.00  0.00    -0.157 C  
HETATM   15  C   UNL     1      -7.960  12.896  67.798  1.00  0.00    -0.162 A  
HETATM   16  C   UNL     1      -6.662  13.029  68.322  1.00  0.00    -0.096 A  
HETATM   17  C   UNL     1      -5.941  14.213  68.165  1.00  0.00    -0.133 A  
HETATM   18  C   UNL     1      -6.514  15.284  67.498  1.00  0.00    -0.158 A  
HETATM   19  C   UNL     1      -7.805  15.171  66.984  1.00  0.00    -0.197 A  
HETATM   20  C   UNL     1      -8.550  13.981  67.121  1.00  0.00    -0.205 A  
ENDBRANCH   2   6
TORSDOF 1
ENDMDL
MODEL       98
REMARK 921   NORMALIZED FREE ENERGY PREDICTED BY IDOCK:   -3.88 KCAL/MOL
REMARK 922        TOTAL FREE ENERGY PREDICTED BY IDOCK:   -4.02 KCAL/MOL
REMARK 923 INTER-LIGAND FREE ENERGY PREDICTED BY IDOCK:   -4.08 KCAL/MOL
REMARK 924 INTRA-LIGAND FREE ENERGY PREDICTED BY IDOCK:    0.07 KCAL/MOL
REMARK 927      BINDING AFFINITY PREDICTED BY RF-SCORE:    0.00 PKD
ROOT
HETATM    1  N   UNL     1      -7.057   7.309  66.575  1.00  0.00    -0.076 N  
HETATM    2  C   UNL     1      -8.428   7.266  66.570  1.00  0.00    -0.125 C  
HETATM    3  H1  UNL     1      -6.614   7.985  67.196  1.00  0.00     0.000 HD 
HETATM    4  H2  UNL     1      -6.504   6.691  65.981  1.00  0.00     0.000 HD 
HETATM    5  O   UNL     1      -8.961   6.451  65.821  1.00  0.00    -0.138 OA 
ENDROOT
BRANCH   2   6
HETATM    6  N   UNL     1      -9.050   8.236  67.370  1.00  0.00    -0.139 N  
HETATM    7  C   UNL     1      -9.414   9.525  66.832  1.00  0.00    -0.158 A  
HETATM    8  C   UNL     1      -9.857   9.635  65.500  1.00  0.00    -0.352 A  
HETATM    9  C   UNL     1     -10.258  10.859  64.959  1.00  0.00    -0.367 A  
HETATM   10  C   UNL     1     -10.213  12.009  65.734  1.00  0.00    -0.274 A  
HETATM   11  C   UNL     1      -9.756  11.934  67.047  1.00  0.00    -0.204 A  
HETATM   12  C   UNL     1      -9.360  10.705  67.608  1.00  0.00    -0.156 A  
HETATM   13  C   UNL     1      -8.814  10.760  68.967  1.00  0.00    -0.135 C  
HETATM   14  C   UNL     1      -9.033   9.838  69.911  1.00  0.00    -0.254 C  
HETATM   15  C   UNL     1      -9.853   8.641  69.710  1.00  0.00    -0.183 A  
HETATM   16  C   UNL     1     -10.648   8.224  70.792  1.00  0.00    -0.236 A  
HETATM   17  C   UNL     1     -11.415   7.061  70.715  1.00  0.00    -0.360 A  
HETATM   18  C   UNL     1     -11.382   6.291  69.562  1.00  0.00    -0.475 A  
HETATM   19  C   UNL     1     -10.588   6.686  68.486  1.00  0.00    -0.276 A  
HETATM   20  C   UNL     1      -9.813   7.863  68.537  1.00  0.00    -0.177 A  
ENDBRANCH   2   6
TORSDOF 1
ENDMDL
MODEL       99
REMARK 921   NORMALIZED FREE ENERGY PREDICTED BY IDOCK:   -3.85 KCAL/MOL
REMARK 922        TOTAL FREE ENERGY PREDICTED BY IDOCK:   -3.98 KCAL/MOL
REMARK 923 INTER-LIGAND FREE ENERGY PREDICTED BY IDOCK:   -4.20 KCAL/MOL
REMARK 924 INTRA-LIGAND FREE ENERGY PREDICTED BY IDOCK:    0.21 KCAL/MOL
REMARK 927      BINDING AFFINITY PREDICTED BY RF-SCORE:    0.00 PKD
ROOT
HETATM    1  N   UNL     1      -7.583   8.375  70.946  1.00  0.00    -0.072 N  
HETATM    2  C   UNL     1      -8.888   8.795  70.995  1.00  0.00    -0.211 C  
HETATM    3  H1  UNL     1      -7.172   8.237  70.022  1.00  0.00     0.000 HD 
HETATM    4  H2  UNL     1      -7.045   8.209  71.796  1.00  0.00     0.000 HD 
HETATM    5  O   UNL     1      -9.382   8.962  72.108  1.00  0.00    -0.348 OA 
ENDROOT
BRANCH   2   6
HETATM    6  N   UNL     1      -9.522   8.893  69.748  1.00  0.00    -0.166 N  
HETATM    7  C   UNL     1      -9.871   7.712  68.993  1.00  0.00    -0.168 A  
HETATM    8  C   UNL     1     -10.287   6.545  69.662  1.00  0.00    -0.234 A  
HETATM    9  C   UNL     1     -10.673   5.399  68.962  1.00  0.00    -0.144 A  
HETATM   10  C   UNL     1     -10.640   5.387  67.575  1.00  0.00    -0.204 A  
HETATM   11  C   UNL     1     -10.209   6.519  66.890  1.00  0.00    -0.279 A  
HETATM   12  C   UNL     1      -9.829   7.685  67.581  1.00  0.00    -0.207 A  
HETATM   13  C   UNL     1      -9.310   8.783  66.762  1.00  0.00    -0.229 C  
HETATM   14  C   UNL     1      -9.551  10.079  66.989  1.00  0.00    -0.212 C  
HETATM   15  C   UNL     1     -10.370  10.577  68.095  1.00  0.00    -0.201 A  
HETATM   16  C   UNL     1     -11.188  11.690  67.833  1.00  0.00    -0.334 A  
HETATM   17  C   UNL     1     -11.958  12.271  68.842  1.00  0.00    -0.300 A  
HETATM   18  C   UNL     1     -11.904  11.758  70.129  1.00  0.00    -0.408 A  
HETATM   19  C   UNL     1     -11.088  10.662  70.406  1.00  0.00    -0.253 A  
HETATM   20  C   UNL     1     -10.310  10.052  69.401  1.00  0.00    -0.227 A  
ENDBRANCH   2   6
TORSDOF 1
ENDMDL
MODEL      100
REMARK 921   NORMALIZED FREE ENERGY PREDICTED BY IDOCK:   -3.84 KCAL/MOL
REMARK 922        TOTAL FREE ENERGY PREDICTED BY IDOCK:   -3.98 KCAL/MOL
REMARK 923 INTER-LIGAND FREE ENERGY PREDICTED BY IDOCK:   -4.04 KCAL/MOL
REMARK 924 INTRA-LIGAND FREE ENERGY PREDICTED BY IDOCK:    0.06 KCAL/MOL
REMARK 927      BINDING AFFINITY PREDICTED BY RF-SCORE:    0.00 PKD
ROOT
HETATM    1  N   UNL     1      -7.869  14.990  66.850  1.00  0.00    -0.315 N  
HETATM    2  C   UNL     1      -8.107  14.518  68.116  1.00  0.00    -0.137 C  
HETATM    3  H1  UNL     1      -8.619  14.886  66.166  1.00  0.00     0.000 HD 
HETATM    4  H2  UNL     1      -6.981  15.426  66.604  1.00  0.00     0.000 HD 
HETATM    5  O   UNL     1      -7.204  14.642  68.940  1.00  0.00    -0.109 OA 
ENDROOT
BRANCH   2   6
HETATM    6  N   UNL     1      -9.337  13.864  68.279  1.00  0.00    -0.206 N  
HETATM    7  C   UNL     1      -9.435  12.426  68.200  1.00  0.00    -0.214 A  
HETATM    8  C   UNL     1      -8.386  11.619  68.683  1.00  0.00    -0.100 A  
HETATM    9  C   UNL     1      -8.465  10.225  68.661  1.00  0.00    -0.127 A  
HETATM   10  C   UNL     1      -9.591   9.600  68.142  1.00  0.00    -0.159 A  
HETATM   11  C   UNL     1     -10.631  10.373  67.635  1.00  0.00    -0.304 A  
HETATM   12  C   UNL     1     -10.570  11.779  67.662  1.00  0.00    -0.237 A  
HETATM   13  C   UNL     1     -11.682  12.488  67.021  1.00  0.00    -0.437 C  
HETATM   14  C   UNL     1     -12.222  13.623  67.477  1.00  0.00    -0.259 C  
HETATM   15  C   UNL     1     -11.770  14.316  68.686  1.00  0.00    -0.380 A  
HETATM   16  C   UNL     1     -12.758  14.916  69.485  1.00  0.00     0.088 A  
HETATM   17  C   UNL     1     -12.417  15.649  70.622  1.00  0.00    -0.463 A  
HETATM   18  C   UNL     1     -11.083  15.807  70.963  1.00  0.00    -0.327 A  
HETATM   19  C   UNL     1     -10.091  15.227  70.173  1.00  0.00    -0.116 A  
HETATM   20  C   UNL     1     -10.412  14.473  69.025  1.00  0.00    -0.237 A  
ENDBRANCH   2   6
TORSDOF 1
ENDMDL
MODEL      101
REMARK 921   NORMALIZED FREE ENERGY PREDICTED BY IDOCK:   -3.80 KCAL/MOL
REMARK 922        TOTAL FREE ENERGY PREDICTED BY IDOCK:   -3.93 KCAL/MOL
REMARK 923 INTER-LIGAND FREE ENERGY PREDICTED BY IDOCK:   -4.43 KCAL/MOL
REMARK 924 INTRA-LIGAND FREE ENERGY PREDICTED BY IDOCK:    0.49 KCAL/MOL
REMARK 927      BINDING AFFINITY PREDICTED BY RF-SCORE:    0.00 PKD
ROOT
HETATM    1  N   UNL     1     -10.939   8.023  72.321  1.00  0.00    -0.288 N  
HETATM    2  C   UNL     1     -11.684   7.610  71.246  1.00  0.00    -0.284 C  
HETATM    3  H1  UNL     1      -9.938   8.149  72.174  1.00  0.00     0.000 HD 
HETATM    4  H2  UNL     1     -11.369   8.196  73.230  1.00  0.00     0.000 HD 
HETATM    5  O   UNL     1     -12.890   7.458  71.424  1.00  0.00    -0.358 OA 
ENDROOT
BRANCH   2   6
HETATM    6  N   UNL     1     -10.941   7.326  70.090  1.00  0.00    -0.256 N  
HETATM    7  C   UNL     1     -10.428   8.386  69.254  1.00  0.00    -0.215 A  
HETATM    8  C   UNL     1      -9.989   9.592  69.832  1.00  0.00    -0.259 A  
HETATM    9  C   UNL     1      -9.448  10.621  69.058  1.00  0.00    -0.202 A  
HETATM   10  C   UNL     1      -9.344  10.475  67.682  1.00  0.00    -0.160 A  
HETATM   11  C   UNL     1      -9.793   9.303  67.081  1.00  0.00    -0.251 A  
HETATM   12  C   UNL     1     -10.330   8.253  67.851  1.00  0.00    -0.278 A  
HETATM   13  C   UNL     1     -10.852   7.104  67.104  1.00  0.00    -0.403 C  
HETATM   14  C   UNL     1     -10.737   5.830  67.494  1.00  0.00    -0.320 C  
HETATM   15  C   UNL     1     -10.071   5.410  68.728  1.00  0.00    -0.255 A  
HETATM   16  C   UNL     1      -9.322   4.221  68.676  1.00  0.00    -0.213 A  
HETATM   17  C   UNL     1      -8.703   3.710  69.817  1.00  0.00    -0.126 A  
HETATM   18  C   UNL     1      -8.841   4.371  71.028  1.00  0.00    -0.146 A  
HETATM   19  C   UNL     1      -9.591   5.544  71.097  1.00  0.00    -0.207 A  
HETATM   20  C   UNL     1     -10.217   6.085  69.955  1.00  0.00    -0.205 A  
ENDBRANCH   2   6
TORSDOF 1
ENDMDL
MODEL      102
REMARK 921   NORMALIZED FREE ENERGY PREDICTED BY IDOCK:   -3.74 KCAL/MOL
REMARK 922        TOTAL FREE ENERGY PREDICTED BY IDOCK:   -3.87 KCAL/MOL
REMARK 923 INTER-LIGAND FREE ENERGY PREDICTED BY IDOCK:   -3.98 KCAL/MOL
REMARK 924 INTRA-LIGAND FREE ENERGY PREDICTED BY IDOCK:    0.11 KCAL/MOL
REMARK 927      BINDING AFFINITY PREDICTED BY RF-SCORE:    0.00 PKD
ROOT
HETATM    1  N   UNL     1     -11.007   7.131  67.005  1.00  0.00    -0.588 N  
HETATM    2  C   UNL     1     -10.288   6.308  67.834  1.00  0.00    -0.193 C  
HETATM    3  H1  UNL     1     -10.958   8.134  67.186  1.00  0.00     0.000 HD 
HETATM    4  H2  UNL     1     -11.567   6.756  66.239  1.00  0.00     0.000 HD 
HETATM    5  O   UNL     1     -10.348   5.100  67.615  1.00  0.00    -0.169 OA 
ENDROOT
BRANCH   2   6
HETATM    6  N   UNL     1      -9.641   6.961  68.894  1.00  0.00    -0.139 N  
HETATM    7  C   UNL     1     -10.353   7.310  70.101  1.00  0.00    -0.212 A  
HETATM    8  C   UNL     1     -11.365   6.465  70.594  1.00  0.00    -0.419 A  
HETATM    9  C   UNL     1     -12.044   6.750  71.780  1.00  0.00    -0.393 A  
HETATM   10  C   UNL     1     -11.737   7.897  72.499  1.00  0.00    -0.423 A  
HETATM   11  C   UNL     1     -10.758   8.763  72.021  1.00  0.00    -0.417 A  
HETATM   12  C   UNL     1     -10.057   8.482  70.833  1.00  0.00    -0.246 A  
HETATM   13  C   UNL     1      -9.112   9.507  70.381  1.00  0.00    -0.296 C  
HETATM   14  C   UNL     1      -7.928   9.251  69.812  1.00  0.00    -0.103 C  
HETATM   15  C   UNL     1      -7.416   7.902  69.564  1.00  0.00    -0.093 A  
HETATM   16  C   UNL     1      -6.037   7.699  69.747  1.00  0.00    -0.027 A  
HETATM   17  C   UNL     1      -5.449   6.464  69.476  1.00  0.00    -0.013 A  
HETATM   18  C   UNL     1      -6.228   5.421  69.001  1.00  0.00    -0.033 A  
HETATM   19  C   UNL     1      -7.595   5.611  68.802  1.00  0.00    -0.088 A  
HETATM   20  C   UNL     1      -8.214   6.848  69.079  1.00  0.00    -0.125 A  
ENDBRANCH   2   6
TORSDOF 1
ENDMDL
MODEL      103
REMARK 921   NORMALIZED FREE ENERGY PREDICTED BY IDOCK:   -3.73 KCAL/MOL
REMARK 922        TOTAL FREE ENERGY PREDICTED BY IDOCK:   -3.86 KCAL/MOL
REMARK 923 INTER-LIGAND FREE ENERGY PREDICTED BY IDOCK:   -3.95 KCAL/MOL
REMARK 924 INTRA-LIGAND FREE ENERGY PREDICTED BY IDOCK:    0.09 KCAL/MOL
REMARK 927      BINDING AFFINITY PREDICTED BY RF-SCORE:    0.00 PKD
ROOT
HETATM    1  N   UNL     1     -11.416  11.205  70.276  1.00  0.00    -0.450 N  
HETATM    2  C   UNL     1     -10.766  10.006  70.423  1.00  0.00    -0.307 C  
HETATM    3  H1  UNL     1     -11.378  11.646  69.357  1.00  0.00     0.000 HD 
HETATM    4  H2  UNL     1     -11.916  11.637  71.052  1.00  0.00     0.000 HD 
HETATM    5  O   UNL     1     -10.811   9.476  71.530  1.00  0.00    -0.355 OA 
ENDROOT
BRANCH   2   6
HETATM    6  N   UNL     1     -10.048   9.584  69.294  1.00  0.00    -0.188 N  
HETATM    7  C   UNL     1      -8.706  10.054  69.044  1.00  0.00    -0.158 A  
HETATM    8  C   UNL     1      -7.829  10.290  70.119  1.00  0.00     0.046 A  
HETATM    9  C   UNL     1      -6.511  10.704  69.911  1.00  0.00    -0.124 A  
HETATM   10  C   UNL     1      -6.040  10.906  68.621  1.00  0.00    -0.043 A  
HETATM   11  C   UNL     1      -6.894  10.703  67.541  1.00  0.00    -0.078 A  
HETATM   12  C   UNL     1      -8.221  10.275  67.735  1.00  0.00    -0.110 A  
HETATM   13  C   UNL     1      -9.053  10.179  66.532  1.00  0.00    -0.166 C  
HETATM   14  C   UNL     1      -9.965   9.226  66.313  1.00  0.00    -0.357 C  
HETATM   15  C   UNL     1     -10.256   8.142  67.254  1.00  0.00    -0.348 A  
HETATM   16  C   UNL     1     -10.535   6.878  66.704  1.00  0.00    -0.213 A  
HETATM   17  C   UNL     1     -10.883   5.800  67.519  1.00  0.00    -0.268 A  
HETATM   18  C   UNL     1     -10.974   5.977  68.891  1.00  0.00    -0.395 A  
HETATM   19  C   UNL     1     -10.713   7.228  69.448  1.00  0.00    -0.236 A  
HETATM   20  C   UNL     1     -10.349   8.329  68.646  1.00  0.00    -0.200 A  
ENDBRANCH   2   6
TORSDOF 1
ENDMDL
MODEL      104
REMARK 921   NORMALIZED FREE ENERGY PREDICTED BY IDOCK:   -3.69 KCAL/MOL
REMARK 922        TOTAL FREE ENERGY PREDICTED BY IDOCK:   -3.81 KCAL/MOL
REMARK 923 INTER-LIGAND FREE ENERGY PREDICTED BY IDOCK:   -3.89 KCAL/MOL
REMARK 924 INTRA-LIGAND FREE ENERGY PREDICTED BY IDOCK:    0.08 KCAL/MOL
REMARK 927      BINDING AFFINITY PREDICTED BY RF-SCORE:    0.00 PKD
ROOT
HETATM    1  N   UNL     1      -7.489  12.335  68.879  1.00  0.00    -0.274 N  
HETATM    2  C   UNL     1      -7.926  11.204  68.238  1.00  0.00    -0.127 C  
HETATM    3  H1  UNL     1      -8.187  12.892  69.372  1.00  0.00     0.000 HD 
HETATM    4  H2  UNL     1      -6.506  12.608  68.863  1.00  0.00     0.000 HD 
HETATM    5  O   UNL     1      -7.084  10.534  67.644  1.00  0.00    -0.082 OA 
ENDROOT
BRANCH   2   6
HETATM    6  N   UNL     1      -9.315  11.009  68.272  1.00  0.00    -0.166 N  
HETATM    7  C   UNL     1     -10.174  11.579  67.261  1.00  0.00    -0.202 A  
HETATM    8  C   UNL     1      -9.728  11.678  65.929  1.00  0.00    -0.260 A  
HETATM    9  C   UNL     1     -10.547  12.186  64.918  1.00  0.00    -0.332 A  
HETATM   10  C   UNL     1     -11.831  12.620  65.216  1.00  0.00    -0.452 A  
HETATM   11  C   UNL     1     -12.289  12.556  66.529  1.00  0.00     0.198 A  
HETATM   12  C   UNL     1     -11.478  12.036  67.556  1.00  0.00    -0.403 A  
HETATM   13  C   UNL     1     -12.030  12.100  68.912  1.00  0.00    -0.296 C  
HETATM   14  C   UNL     1     -11.872  11.151  69.842  1.00  0.00    -0.439 C  
HETATM   15  C   UNL     1     -11.118   9.914  69.627  1.00  0.00    -0.279 A  
HETATM   16  C   UNL     1     -11.627   8.746  70.221  1.00  0.00    -0.027 A  
HETATM   17  C   UNL     1     -10.945   7.533  70.123  1.00  0.00    -0.267 A  
HETATM   18  C   UNL     1      -9.737   7.477  69.444  1.00  0.00    -0.164 A  
HETATM   19  C   UNL     1      -9.215   8.630  68.860  1.00  0.00    -0.145 A  
HETATM   20  C   UNL     1      -9.891   9.865  68.938  1.00  0.00    -0.176 A  
ENDBRANCH   2   6
TORSDOF 1
ENDMDL
MODEL      105
REMARK 921   NORMALIZED FREE ENERGY PREDICTED BY IDOCK:   -3.67 KCAL/MOL
REMARK 922        TOTAL FREE ENERGY PREDICTED BY IDOCK:   -3.80 KCAL/MOL
REMARK 923 INTER-LIGAND FREE ENERGY PREDICTED BY IDOCK:   -3.87 KCAL/MOL
REMARK 924 INTRA-LIGAND FREE ENERGY PREDICTED BY IDOCK:    0.07 KCAL/MOL
REMARK 927      BINDING AFFINITY PREDICTED BY RF-SCORE:    0.00 PKD
ROOT
HETATM    1  N   UNL     1     -11.998  10.624  69.680  1.00  0.00    -0.430 N  
HETATM    2  C   UNL     1     -11.103  10.183  68.738  1.00  0.00    -0.203 C  
HETATM    3  H1  UNL     1     -11.901  10.253  70.625  1.00  0.00     0.000 HD 
HETATM    4  H2  UNL     1     -12.729  11.296  69.445  1.00  0.00     0.000 HD 
HETATM    5  O   UNL     1     -11.220  10.631  67.600  1.00  0.00    -0.316 OA 
ENDROOT
BRANCH   2   6
HETATM    6  N   UNL     1     -10.215   9.195  69.188  1.00  0.00    -0.201 N  
HETATM    7  C   UNL     1     -10.335   7.826  68.745  1.00  0.00    -0.204 A  
HETATM    8  C   UNL     1     -10.753   7.544  67.430  1.00  0.00    -0.331 A  
HETATM    9  C   UNL     1     -10.839   6.233  66.955  1.00  0.00    -0.428 A  
HETATM   10  C   UNL     1     -10.521   5.169  67.787  1.00  0.00    -0.112 A  
HETATM   11  C   UNL     1     -10.128   5.419  69.098  1.00  0.00    -0.293 A  
HETATM   12  C   UNL     1     -10.025   6.735  69.587  1.00  0.00    -0.184 A  
HETATM   13  C   UNL     1      -9.688   6.874  71.007  1.00  0.00    -0.178 C  
HETATM   14  C   UNL     1      -8.891   7.823  71.509  1.00  0.00    -0.150 C  
HETATM   15  C   UNL     1      -8.244   8.858  70.700  1.00  0.00    -0.183 A  
HETATM   16  C   UNL     1      -6.939   9.232  71.068  1.00  0.00    -0.090 A  
HETATM   17  C   UNL     1      -6.267  10.252  70.394  1.00  0.00    -0.120 A  
HETATM   18  C   UNL     1      -6.897  10.924  69.358  1.00  0.00    -0.114 A  
HETATM   19  C   UNL     1      -8.195  10.572  68.991  1.00  0.00    -0.145 A  
HETATM   20  C   UNL     1      -8.891   9.537  69.650  1.00  0.00    -0.187 A  
ENDBRANCH   2   6
TORSDOF 1
ENDMDL
MODEL      106
REMARK 921   NORMALIZED FREE ENERGY PREDICTED BY IDOCK:   -3.63 KCAL/MOL
REMARK 922        TOTAL FREE ENERGY PREDICTED BY IDOCK:   -3.76 KCAL/MOL
REMARK 923 INTER-LIGAND FREE ENERGY PREDICTED BY IDOCK:   -3.86 KCAL/MOL
REMARK 924 INTRA-LIGAND FREE ENERGY PREDICTED BY IDOCK:    0.11 KCAL/MOL
REMARK 927      BINDING AFFINITY PREDICTED BY RF-SCORE:    0.00 PKD
ROOT
HETATM    1  N   UNL     1     -12.245   7.011  70.701  1.00  0.00    -0.578 N  
HETATM    2  C   UNL     1     -11.080   6.287  70.713  1.00  0.00    -0.316 C  
HETATM    3  H1  UNL     1     -12.507   7.460  69.823  1.00  0.00     0.000 HD 
HETATM    4  H2  UNL     1     -12.826   7.097  71.535  1.00  0.00     0.000 HD 
HETATM    5  O   UNL     1     -10.766   5.747  71.771  1.00  0.00    -0.234 OA 
ENDROOT
BRANCH   2   6
HETATM    6  N   UNL     1     -10.345   6.336  69.519  1.00  0.00    -0.195 N  
HETATM    7  C   UNL     1      -9.478   7.452  69.222  1.00  0.00    -0.154 A  
HETATM    8  C   UNL     1      -8.769   8.090  70.257  1.00  0.00    -0.134 A  
HETATM    9  C   UNL     1      -7.889   9.144  70.000  1.00  0.00    -0.099 A  
HETATM   10  C   UNL     1      -7.705   9.596  68.701  1.00  0.00    -0.080 A  
HETATM   11  C   UNL     1      -8.411   8.999  67.662  1.00  0.00    -0.117 A  
HETATM   12  C   UNL     1      -9.293   7.928  67.904  1.00  0.00    -0.150 A  
HETATM   13  C   UNL     1     -10.048   7.436  66.749  1.00  0.00    -0.305 C  
HETATM   14  C   UNL     1     -10.337   6.150  66.521  1.00  0.00    -0.186 C  
HETATM   15  C   UNL     1      -9.934   5.054  67.405  1.00  0.00    -0.214 A  
HETATM   16  C   UNL     1      -9.552   3.848  66.791  1.00  0.00    -0.222 A  
HETATM   17  C   UNL     1      -9.211   2.730  67.553  1.00  0.00    -0.227 A  
HETATM   18  C   UNL     1      -9.266   2.797  68.936  1.00  0.00    -0.224 A  
HETATM   19  C   UNL     1      -9.656   3.983  69.558  1.00  0.00    -0.265 A  
HETATM   20  C   UNL     1      -9.994   5.129  68.809  1.00  0.00    -0.166 A  
ENDBRANCH   2   6
TORSDOF 1
ENDMDL
MODEL      107
REMARK 921   NORMALIZED FREE ENERGY PREDICTED BY IDOCK:   -3.63 KCAL/MOL
REMARK 922        TOTAL FREE ENERGY PREDICTED BY IDOCK:   -3.75 KCAL/MOL
REMARK 923 INTER-LIGAND FREE ENERGY PREDICTED BY IDOCK:   -4.30 KCAL/MOL
REMARK 924 INTRA-LIGAND FREE ENERGY PREDICTED BY IDOCK:    0.55 KCAL/MOL
REMARK 927      BINDING AFFINITY PREDICTED BY RF-SCORE:    0.00 PKD
ROOT
HETATM    1  N   UNL     1      -6.609  14.831  68.398  1.00  0.00    -0.094 N  
HETATM    2  C   UNL     1      -7.746  15.538  68.694  1.00  0.00    -0.144 C  
HETATM    3  H1  UNL     1      -6.160  15.022  67.502  1.00  0.00     0.000 HD 
HETATM    4  H2  UNL     1      -6.227  14.142  69.046  1.00  0.00     0.000 HD 
HETATM    5  O   UNL     1      -8.286  15.307  69.773  1.00  0.00    -0.194 OA 
ENDROOT
BRANCH   2   6
HETATM    6  N   UNL     1      -8.198  16.381  67.667  1.00  0.00    -0.152 N  
HETATM    7  C   UNL     1      -7.376  17.459  67.170  1.00  0.00    -0.172 A  
HETATM    8  C   UNL     1      -5.979  17.304  67.094  1.00  0.00    -0.181 A  
HETATM    9  C   UNL     1      -5.158  18.309  66.579  1.00  0.00    -0.166 A  
HETATM   10  C   UNL     1      -5.712  19.503  66.138  1.00  0.00    -0.173 A  
HETATM   11  C   UNL     1      -7.088  19.692  66.225  1.00  0.00    -0.256 A  
HETATM   12  C   UNL     1      -7.929  18.683  66.731  1.00  0.00    -0.266 A  
HETATM   13  C   UNL     1      -9.348  19.026  66.857  1.00  0.00    -0.346 C  
HETATM   14  C   UNL     1     -10.358  18.183  66.614  1.00  0.00    -0.387 C  
HETATM   15  C   UNL     1     -10.178  16.794  66.185  1.00  0.00    -0.363 A  
HETATM   16  C   UNL     1     -11.097  16.292  65.247  1.00  0.00    -0.156 A  
HETATM   17  C   UNL     1     -11.041  14.963  64.827  1.00  0.00    -0.395 A  
HETATM   18  C   UNL     1     -10.079  14.115  65.353  1.00  0.00    -0.359 A  
HETATM   19  C   UNL     1      -9.169  14.597  66.293  1.00  0.00    -0.257 A  
HETATM   20  C   UNL     1      -9.199  15.939  66.725  1.00  0.00    -0.240 A  
ENDBRANCH   2   6
TORSDOF 1
ENDMDL
MODEL      108
REMARK 921   NORMALIZED FREE ENERGY PREDICTED BY IDOCK:   -3.62 KCAL/MOL
REMARK 922        TOTAL FREE ENERGY PREDICTED BY IDOCK:   -3.75 KCAL/MOL
REMARK 923 INTER-LIGAND FREE ENERGY PREDICTED BY IDOCK:   -3.81 KCAL/MOL
REMARK 924 INTRA-LIGAND FREE ENERGY PREDICTED BY IDOCK:    0.06 KCAL/MOL
REMARK 927      BINDING AFFINITY PREDICTED BY RF-SCORE:    0.00 PKD
ROOT
HETATM    1  N   UNL     1     -10.897   5.935  67.439  1.00  0.00    -0.360 N  
HETATM    2  C   UNL     1     -10.178   7.099  67.535  1.00  0.00    -0.212 C  
HETATM    3  H1  UNL     1     -11.291   5.558  68.301  1.00  0.00     0.000 HD 
HETATM    4  H2  UNL     1     -11.033   5.466  66.544  1.00  0.00     0.000 HD 
HETATM    5  O   UNL     1      -9.704   7.553  66.496  1.00  0.00    -0.203 OA 
ENDROOT
BRANCH   2   6
HETATM    6  N   UNL     1     -10.002   7.577  68.842  1.00  0.00    -0.164 N  
HETATM    7  C   UNL     1      -8.766   7.361  69.556  1.00  0.00    -0.137 A  
HETATM    8  C   UNL     1      -7.540   7.372  68.863  1.00  0.00    -0.103 A  
HETATM    9  C   UNL     1      -6.322   7.209  69.528  1.00  0.00    -0.035 A  
HETATM   10  C   UNL     1      -6.300   7.017  70.902  1.00  0.00    -0.040 A  
HETATM   11  C   UNL     1      -7.499   6.976  71.608  1.00  0.00    -0.088 A  
HETATM   12  C   UNL     1      -8.733   7.151  70.953  1.00  0.00    -0.146 A  
HETATM   13  C   UNL     1      -9.933   7.001  71.781  1.00  0.00    -0.187 C  
HETATM   14  C   UNL     1     -11.039   7.742  71.656  1.00  0.00    -0.275 C  
HETATM   15  C   UNL     1     -11.200   8.810  70.667  1.00  0.00    -0.294 A  
HETATM   16  C   UNL     1     -11.907   9.955  71.074  1.00  0.00    -0.463 A  
HETATM   17  C   UNL     1     -12.163  10.997  70.182  1.00  0.00    -0.424 A  
HETATM   18  C   UNL     1     -11.732  10.899  68.868  1.00  0.00    -0.376 A  
HETATM   19  C   UNL     1     -11.041   9.763  68.448  1.00  0.00    -0.142 A  
HETATM   20  C   UNL     1     -10.761   8.702  69.333  1.00  0.00    -0.158 A  
ENDBRANCH   2   6
TORSDOF 1
ENDMDL
MODEL      109
REMARK 921   NORMALIZED FREE ENERGY PREDICTED BY IDOCK:   -3.62 KCAL/MOL
REMARK 922        TOTAL FREE ENERGY PREDICTED BY IDOCK:   -3.74 KCAL/MOL
REMARK 923 INTER-LIGAND FREE ENERGY PREDICTED BY IDOCK:   -4.75 KCAL/MOL
REMARK 924 INTRA-LIGAND FREE ENERGY PREDICTED BY IDOCK:    1.01 KCAL/MOL
REMARK 927      BINDING AFFINITY PREDICTED BY RF-SCORE:    0.00 PKD
ROOT
HETATM    1  N   UNL     1     -10.156  14.228  65.172  1.00  0.00    -0.524 N  
HETATM    2  C   UNL     1     -10.452  15.550  65.393  1.00  0.00    -0.405 C  
HETATM    3  H1  UNL     1      -9.735  13.709  65.943  1.00  0.00     0.000 HD 
HETATM    4  H2  UNL     1     -10.349  13.784  64.275  1.00  0.00     0.000 HD 
HETATM    5  O   UNL     1     -10.958  16.174  64.464  1.00  0.00    -0.645 OA 
ENDROOT
BRANCH   2   6
HETATM    6  N   UNL     1     -10.046  16.042  66.642  1.00  0.00    -0.269 N  
HETATM    7  C   UNL     1      -9.008  15.387  67.402  1.00  0.00    -0.191 A  
HETATM    8  C   UNL     1      -7.921  14.785  66.738  1.00  0.00     0.125 A  
HETATM    9  C   UNL     1      -6.878  14.180  67.443  1.00  0.00    -0.033 A  
HETATM   10  C   UNL     1      -6.901  14.149  68.830  1.00  0.00    -0.106 A  
HETATM   11  C   UNL     1      -7.975  14.714  69.510  1.00  0.00     0.063 A  
HETATM   12  C   UNL     1      -9.028  15.338  68.814  1.00  0.00    -0.200 A  
HETATM   13  C   UNL     1     -10.147  15.819  69.628  1.00  0.00    -0.289 C  
HETATM   14  C   UNL     1     -10.822  16.951  69.398  1.00  0.00    -0.186 C  
HETATM   15  C   UNL     1     -10.530  17.866  68.293  1.00  0.00    -0.362 A  
HETATM   16  C   UNL     1     -10.653  19.242  68.554  1.00  0.00    -0.087 A  
HETATM   17  C   UNL     1     -10.455  20.187  67.547  1.00  0.00    -0.422 A  
HETATM   18  C   UNL     1     -10.150  19.767  66.261  1.00  0.00    -0.601 A  
HETATM   19  C   UNL     1     -10.037  18.405  65.985  1.00  0.00    -0.293 A  
HETATM   20  C   UNL     1     -10.223  17.432  66.989  1.00  0.00    -0.323 A  
ENDBRANCH   2   6
TORSDOF 1
ENDMDL
MODEL      110
REMARK 921   NORMALIZED FREE ENERGY PREDICTED BY IDOCK:   -3.59 KCAL/MOL
REMARK 922        TOTAL FREE ENERGY PREDICTED BY IDOCK:   -3.71 KCAL/MOL
REMARK 923 INTER-LIGAND FREE ENERGY PREDICTED BY IDOCK:   -4.28 KCAL/MOL
REMARK 924 INTRA-LIGAND FREE ENERGY PREDICTED BY IDOCK:    0.57 KCAL/MOL
REMARK 927      BINDING AFFINITY PREDICTED BY RF-SCORE:    0.00 PKD
ROOT
HETATM    1  N   UNL     1      -6.581  13.537  67.337  1.00  0.00    -0.247 N  
HETATM    2  C   UNL     1      -7.379  12.698  68.073  1.00  0.00    -0.114 C  
HETATM    3  H1  UNL     1      -6.925  13.822  66.420  1.00  0.00     0.000 HD 
HETATM    4  H2  UNL     1      -5.681  13.861  67.691  1.00  0.00     0.000 HD 
HETATM    5  O   UNL     1      -6.964  12.354  69.177  1.00  0.00    -0.097 OA 
ENDROOT
BRANCH   2   6
HETATM    6  N   UNL     1      -8.542  12.267  67.417  1.00  0.00    -0.169 N  
HETATM    7  C   UNL     1      -9.507  13.214  66.910  1.00  0.00    -0.244 A  
HETATM    8  C   UNL     1      -9.077  14.446  66.381  1.00  0.00    -0.192 A  
HETATM    9  C   UNL     1      -9.979  15.367  65.843  1.00  0.00    -0.374 A  
HETATM   10  C   UNL     1     -11.338  15.085  65.832  1.00  0.00    -0.273 A  
HETATM   11  C   UNL     1     -11.793  13.885  66.371  1.00  0.00    -0.436 A  
HETATM   12  C   UNL     1     -10.894  12.942  66.905  1.00  0.00    -0.278 A  
HETATM   13  C   UNL     1     -11.492  11.756  67.524  1.00  0.00    -0.373 C  
HETATM   14  C   UNL     1     -10.985  10.520  67.443  1.00  0.00    -0.352 C  
HETATM   15  C   UNL     1      -9.756  10.187  66.721  1.00  0.00    -0.235 A  
HETATM   16  C   UNL     1      -9.734   8.962  66.031  1.00  0.00    -0.308 A  
HETATM   17  C   UNL     1      -8.585   8.532  65.366  1.00  0.00    -0.202 A  
HETATM   18  C   UNL     1      -7.439   9.312  65.398  1.00  0.00    -0.098 A  
HETATM   19  C   UNL     1      -7.443  10.523  66.089  1.00  0.00    -0.136 A  
HETATM   20  C   UNL     1      -8.595  10.983  66.760  1.00  0.00    -0.152 A  
ENDBRANCH   2   6
TORSDOF 1
ENDMDL
MODEL      111
REMARK 921   NORMALIZED FREE ENERGY PREDICTED BY IDOCK:   -3.56 KCAL/MOL
REMARK 922        TOTAL FREE ENERGY PREDICTED BY IDOCK:   -3.68 KCAL/MOL
REMARK 923 INTER-LIGAND FREE ENERGY PREDICTED BY IDOCK:   -3.80 KCAL/MOL
REMARK 924 INTRA-LIGAND FREE ENERGY PREDICTED BY IDOCK:    0.12 KCAL/MOL
REMARK 927      BINDING AFFINITY PREDICTED BY RF-SCORE:    0.00 PKD
ROOT
HETATM    1  N   UNL     1     -12.509   7.922  70.591  1.00  0.00    -0.489 N  
HETATM    2  C   UNL     1     -11.332   7.998  71.292  1.00  0.00    -0.264 C  
HETATM    3  H1  UNL     1     -12.581   7.197  69.877  1.00  0.00     0.000 HD 
HETATM    4  H2  UNL     1     -13.279   8.565  70.775  1.00  0.00     0.000 HD 
HETATM    5  O   UNL     1     -11.245   8.872  72.151  1.00  0.00    -0.360 OA 
ENDROOT
BRANCH   2   6
HETATM    6  N   UNL     1     -10.335   7.108  70.864  1.00  0.00    -0.201 N  
HETATM    7  C   UNL     1      -9.060   7.589  70.388  1.00  0.00    -0.153 A  
HETATM    8  C   UNL     1      -8.477   8.734  70.963  1.00  0.00    -0.219 A  
HETATM    9  C   UNL     1      -7.226   9.202  70.556  1.00  0.00    -0.097 A  
HETATM   10  C   UNL     1      -6.530   8.544  69.552  1.00  0.00    -0.040 A  
HETATM   11  C   UNL     1      -7.093   7.423  68.949  1.00  0.00    -0.080 A  
HETATM   12  C   UNL     1      -8.349   6.933  69.357  1.00  0.00    -0.132 A  
HETATM   13  C   UNL     1      -8.882   5.803  68.593  1.00  0.00    -0.110 C  
HETATM   14  C   UNL     1      -9.568   4.784  69.123  1.00  0.00    -0.237 C  
HETATM   15  C   UNL     1      -9.880   4.663  70.548  1.00  0.00    -0.301 A  
HETATM   16  C   UNL     1      -9.838   3.372  71.103  1.00  0.00    -0.159 A  
HETATM   17  C   UNL     1     -10.179   3.150  72.438  1.00  0.00    -0.197 A  
HETATM   18  C   UNL     1     -10.585   4.214  73.229  1.00  0.00    -0.267 A  
HETATM   19  C   UNL     1     -10.644   5.498  72.688  1.00  0.00    -0.270 A  
HETATM   20  C   UNL     1     -10.294   5.747  71.345  1.00  0.00    -0.224 A  
ENDBRANCH   2   6
TORSDOF 1
ENDMDL
MODEL      112
REMARK 921   NORMALIZED FREE ENERGY PREDICTED BY IDOCK:   -3.56 KCAL/MOL
REMARK 922        TOTAL FREE ENERGY PREDICTED BY IDOCK:   -3.68 KCAL/MOL
REMARK 923 INTER-LIGAND FREE ENERGY PREDICTED BY IDOCK:   -4.04 KCAL/MOL
REMARK 924 INTRA-LIGAND FREE ENERGY PREDICTED BY IDOCK:    0.36 KCAL/MOL
REMARK 927      BINDING AFFINITY PREDICTED BY RF-SCORE:    0.00 PKD
ROOT
HETATM    1  N   UNL     1      -6.909  13.546  67.315  1.00  0.00    -0.293 N  
HETATM    2  C   UNL     1      -7.436  12.496  68.023  1.00  0.00    -0.117 C  
HETATM    3  H1  UNL     1      -7.498  13.969  66.598  1.00  0.00     0.000 HD 
HETATM    4  H2  UNL     1      -5.966  13.890  67.499  1.00  0.00     0.000 HD 
HETATM    5  O   UNL     1      -6.726  11.988  68.886  1.00  0.00    -0.081 OA 
ENDROOT
BRANCH   2   6
HETATM    6  N   UNL     1      -8.706  12.079  67.596  1.00  0.00    -0.158 N  
HETATM    7  C   UNL     1      -9.066  10.681  67.579  1.00  0.00    -0.139 A  
HETATM    8  C   UNL     1      -8.576   9.814  68.575  1.00  0.00    -0.120 A  
HETATM    9  C   UNL     1      -8.938   8.465  68.613  1.00  0.00    -0.140 A  
HETATM   10  C   UNL     1      -9.788   7.945  67.648  1.00  0.00    -0.212 A  
HETATM   11  C   UNL     1     -10.267   8.774  66.638  1.00  0.00    -0.340 A  
HETATM   12  C   UNL     1      -9.921  10.138  66.594  1.00  0.00    -0.272 A  
HETATM   13  C   UNL     1     -10.411  10.893  65.437  1.00  0.00    -0.291 C  
HETATM   14  C   UNL     1     -10.840  12.159  65.483  1.00  0.00    -0.324 C  
HETATM   15  C   UNL     1     -10.875  12.966  66.705  1.00  0.00    -0.288 A  
HETATM   16  C   UNL     1     -11.966  13.839  66.862  1.00  0.00    -0.460 A  
HETATM   17  C   UNL     1     -12.054  14.690  67.963  1.00  0.00    -0.206 A  
HETATM   18  C   UNL     1     -11.043  14.693  68.912  1.00  0.00    -0.268 A  
HETATM   19  C   UNL     1      -9.949  13.842  68.763  1.00  0.00    -0.117 A  
HETATM   20  C   UNL     1      -9.844  12.965  67.664  1.00  0.00    -0.211 A  
ENDBRANCH   2   6
TORSDOF 1
ENDMDL
MODEL      113
REMARK 921   NORMALIZED FREE ENERGY PREDICTED BY IDOCK:   -3.54 KCAL/MOL
REMARK 922        TOTAL FREE ENERGY PREDICTED BY IDOCK:   -3.66 KCAL/MOL
REMARK 923 INTER-LIGAND FREE ENERGY PREDICTED BY IDOCK:   -4.76 KCAL/MOL
REMARK 924 INTRA-LIGAND FREE ENERGY PREDICTED BY IDOCK:    1.10 KCAL/MOL
REMARK 927      BINDING AFFINITY PREDICTED BY RF-SCORE:    0.00 PKD
ROOT
HETATM    1  N   UNL     1     -11.978  12.944  70.179  1.00  0.00    -0.460 N  
HETATM    2  C   UNL     1     -11.926  12.275  68.982  1.00  0.00    -0.248 C  
HETATM    3  H1  UNL     1     -11.332  13.724  70.306  1.00  0.00     0.000 HD 
HETATM    4  H2  UNL     1     -12.634  12.673  70.911  1.00  0.00     0.000 HD 
HETATM    5  O   UNL     1     -12.704  11.336  68.830  1.00  0.00    -0.164 OA 
ENDROOT
BRANCH   2   6
HETATM    6  N   UNL     1     -10.913  12.705  68.112  1.00  0.00    -0.225 N  
HETATM    7  C   UNL     1     -11.021  12.507  66.686  1.00  0.00    -0.266 A  
HETATM    8  C   UNL     1     -12.276  12.593  66.054  1.00  0.00    -0.329 A  
HETATM    9  C   UNL     1     -12.411  12.449  64.671  1.00  0.00    -0.518 A  
HETATM   10  C   UNL     1     -11.294  12.201  63.885  1.00  0.00    -0.501 A  
HETATM   11  C   UNL     1     -10.044  12.087  64.487  1.00  0.00    -0.293 A  
HETATM   12  C   UNL     1      -9.892  12.241  65.878  1.00  0.00    -0.266 A  
HETATM   13  C   UNL     1      -8.546  12.012  66.412  1.00  0.00    -0.037 C  
HETATM   14  C   UNL     1      -7.993  12.715  67.406  1.00  0.00    -0.177 C  
HETATM   15  C   UNL     1      -8.666  13.816  68.100  1.00  0.00    -0.183 A  
HETATM   16  C   UNL     1      -7.872  14.916  68.470  1.00  0.00    -0.126 A  
HETATM   17  C   UNL     1      -8.412  15.983  69.189  1.00  0.00    -0.247 A  
HETATM   18  C   UNL     1      -9.746  15.955  69.562  1.00  0.00    -0.255 A  
HETATM   19  C   UNL     1     -10.542  14.865  69.213  1.00  0.00    -0.248 A  
HETATM   20  C   UNL     1     -10.022  13.779  68.478  1.00  0.00    -0.217 A  
ENDBRANCH   2   6
TORSDOF 1
ENDMDL
MODEL      114
REMARK 921   NORMALIZED FREE ENERGY PREDICTED BY IDOCK:   -3.53 KCAL/MOL
REMARK 922        TOTAL FREE ENERGY PREDICTED BY IDOCK:   -3.65 KCAL/MOL
REMARK 923 INTER-LIGAND FREE ENERGY PREDICTED BY IDOCK:   -3.79 KCAL/MOL
REMARK 924 INTRA-LIGAND FREE ENERGY PREDICTED BY IDOCK:    0.13 KCAL/MOL
REMARK 927      BINDING AFFINITY PREDICTED BY RF-SCORE:    0.00 PKD
ROOT
HETATM    1  N   UNL     1     -10.960   5.969  67.957  1.00  0.00    -0.296 N  
HETATM    2  C   UNL     1      -9.998   5.751  68.910  1.00  0.00    -0.161 C  
HETATM    3  H1  UNL     1     -11.389   6.894  67.929  1.00  0.00     0.000 HD 
HETATM    4  H2  UNL     1     -11.235   5.236  67.303  1.00  0.00     0.000 HD 
HETATM    5  O   UNL     1      -9.482   4.637  68.943  1.00  0.00    -0.131 OA 
ENDROOT
BRANCH   2   6
HETATM    6  N   UNL     1      -9.793   6.822  69.793  1.00  0.00    -0.166 N  
HETATM    7  C   UNL     1      -9.945   6.654  71.219  1.00  0.00    -0.180 A  
HETATM    8  C   UNL     1      -9.576   5.440  71.830  1.00  0.00    -0.188 A  
HETATM    9  C   UNL     1      -9.670   5.258  73.212  1.00  0.00    -0.155 A  
HETATM   10  C   UNL     1     -10.150   6.281  74.017  1.00  0.00    -0.302 A  
HETATM   11  C   UNL     1     -10.545   7.482  73.437  1.00  0.00    -0.409 A  
HETATM   12  C   UNL     1     -10.444   7.684  72.047  1.00  0.00    -0.258 A  
HETATM   13  C   UNL     1     -10.971   8.954  71.537  1.00  0.00    -0.398 C  
HETATM   14  C   UNL     1     -10.419   9.662  70.546  1.00  0.00    -0.367 C  
HETATM   15  C   UNL     1      -9.206   9.259  69.832  1.00  0.00    -0.209 A  
HETATM   16  C   UNL     1      -8.313  10.281  69.465  1.00  0.00    -0.162 A  
HETATM   17  C   UNL     1      -7.161  10.001  68.729  1.00  0.00    -0.076 A  
HETATM   18  C   UNL     1      -6.898   8.699  68.335  1.00  0.00    -0.065 A  
HETATM   19  C   UNL     1      -7.781   7.677  68.680  1.00  0.00    -0.119 A  
HETATM   20  C   UNL     1      -8.946   7.934  69.432  1.00  0.00    -0.145 A  
ENDBRANCH   2   6
TORSDOF 1
ENDMDL
MODEL      115
REMARK 921   NORMALIZED FREE ENERGY PREDICTED BY IDOCK:   -3.53 KCAL/MOL
REMARK 922        TOTAL FREE ENERGY PREDICTED BY IDOCK:   -3.64 KCAL/MOL
REMARK 923 INTER-LIGAND FREE ENERGY PREDICTED BY IDOCK:   -3.79 KCAL/MOL
REMARK 924 INTRA-LIGAND FREE ENERGY PREDICTED BY IDOCK:    0.14 KCAL/MOL
REMARK 927      BINDING AFFINITY PREDICTED BY RF-SCORE:    0.00 PKD
ROOT
HETATM    1  N   UNL     1      -6.907   7.887  69.888  1.00  0.00    -0.045 N  
HETATM    2  C   UNL     1      -7.772   8.224  70.898  1.00  0.00    -0.082 C  
HETATM    3  H1  UNL     1      -7.066   6.997  69.415  1.00  0.00     0.000 HD 
HETATM    4  H2  UNL     1      -6.138   8.501  69.621  1.00  0.00     0.000 HD 
HETATM    5  O   UNL     1      -7.581   9.295  71.467  1.00  0.00    -0.340 OA 
ENDROOT
BRANCH   2   6
HETATM    6  N   UNL     1      -8.723   7.240  71.210  1.00  0.00    -0.127 N  
HETATM    7  C   UNL     1      -8.365   6.076  71.985  1.00  0.00    -0.118 A  
HETATM    8  C   UNL     1      -7.414   6.181  73.018  1.00  0.00    -0.097 A  
HETATM    9  C   UNL     1      -7.075   5.085  73.816  1.00  0.00    -0.082 A  
HETATM   10  C   UNL     1      -7.670   3.851  73.592  1.00  0.00    -0.079 A  
HETATM   11  C   UNL     1      -8.595   3.714  72.561  1.00  0.00    -0.096 A  
HETATM   12  C   UNL     1      -8.955   4.812  71.757  1.00  0.00    -0.154 A  
HETATM   13  C   UNL     1      -9.870   4.530  70.648  1.00  0.00    -0.292 C  
HETATM   14  C   UNL     1     -10.847   5.349  70.243  1.00  0.00    -0.214 C  
HETATM   15  C   UNL     1     -11.133   6.647  70.858  1.00  0.00    -0.335 A  
HETATM   16  C   UNL     1     -12.485   7.017  70.967  1.00  0.00    -0.373 A  
HETATM   17  C   UNL     1     -12.851   8.260  71.483  1.00  0.00    -0.312 A  
HETATM   18  C   UNL     1     -11.871   9.156  71.880  1.00  0.00    -0.439 A  
HETATM   19  C   UNL     1     -10.525   8.807  71.766  1.00  0.00    -0.417 A  
HETATM   20  C   UNL     1     -10.131   7.552  71.257  1.00  0.00    -0.187 A  
ENDBRANCH   2   6
TORSDOF 1
ENDMDL
MODEL      116
REMARK 921   NORMALIZED FREE ENERGY PREDICTED BY IDOCK:   -3.52 KCAL/MOL
REMARK 922        TOTAL FREE ENERGY PREDICTED BY IDOCK:   -3.64 KCAL/MOL
REMARK 923 INTER-LIGAND FREE ENERGY PREDICTED BY IDOCK:   -4.33 KCAL/MOL
REMARK 924 INTRA-LIGAND FREE ENERGY PREDICTED BY IDOCK:    0.69 KCAL/MOL
REMARK 927      BINDING AFFINITY PREDICTED BY RF-SCORE:    0.00 PKD
ROOT
HETATM    1  N   UNL     1     -11.766  11.683  67.534  1.00  0.00    -0.263 N  
HETATM    2  C   UNL     1     -10.799  10.715  67.427  1.00  0.00    -0.296 C  
HETATM    3  H1  UNL     1     -11.917  12.090  68.457  1.00  0.00     0.000 HD 
HETATM    4  H2  UNL     1     -12.311  11.981  66.725  1.00  0.00     0.000 HD 
HETATM    5  O   UNL     1     -10.617  10.224  66.316  1.00  0.00    -0.176 OA 
ENDROOT
BRANCH   2   6
HETATM    6  N   UNL     1     -10.199  10.347  68.641  1.00  0.00    -0.172 N  
HETATM    7  C   UNL     1      -8.856  10.765  68.966  1.00  0.00    -0.127 A  
HETATM    8  C   UNL     1      -8.391  12.029  68.556  1.00  0.00    -0.104 A  
HETATM    9  C   UNL     1      -7.113  12.484  68.890  1.00  0.00    -0.073 A  
HETATM   10  C   UNL     1      -6.261  11.678  69.632  1.00  0.00    -0.127 A  
HETATM   11  C   UNL     1      -6.686  10.414  70.030  1.00  0.00    -0.145 A  
HETATM   12  C   UNL     1      -7.976   9.948  69.710  1.00  0.00    -0.181 A  
HETATM   13  C   UNL     1      -8.282   8.570  70.104  1.00  0.00    -0.121 C  
HETATM   14  C   UNL     1      -9.469   8.157  70.563  1.00  0.00    -0.168 C  
HETATM   15  C   UNL     1     -10.629   9.034  70.733  1.00  0.00    -0.300 A  
HETATM   16  C   UNL     1     -11.446   8.801  71.853  1.00  0.00    -0.428 A  
HETATM   17  C   UNL     1     -12.607   9.546  72.065  1.00  0.00    -0.456 A  
HETATM   18  C   UNL     1     -12.974  10.521  71.150  1.00  0.00    -0.506 A  
HETATM   19  C   UNL     1     -12.180  10.754  70.028  1.00  0.00    -0.409 A  
HETATM   20  C   UNL     1     -10.997  10.022  69.799  1.00  0.00    -0.276 A  
ENDBRANCH   2   6
TORSDOF 1
ENDMDL
MODEL      117
REMARK 921   NORMALIZED FREE ENERGY PREDICTED BY IDOCK:   -3.50 KCAL/MOL
REMARK 922        TOTAL FREE ENERGY PREDICTED BY IDOCK:   -3.62 KCAL/MOL
REMARK 923 INTER-LIGAND FREE ENERGY PREDICTED BY IDOCK:   -4.13 KCAL/MOL
REMARK 924 INTRA-LIGAND FREE ENERGY PREDICTED BY IDOCK:    0.51 KCAL/MOL
REMARK 927      BINDING AFFINITY PREDICTED BY RF-SCORE:    0.00 PKD
ROOT
HETATM    1  N   UNL     1      -9.171  11.104  69.026  1.00  0.00    -0.379 N  
HETATM    2  C   UNL     1     -10.183  10.305  68.558  1.00  0.00    -0.172 C  
HETATM    3  H1  UNL     1      -8.368  10.639  69.449  1.00  0.00     0.000 HD 
HETATM    4  H2  UNL     1      -9.219  12.120  68.953  1.00  0.00     0.000 HD 
HETATM    5  O   UNL     1     -11.150  10.866  68.049  1.00  0.00    -0.247 OA 
ENDROOT
BRANCH   2   6
HETATM    6  N   UNL     1     -10.015   8.935  68.810  1.00  0.00    -0.178 N  
HETATM    7  C   UNL     1      -8.975   8.178  68.155  1.00  0.00    -0.135 A  
HETATM    8  C   UNL     1      -7.733   8.779  67.877  1.00  0.00    -0.102 A  
HETATM    9  C   UNL     1      -6.690   8.064  67.284  1.00  0.00    -0.065 A  
HETATM   10  C   UNL     1      -6.868   6.731  66.939  1.00  0.00    -0.065 A  
HETATM   11  C   UNL     1      -8.095   6.119  67.180  1.00  0.00    -0.106 A  
HETATM   12  C   UNL     1      -9.150   6.824  67.789  1.00  0.00    -0.117 A  
HETATM   13  C   UNL     1     -10.422   6.107  67.912  1.00  0.00    -0.286 C  
HETATM   14  C   UNL     1     -11.249   6.201  68.960  1.00  0.00    -0.375 C  
HETATM   15  C   UNL     1     -10.991   7.041  70.131  1.00  0.00    -0.306 A  
HETATM   16  C   UNL     1     -11.376   6.527  71.382  1.00  0.00    -0.344 A  
HETATM   17  C   UNL     1     -11.226   7.280  72.546  1.00  0.00    -0.342 A  
HETATM   18  C   UNL     1     -10.707   8.564  72.473  1.00  0.00    -0.303 A  
HETATM   19  C   UNL     1     -10.333   9.091  71.237  1.00  0.00    -0.383 A  
HETATM   20  C   UNL     1     -10.465   8.344  70.048  1.00  0.00    -0.224 A  
ENDBRANCH   2   6
TORSDOF 1
ENDMDL
MODEL      118
REMARK 921   NORMALIZED FREE ENERGY PREDICTED BY IDOCK:   -3.50 KCAL/MOL
REMARK 922        TOTAL FREE ENERGY PREDICTED BY IDOCK:   -3.61 KCAL/MOL
REMARK 923 INTER-LIGAND FREE ENERGY PREDICTED BY IDOCK:   -4.12 KCAL/MOL
REMARK 924 INTRA-LIGAND FREE ENERGY PREDICTED BY IDOCK:    0.50 KCAL/MOL
REMARK 927      BINDING AFFINITY PREDICTED BY RF-SCORE:    0.00 PKD
ROOT
HETATM    1  N   UNL     1      -8.825   5.360  68.489  1.00  0.00    -0.101 N  
HETATM    2  C   UNL     1     -10.173   5.554  68.655  1.00  0.00    -0.193 C  
HETATM    3  H1  UNL     1      -8.216   5.640  69.257  1.00  0.00     0.000 HD 
HETATM    4  H2  UNL     1      -8.448   4.954  67.633  1.00  0.00     0.000 HD 
HETATM    5  O   UNL     1     -10.907   5.217  67.729  1.00  0.00    -0.055 OA 
ENDROOT
BRANCH   2   6
HETATM    6  N   UNL     1     -10.531   6.204  69.845  1.00  0.00    -0.211 N  
HETATM    7  C   UNL     1     -10.380   5.555  71.125  1.00  0.00    -0.234 A  
HETATM    8  C   UNL     1      -9.296   4.685  71.352  1.00  0.00    -0.206 A  
HETATM    9  C   UNL     1      -9.096   4.073  72.591  1.00  0.00    -0.131 A  
HETATM   10  C   UNL     1      -9.982   4.305  73.634  1.00  0.00    -0.171 A  
HETATM   11  C   UNL     1     -11.076   5.141  73.429  1.00  0.00    -0.385 A  
HETATM   12  C   UNL     1     -11.284   5.774  72.189  1.00  0.00    -0.327 A  
HETATM   13  C   UNL     1     -12.514   6.560  72.062  1.00  0.00    -0.261 C  
HETATM   14  C   UNL     1     -12.611   7.717  71.397  1.00  0.00    -0.359 C  
HETATM   15  C   UNL     1     -11.492   8.356  70.702  1.00  0.00    -0.235 A  
HETATM   16  C   UNL     1     -11.424   9.759  70.757  1.00  0.00    -0.417 A  
HETATM   17  C   UNL     1     -10.429  10.459  70.075  1.00  0.00    -0.235 A  
HETATM   18  C   UNL     1      -9.500   9.766  69.314  1.00  0.00    -0.201 A  
HETATM   19  C   UNL     1      -9.562   8.375  69.240  1.00  0.00    -0.164 A  
HETATM   20  C   UNL     1     -10.553   7.645  69.930  1.00  0.00    -0.235 A  
ENDBRANCH   2   6
TORSDOF 1
ENDMDL
MODEL      119
REMARK 921   NORMALIZED FREE ENERGY PREDICTED BY IDOCK:   -3.47 KCAL/MOL
REMARK 922        TOTAL FREE ENERGY PREDICTED BY IDOCK:   -3.59 KCAL/MOL
REMARK 923 INTER-LIGAND FREE ENERGY PREDICTED BY IDOCK:   -4.18 KCAL/MOL
REMARK 924 INTRA-LIGAND FREE ENERGY PREDICTED BY IDOCK:    0.60 KCAL/MOL
REMARK 927      BINDING AFFINITY PREDICTED BY RF-SCORE:    0.00 PKD
ROOT
HETATM    1  N   UNL     1      -7.873  10.018  67.410  1.00  0.00    -0.099 N  
HETATM    2  C   UNL     1      -7.867   9.985  68.781  1.00  0.00    -0.094 C  
HETATM    3  H1  UNL     1      -8.684   9.621  66.937  1.00  0.00     0.000 HD 
HETATM    4  H2  UNL     1      -7.098  10.423  66.885  1.00  0.00     0.000 HD 
HETATM    5  O   UNL     1      -6.889  10.463  69.350  1.00  0.00    -0.062 OA 
ENDROOT
BRANCH   2   6
HETATM    6  N   UNL     1      -8.957   9.316  69.358  1.00  0.00    -0.141 N  
HETATM    7  C   UNL     1     -10.106  10.044  69.845  1.00  0.00    -0.246 A  
HETATM    8  C   UNL     1     -10.542  11.203  69.176  1.00  0.00    -0.238 A  
HETATM    9  C   UNL     1     -11.674  11.907  69.594  1.00  0.00    -0.413 A  
HETATM   10  C   UNL     1     -12.392  11.476  70.701  1.00  0.00    -0.457 A  
HETATM   11  C   UNL     1     -11.968  10.347  71.395  1.00  0.00    -0.379 A  
HETATM   12  C   UNL     1     -10.836   9.621  70.978  1.00  0.00    -0.412 A  
HETATM   13  C   UNL     1     -10.432   8.502  71.835  1.00  0.00    -0.387 C  
HETATM   14  C   UNL     1      -9.952   7.337  71.387  1.00  0.00    -0.193 C  
HETATM   15  C   UNL     1      -9.763   7.022  69.969  1.00  0.00    -0.171 A  
HETATM   16  C   UNL     1     -10.045   5.705  69.565  1.00  0.00    -0.292 A  
HETATM   17  C   UNL     1      -9.836   5.297  68.248  1.00  0.00    -0.206 A  
HETATM   18  C   UNL     1      -9.326   6.194  67.322  1.00  0.00    -0.117 A  
HETATM   19  C   UNL     1      -9.031   7.500  67.712  1.00  0.00    -0.131 A  
HETATM   20  C   UNL     1      -9.243   7.939  69.035  1.00  0.00    -0.147 A  
ENDBRANCH   2   6
TORSDOF 1
ENDMDL
MODEL      120
REMARK 921   NORMALIZED FREE ENERGY PREDICTED BY IDOCK:   -3.45 KCAL/MOL
REMARK 922        TOTAL FREE ENERGY PREDICTED BY IDOCK:   -3.57 KCAL/MOL
REMARK 923 INTER-LIGAND FREE ENERGY PREDICTED BY IDOCK:   -3.84 KCAL/MOL
REMARK 924 INTRA-LIGAND FREE ENERGY PREDICTED BY IDOCK:    0.27 KCAL/MOL
REMARK 927      BINDING AFFINITY PREDICTED BY RF-SCORE:    0.00 PKD
ROOT
HETATM    1  N   UNL     1     -10.997  16.136  70.413  1.00  0.00    -0.336 N  
HETATM    2  C   UNL     1     -10.608  15.557  69.232  1.00  0.00    -0.236 C  
HETATM    3  H1  UNL     1     -10.991  17.155  70.457  1.00  0.00     0.000 HD 
HETATM    4  H2  UNL     1     -11.279  15.571  71.214  1.00  0.00     0.000 HD 
HETATM    5  O   UNL     1     -10.615  14.330  69.180  1.00  0.00    -0.236 OA 
ENDROOT
BRANCH   2   6
HETATM    6  N   UNL     1     -10.162  16.459  68.254  1.00  0.00    -0.245 N  
HETATM    7  C   UNL     1      -8.946  17.216  68.437  1.00  0.00    -0.259 A  
HETATM    8  C   UNL     1      -7.850  16.641  69.107  1.00  0.00    -0.170 A  
HETATM    9  C   UNL     1      -6.645  17.330  69.264  1.00  0.00    -0.237 A  
HETATM   10  C   UNL     1      -6.509  18.618  68.766  1.00  0.00    -0.260 A  
HETATM   11  C   UNL     1      -7.586  19.220  68.121  1.00  0.00    -0.325 A  
HETATM   12  C   UNL     1      -8.803  18.533  67.945  1.00  0.00    -0.301 A  
HETATM   13  C   UNL     1      -9.893  19.296  67.331  1.00  0.00    -0.425 C  
HETATM   14  C   UNL     1     -10.779  18.791  66.466  1.00  0.00    -0.335 C  
HETATM   15  C   UNL     1     -10.778  17.399  66.013  1.00  0.00    -0.122 A  
HETATM   16  C   UNL     1     -11.113  17.164  64.668  1.00  0.00     0.571 A  
HETATM   17  C   UNL     1     -11.197  15.867  64.163  1.00  0.00     0.082 A  
HETATM   18  C   UNL     1     -10.965  14.787  65.000  1.00  0.00    -0.426 A  
HETATM   19  C   UNL     1     -10.644  15.004  66.340  1.00  0.00    -0.310 A  
HETATM   20  C   UNL     1     -10.543  16.306  66.870  1.00  0.00    -0.270 A  
ENDBRANCH   2   6
TORSDOF 1
ENDMDL
MODEL      121
REMARK 921   NORMALIZED FREE ENERGY PREDICTED BY IDOCK:   -3.44 KCAL/MOL
REMARK 922        TOTAL FREE ENERGY PREDICTED BY IDOCK:   -3.55 KCAL/MOL
REMARK 923 INTER-LIGAND FREE ENERGY PREDICTED BY IDOCK:   -3.69 KCAL/MOL
REMARK 924 INTRA-LIGAND FREE ENERGY PREDICTED BY IDOCK:    0.13 KCAL/MOL
REMARK 927      BINDING AFFINITY PREDICTED BY RF-SCORE:    0.00 PKD
ROOT
HETATM    1  N   UNL     1      -6.570   6.606  68.569  1.00  0.00    -0.049 N  
HETATM    2  C   UNL     1      -7.207   7.429  69.462  1.00  0.00    -0.082 C  
HETATM    3  H1  UNL     1      -7.106   6.290  67.761  1.00  0.00     0.000 HD 
HETATM    4  H2  UNL     1      -5.600   6.321  68.707  1.00  0.00     0.000 HD 
HETATM    5  O   UNL     1      -6.560   7.809  70.436  1.00  0.00    -0.038 OA 
ENDROOT
BRANCH   2   6
HETATM    6  N   UNL     1      -8.563   7.659  69.186  1.00  0.00    -0.138 N  
HETATM    7  C   UNL     1      -9.587   7.335  70.152  1.00  0.00    -0.168 A  
HETATM    8  C   UNL     1      -9.335   7.495  71.528  1.00  0.00    -0.154 A  
HETATM    9  C   UNL     1     -10.316   7.232  72.487  1.00  0.00    -0.254 A  
HETATM   10  C   UNL     1     -11.572   6.789  72.094  1.00  0.00    -0.324 A  
HETATM   11  C   UNL     1     -11.839   6.599  70.742  1.00  0.00    -0.441 A  
HETATM   12  C   UNL     1     -10.864   6.871  69.764  1.00  0.00    -0.295 A  
HETATM   13  C   UNL     1     -11.227   6.552  68.380  1.00  0.00    -0.274 C  
HETATM   14  C   UNL     1     -10.883   7.285  67.316  1.00  0.00    -0.354 C  
HETATM   15  C   UNL     1     -10.091   8.514  67.392  1.00  0.00    -0.298 A  
HETATM   16  C   UNL     1     -10.439   9.553  66.510  1.00  0.00    -0.201 A  
HETATM   17  C   UNL     1      -9.703  10.737  66.468  1.00  0.00    -0.236 A  
HETATM   18  C   UNL     1      -8.599  10.890  67.292  1.00  0.00    -0.128 A  
HETATM   19  C   UNL     1      -8.235   9.864  68.162  1.00  0.00    -0.109 A  
HETATM   20  C   UNL     1      -8.970   8.662  68.231  1.00  0.00    -0.142 A  
ENDBRANCH   2   6
TORSDOF 1
ENDMDL
MODEL      122
REMARK 921   NORMALIZED FREE ENERGY PREDICTED BY IDOCK:   -3.44 KCAL/MOL
REMARK 922        TOTAL FREE ENERGY PREDICTED BY IDOCK:   -3.55 KCAL/MOL
REMARK 923 INTER-LIGAND FREE ENERGY PREDICTED BY IDOCK:   -3.78 KCAL/MOL
REMARK 924 INTRA-LIGAND FREE ENERGY PREDICTED BY IDOCK:    0.23 KCAL/MOL
REMARK 927      BINDING AFFINITY PREDICTED BY RF-SCORE:    0.00 PKD
ROOT
HETATM    1  N   UNL     1      -6.569  10.326  70.937  1.00  0.00     0.046 N  
HETATM    2  C   UNL     1      -7.032   9.230  70.254  1.00  0.00    -0.076 C  
HETATM    3  H1  UNL     1      -7.152  11.164  70.924  1.00  0.00     0.000 HD 
HETATM    4  H2  UNL     1      -5.681  10.305  71.437  1.00  0.00     0.000 HD 
HETATM    5  O   UNL     1      -6.330   8.222  70.270  1.00  0.00    -0.035 OA 
ENDROOT
BRANCH   2   6
HETATM    6  N   UNL     1      -8.223   9.440  69.542  1.00  0.00    -0.114 N  
HETATM    7  C   UNL     1      -8.354   9.021  68.167  1.00  0.00    -0.121 A  
HETATM    8  C   UNL     1      -7.722   7.843  67.724  1.00  0.00    -0.121 A  
HETATM    9  C   UNL     1      -7.863   7.385  66.412  1.00  0.00    -0.102 A  
HETATM   10  C   UNL     1      -8.628   8.102  65.504  1.00  0.00    -0.173 A  
HETATM   11  C   UNL     1      -9.244   9.283  65.908  1.00  0.00    -0.277 A  
HETATM   12  C   UNL     1      -9.120   9.750  67.230  1.00  0.00    -0.150 A  
HETATM   13  C   UNL     1      -9.737  11.048  67.519  1.00  0.00    -0.190 C  
HETATM   14  C   UNL     1     -10.362  11.355  68.661  1.00  0.00    -0.219 C  
HETATM   15  C   UNL     1     -10.514  10.427  69.784  1.00  0.00    -0.284 A  
HETATM   16  C   UNL     1     -11.729  10.474  70.489  1.00  0.00    -0.443 A  
HETATM   17  C   UNL     1     -11.941   9.671  71.611  1.00  0.00    -0.470 A  
HETATM   18  C   UNL     1     -10.935   8.826  72.051  1.00  0.00    -0.438 A  
HETATM   19  C   UNL     1      -9.720   8.779  71.368  1.00  0.00    -0.351 A  
HETATM   20  C   UNL     1      -9.486   9.573  70.227  1.00  0.00    -0.259 A  
ENDBRANCH   2   6
TORSDOF 1
ENDMDL
MODEL      123
REMARK 921   NORMALIZED FREE ENERGY PREDICTED BY IDOCK:   -3.42 KCAL/MOL
REMARK 922        TOTAL FREE ENERGY PREDICTED BY IDOCK:   -3.53 KCAL/MOL
REMARK 923 INTER-LIGAND FREE ENERGY PREDICTED BY IDOCK:   -3.59 KCAL/MOL
REMARK 924 INTRA-LIGAND FREE ENERGY PREDICTED BY IDOCK:    0.06 KCAL/MOL
REMARK 927      BINDING AFFINITY PREDICTED BY RF-SCORE:    0.00 PKD
ROOT
HETATM    1  N   UNL     1      -8.189   8.692  72.253  1.00  0.00    -0.095 N  
HETATM    2  C   UNL     1      -9.423   8.352  71.759  1.00  0.00    -0.233 C  
HETATM    3  H1  UNL     1      -7.406   8.085  72.011  1.00  0.00     0.000 HD 
HETATM    4  H2  UNL     1      -8.059   9.517  72.838  1.00  0.00     0.000 HD 
HETATM    5  O   UNL     1     -10.365   9.084  72.052  1.00  0.00    -0.339 OA 
ENDROOT
BRANCH   2   6
HETATM    6  N   UNL     1      -9.459   7.144  71.047  1.00  0.00    -0.159 N  
HETATM    7  C   UNL     1      -9.896   5.920  71.676  1.00  0.00    -0.165 A  
HETATM    8  C   UNL     1     -10.922   5.949  72.640  1.00  0.00    -0.305 A  
HETATM    9  C   UNL     1     -11.399   4.780  73.237  1.00  0.00    -0.408 A  
HETATM   10  C   UNL     1     -10.853   3.551  72.895  1.00  0.00    -0.138 A  
HETATM   11  C   UNL     1      -9.821   3.496  71.963  1.00  0.00    -0.238 A  
HETATM   12  C   UNL     1      -9.338   4.665  71.345  1.00  0.00    -0.206 A  
HETATM   13  C   UNL     1      -8.192   4.497  70.447  1.00  0.00    -0.072 C  
HETATM   14  C   UNL     1      -8.017   5.168  69.304  1.00  0.00    -0.080 C  
HETATM   15  C   UNL     1      -8.956   6.170  68.793  1.00  0.00    -0.123 A  
HETATM   16  C   UNL     1      -9.156   6.205  67.402  1.00  0.00    -0.110 A  
HETATM   17  C   UNL     1      -9.984   7.164  66.818  1.00  0.00    -0.278 A  
HETATM   18  C   UNL     1     -10.608   8.111  67.616  1.00  0.00    -0.258 A  
HETATM   19  C   UNL     1     -10.409   8.095  68.996  1.00  0.00    -0.229 A  
HETATM   20  C   UNL     1      -9.584   7.129  69.609  1.00  0.00    -0.154 A  
ENDBRANCH   2   6
TORSDOF 1
ENDMDL
MODEL      124
REMARK 921   NORMALIZED FREE ENERGY PREDICTED BY IDOCK:   -3.41 KCAL/MOL
REMARK 922        TOTAL FREE ENERGY PREDICTED BY IDOCK:   -3.52 KCAL/MOL
REMARK 923 INTER-LIGAND FREE ENERGY PREDICTED BY IDOCK:   -3.60 KCAL/MOL
REMARK 924 INTRA-LIGAND FREE ENERGY PREDICTED BY IDOCK:    0.07 KCAL/MOL
REMARK 927      BINDING AFFINITY PREDICTED BY RF-SCORE:    0.00 PKD
ROOT
HETATM    1  N   UNL     1      -7.207   4.078  70.111  1.00  0.00    -0.042 N  
HETATM    2  C   UNL     1      -7.157   5.424  70.374  1.00  0.00    -0.061 C  
HETATM    3  H1  UNL     1      -8.040   3.726  69.641  1.00  0.00     0.000 HD 
HETATM    4  H2  UNL     1      -6.442   3.457  70.375  1.00  0.00     0.000 HD 
HETATM    5  O   UNL     1      -6.153   5.848  70.940  1.00  0.00    -0.031 OA 
ENDROOT
BRANCH   2   6
HETATM    6  N   UNL     1      -8.319   6.133  70.034  1.00  0.00    -0.123 N  
HETATM    7  C   UNL     1      -9.188   6.673  71.053  1.00  0.00    -0.160 A  
HETATM    8  C   UNL     1      -8.645   7.172  72.252  1.00  0.00    -0.128 A  
HETATM    9  C   UNL     1      -9.452   7.740  73.241  1.00  0.00    -0.344 A  
HETATM   10  C   UNL     1     -10.826   7.812  73.061  1.00  0.00    -0.451 A  
HETATM   11  C   UNL     1     -11.392   7.303  71.896  1.00  0.00    -0.288 A  
HETATM   12  C   UNL     1     -10.590   6.739  70.886  1.00  0.00    -0.252 A  
HETATM   13  C   UNL     1     -11.301   6.157  69.744  1.00  0.00    -0.452 C  
HETATM   14  C   UNL     1     -10.884   6.226  68.475  1.00  0.00    -0.394 C  
HETATM   15  C   UNL     1      -9.653   6.898  68.054  1.00  0.00    -0.125 A  
HETATM   16  C   UNL     1      -9.692   7.596  66.835  1.00  0.00    -0.277 A  
HETATM   17  C   UNL     1      -8.551   8.216  66.324  1.00  0.00    -0.157 A  
HETATM   18  C   UNL     1      -7.353   8.128  67.015  1.00  0.00    -0.088 A  
HETATM   19  C   UNL     1      -7.297   7.427  68.220  1.00  0.00    -0.100 A  
HETATM   20  C   UNL     1      -8.439   6.803  68.761  1.00  0.00    -0.124 A  
ENDBRANCH   2   6
TORSDOF 1
ENDMDL
MODEL      125
REMARK 921   NORMALIZED FREE ENERGY PREDICTED BY IDOCK:   -3.39 KCAL/MOL
REMARK 922        TOTAL FREE ENERGY PREDICTED BY IDOCK:   -3.50 KCAL/MOL
REMARK 923 INTER-LIGAND FREE ENERGY PREDICTED BY IDOCK:   -3.56 KCAL/MOL
REMARK 924 INTRA-LIGAND FREE ENERGY PREDICTED BY IDOCK:    0.06 KCAL/MOL
REMARK 927      BINDING AFFINITY PREDICTED BY RF-SCORE:    0.00 PKD
ROOT
HETATM    1  N   UNL     1      -7.642   9.559  68.591  1.00  0.00    -0.079 N  
HETATM    2  C   UNL     1      -8.952   9.157  68.533  1.00  0.00    -0.133 C  
HETATM    3  H1  UNL     1      -6.974   8.912  69.009  1.00  0.00     0.000 HD 
HETATM    4  H2  UNL     1      -7.349  10.467  68.231  1.00  0.00     0.000 HD 
HETATM    5  O   UNL     1      -9.757   9.936  68.030  1.00  0.00    -0.138 OA 
ENDROOT
BRANCH   2   6
HETATM    6  N   UNL     1      -9.216   7.924  69.149  1.00  0.00    -0.145 N  
HETATM    7  C   UNL     1      -9.792   7.858  70.472  1.00  0.00    -0.186 A  
HETATM    8  C   UNL     1     -10.737   8.819  70.879  1.00  0.00    -0.282 A  
HETATM    9  C   UNL     1     -11.345   8.762  72.135  1.00  0.00    -0.411 A  
HETATM   10  C   UNL     1     -11.013   7.748  73.023  1.00  0.00    -0.442 A  
HETATM   11  C   UNL     1     -10.064   6.799  72.655  1.00  0.00    -0.193 A  
HETATM   12  C   UNL     1      -9.452   6.838  71.388  1.00  0.00    -0.160 A  
HETATM   13  C   UNL     1      -8.405   5.842  71.144  1.00  0.00    -0.123 C  
HETATM   14  C   UNL     1      -8.206   5.219  69.977  1.00  0.00    -0.084 C  
HETATM   15  C   UNL     1      -9.014   5.453  68.778  1.00  0.00    -0.127 A  
HETATM   16  C   UNL     1      -9.296   4.336  67.972  1.00  0.00    -0.200 A  
HETATM   17  C   UNL     1     -10.007   4.471  66.779  1.00  0.00    -0.240 A  
HETATM   18  C   UNL     1     -10.428   5.727  66.368  1.00  0.00    -0.217 A  
HETATM   19  C   UNL     1     -10.144   6.845  67.152  1.00  0.00    -0.272 A  
HETATM   20  C   UNL     1      -9.436   6.731  68.366  1.00  0.00    -0.126 A  
ENDBRANCH   2   6
TORSDOF 1
ENDMDL
MODEL      126
REMARK 921   NORMALIZED FREE ENERGY PREDICTED BY IDOCK:   -3.32 KCAL/MOL
REMARK 922        TOTAL FREE ENERGY PREDICTED BY IDOCK:   -3.43 KCAL/MOL
REMARK 923 INTER-LIGAND FREE ENERGY PREDICTED BY IDOCK:   -4.03 KCAL/MOL
REMARK 924 INTRA-LIGAND FREE ENERGY PREDICTED BY IDOCK:    0.60 KCAL/MOL
REMARK 927      BINDING AFFINITY PREDICTED BY RF-SCORE:    0.00 PKD
ROOT
HETATM    1  N   UNL     1     -12.884   7.113  70.800  1.00  0.00    -0.591 N  
HETATM    2  C   UNL     1     -11.982   7.943  71.417  1.00  0.00    -0.303 C  
HETATM    3  H1  UNL     1     -12.554   6.581  69.995  1.00  0.00     0.000 HD 
HETATM    4  H2  UNL     1     -13.845   7.031  71.134  1.00  0.00     0.000 HD 
HETATM    5  O   UNL     1     -12.380   8.583  72.387  1.00  0.00    -0.374 OA 
ENDROOT
BRANCH   2   6
HETATM    6  N   UNL     1     -10.729   8.017  70.791  1.00  0.00    -0.219 N  
HETATM    7  C   UNL     1      -9.959   6.826  70.520  1.00  0.00    -0.183 A  
HETATM    8  C   UNL     1     -10.610   5.629  70.166  1.00  0.00    -0.380 A  
HETATM    9  C   UNL     1      -9.895   4.470  69.856  1.00  0.00    -0.298 A  
HETATM   10  C   UNL     1      -8.508   4.475  69.904  1.00  0.00    -0.084 A  
HETATM   11  C   UNL     1      -7.839   5.638  70.274  1.00  0.00    -0.098 A  
HETATM   12  C   UNL     1      -8.547   6.817  70.578  1.00  0.00    -0.142 A  
HETATM   13  C   UNL     1      -7.744   7.953  71.040  1.00  0.00    -0.084 C  
HETATM   14  C   UNL     1      -7.982   9.230  70.721  1.00  0.00    -0.187 C  
HETATM   15  C   UNL     1      -9.085   9.666  69.862  1.00  0.00    -0.250 A  
HETATM   16  C   UNL     1      -8.825  10.732  68.983  1.00  0.00    -0.135 A  
HETATM   17  C   UNL     1      -9.831  11.256  68.171  1.00  0.00    -0.190 A  
HETATM   18  C   UNL     1     -11.113  10.733  68.241  1.00  0.00    -0.327 A  
HETATM   19  C   UNL     1     -11.388   9.684  69.117  1.00  0.00     0.029 A  
HETATM   20  C   UNL     1     -10.385   9.131  69.940  1.00  0.00    -0.212 A  
ENDBRANCH   2   6
TORSDOF 1
ENDMDL
MODEL      127
REMARK 921   NORMALIZED FREE ENERGY PREDICTED BY IDOCK:   -3.28 KCAL/MOL
REMARK 922        TOTAL FREE ENERGY PREDICTED BY IDOCK:   -3.39 KCAL/MOL
REMARK 923 INTER-LIGAND FREE ENERGY PREDICTED BY IDOCK:   -3.47 KCAL/MOL
REMARK 924 INTRA-LIGAND FREE ENERGY PREDICTED BY IDOCK:    0.08 KCAL/MOL
REMARK 927      BINDING AFFINITY PREDICTED BY RF-SCORE:    0.00 PKD
ROOT
HETATM    1  N   UNL     1     -10.986  11.645  66.486  1.00  0.00    -0.289 N  
HETATM    2  C   UNL     1     -10.323  10.508  66.097  1.00  0.00    -0.210 C  
HETATM    3  H1  UNL     1     -10.814  11.983  67.432  1.00  0.00     0.000 HD 
HETATM    4  H2  UNL     1     -11.623  12.130  65.855  1.00  0.00     0.000 HD 
HETATM    5  O   UNL     1     -10.529  10.101  64.956  1.00  0.00    -0.168 OA 
ENDROOT
BRANCH   2   6
HETATM    6  N   UNL     1      -9.552   9.904  67.102  1.00  0.00    -0.158 N  
HETATM    7  C   UNL     1      -9.921   8.622  67.655  1.00  0.00    -0.194 A  
HETATM    8  C   UNL     1     -10.508   7.641  66.833  1.00  0.00    -0.388 A  
HETATM    9  C   UNL     1     -10.837   6.376  67.325  1.00  0.00    -0.463 A  
HETATM   10  C   UNL     1     -10.601   6.063  68.656  1.00  0.00    -0.327 A  
HETATM   11  C   UNL     1     -10.044   7.023  69.496  1.00  0.00    -0.179 A  
HETATM   12  C   UNL     1      -9.696   8.298  69.012  1.00  0.00    -0.167 A  
HETATM   13  C   UNL     1      -9.201   9.255  70.005  1.00  0.00    -0.231 C  
HETATM   14  C   UNL     1      -8.223  10.141  69.784  1.00  0.00    -0.161 C  
HETATM   15  C   UNL     1      -7.512  10.273  68.511  1.00  0.00    -0.084 A  
HETATM   16  C   UNL     1      -6.136  10.553  68.574  1.00  0.00    -0.043 A  
HETATM   17  C   UNL     1      -5.389  10.756  67.414  1.00  0.00    -0.040 A  
HETATM   18  C   UNL     1      -6.012  10.701  66.177  1.00  0.00    -0.121 A  
HETATM   19  C   UNL     1      -7.378  10.436  66.099  1.00  0.00    -0.131 A  
HETATM   20  C   UNL     1      -8.152  10.217  67.258  1.00  0.00    -0.114 A  
ENDBRANCH   2   6
TORSDOF 1
ENDMDL
MODEL      128
REMARK 921   NORMALIZED FREE ENERGY PREDICTED BY IDOCK:   -3.20 KCAL/MOL
REMARK 922        TOTAL FREE ENERGY PREDICTED BY IDOCK:   -3.30 KCAL/MOL
REMARK 923 INTER-LIGAND FREE ENERGY PREDICTED BY IDOCK:   -3.42 KCAL/MOL
REMARK 924 INTRA-LIGAND FREE ENERGY PREDICTED BY IDOCK:    0.12 KCAL/MOL
REMARK 927      BINDING AFFINITY PREDICTED BY RF-SCORE:    0.00 PKD
ROOT
HETATM    1  N   UNL     1      -8.006   5.905  68.397  1.00  0.00    -0.104 N  
HETATM    2  C   UNL     1      -9.034   5.441  69.178  1.00  0.00    -0.104 C  
HETATM    3  H1  UNL     1      -7.333   6.533  68.836  1.00  0.00     0.000 HD 
HETATM    4  H2  UNL     1      -7.919   5.634  67.417  1.00  0.00     0.000 HD 
HETATM    5  O   UNL     1      -9.845   4.686  68.648  1.00  0.00    -0.161 OA 
ENDROOT
BRANCH   2   6
HETATM    6  N   UNL     1      -9.072   5.973  70.476  1.00  0.00    -0.148 N  
HETATM    7  C   UNL     1     -10.219   6.712  70.946  1.00  0.00    -0.196 A  
HETATM    8  C   UNL     1     -11.514   6.346  70.531  1.00  0.00    -0.444 A  
HETATM    9  C   UNL     1     -12.649   7.012  71.000  1.00  0.00    -0.338 A  
HETATM   10  C   UNL     1     -12.518   8.071  71.887  1.00  0.00    -0.364 A  
HETATM   11  C   UNL     1     -11.248   8.470  72.294  1.00  0.00    -0.432 A  
HETATM   12  C   UNL     1     -10.096   7.800  71.839  1.00  0.00    -0.231 A  
HETATM   13  C   UNL     1      -8.811   8.362  72.264  1.00  0.00    -0.289 C  
HETATM   14  C   UNL     1      -7.735   7.636  72.590  1.00  0.00    -0.116 C  
HETATM   15  C   UNL     1      -7.699   6.172  72.564  1.00  0.00    -0.103 A  
HETATM   16  C   UNL     1      -6.969   5.534  73.582  1.00  0.00    -0.085 A  
HETATM   17  C   UNL     1      -6.827   4.146  73.604  1.00  0.00    -0.058 A  
HETATM   18  C   UNL     1      -7.398   3.381  72.599  1.00  0.00    -0.050 A  
HETATM   19  C   UNL     1      -8.114   4.001  71.577  1.00  0.00    -0.077 A  
HETATM   20  C   UNL     1      -8.280   5.401  71.539  1.00  0.00    -0.118 A  
ENDBRANCH   2   6
TORSDOF 1
ENDMDL
MODEL      129
REMARK 921   NORMALIZED FREE ENERGY PREDICTED BY IDOCK:   -3.20 KCAL/MOL
REMARK 922        TOTAL FREE ENERGY PREDICTED BY IDOCK:   -3.29 KCAL/MOL
REMARK 923 INTER-LIGAND FREE ENERGY PREDICTED BY IDOCK:   -3.36 KCAL/MOL
REMARK 924 INTRA-LIGAND FREE ENERGY PREDICTED BY IDOCK:    0.06 KCAL/MOL
REMARK 927      BINDING AFFINITY PREDICTED BY RF-SCORE:    0.00 PKD
ROOT
HETATM    1  N   UNL     1      -6.452   7.513  72.828  1.00  0.00    -0.059 N  
HETATM    2  C   UNL     1      -7.470   6.753  72.310  1.00  0.00    -0.092 C  
HETATM    3  H1  UNL     1      -6.326   8.449  72.443  1.00  0.00     0.000 HD 
HETATM    4  H2  UNL     1      -5.847   7.157  73.569  1.00  0.00     0.000 HD 
HETATM    5  O   UNL     1      -7.621   5.626  72.775  1.00  0.00    -0.095 OA 
ENDROOT
BRANCH   2   6
HETATM    6  N   UNL     1      -8.156   7.342  71.237  1.00  0.00    -0.100 N  
HETATM    7  C   UNL     1      -7.928   6.911  69.878  1.00  0.00    -0.120 A  
HETATM    8  C   UNL     1      -7.663   5.556  69.603  1.00  0.00    -0.078 A  
HETATM    9  C   UNL     1      -7.480   5.097  68.296  1.00  0.00    -0.075 A  
HETATM   10  C   UNL     1      -7.543   5.985  67.231  1.00  0.00    -0.093 A  
HETATM   11  C   UNL     1      -7.779   7.334  67.478  1.00  0.00    -0.111 A  
HETATM   12  C   UNL     1      -7.978   7.809  68.788  1.00  0.00    -0.125 A  
HETATM   13  C   UNL     1      -8.130   9.259  68.935  1.00  0.00    -0.103 C  
HETATM   14  C   UNL     1      -8.964   9.852  69.798  1.00  0.00    -0.242 C  
HETATM   15  C   UNL     1      -9.841   9.124  70.717  1.00  0.00    -0.334 A  
HETATM   16  C   UNL     1     -11.119   9.666  70.942  1.00  0.00    -0.422 A  
HETATM   17  C   UNL     1     -12.001   9.076  71.848  1.00  0.00    -0.445 A  
HETATM   18  C   UNL     1     -11.610   7.949  72.553  1.00  0.00    -0.443 A  
HETATM   19  C   UNL     1     -10.341   7.408  72.350  1.00  0.00    -0.263 A  
HETATM   20  C   UNL     1      -9.436   7.980  71.432  1.00  0.00    -0.154 A  
ENDBRANCH   2   6
TORSDOF 1
ENDMDL
MODEL      130
REMARK 921   NORMALIZED FREE ENERGY PREDICTED BY IDOCK:   -3.11 KCAL/MOL
REMARK 922        TOTAL FREE ENERGY PREDICTED BY IDOCK:   -3.21 KCAL/MOL
REMARK 923 INTER-LIGAND FREE ENERGY PREDICTED BY IDOCK:   -3.32 KCAL/MOL
REMARK 924 INTRA-LIGAND FREE ENERGY PREDICTED BY IDOCK:    0.12 KCAL/MOL
REMARK 927      BINDING AFFINITY PREDICTED BY RF-SCORE:    0.00 PKD
ROOT
HETATM    1  N   UNL     1      -5.689  11.801  66.179  1.00  0.00    -0.129 N  
HETATM    2  C   UNL     1      -6.447  11.737  67.321  1.00  0.00    -0.131 C  
HETATM    3  H1  UNL     1      -5.966  12.483  65.472  1.00  0.00     0.000 HD 
HETATM    4  H2  UNL     1      -4.881  11.194  66.043  1.00  0.00     0.000 HD 
HETATM    5  O   UNL     1      -6.112  10.917  68.171  1.00  0.00    -0.049 OA 
ENDROOT
BRANCH   2   6
HETATM    6  N   UNL     1      -7.576  12.571  67.324  1.00  0.00    -0.150 N  
HETATM    7  C   UNL     1      -8.906  12.025  67.453  1.00  0.00    -0.178 A  
HETATM    8  C   UNL     1      -9.130  10.896  68.265  1.00  0.00    -0.158 A  
HETATM    9  C   UNL     1     -10.410  10.367  68.446  1.00  0.00    -0.198 A  
HETATM   10  C   UNL     1     -11.499  10.946  67.809  1.00  0.00    -0.323 A  
HETATM   11  C   UNL     1     -11.302  12.048  66.982  1.00  0.00    -0.396 A  
HETATM   12  C   UNL     1     -10.019  12.599  66.799  1.00  0.00    -0.237 A  
HETATM   13  C   UNL     1      -9.919  13.701  65.838  1.00  0.00    -0.304 C  
HETATM   14  C   UNL     1      -9.127  14.768  65.987  1.00  0.00    -0.061 C  
HETATM   15  C   UNL     1      -8.248  14.979  67.139  1.00  0.00    -0.251 A  
HETATM   16  C   UNL     1      -8.118  16.297  67.610  1.00  0.00    -0.161 A  
HETATM   17  C   UNL     1      -7.257  16.604  68.664  1.00  0.00    -0.192 A  
HETATM   18  C   UNL     1      -6.499  15.600  69.247  1.00  0.00    -0.145 A  
HETATM   19  C   UNL     1      -6.608  14.290  68.781  1.00  0.00    -0.092 A  
HETATM   20  C   UNL     1      -7.480  13.954  67.725  1.00  0.00    -0.167 A  
ENDBRANCH   2   6
TORSDOF 1
ENDMDL
MODEL      131
REMARK 921   NORMALIZED FREE ENERGY PREDICTED BY IDOCK:   -3.10 KCAL/MOL
REMARK 922        TOTAL FREE ENERGY PREDICTED BY IDOCK:   -3.20 KCAL/MOL
REMARK 923 INTER-LIGAND FREE ENERGY PREDICTED BY IDOCK:   -3.31 KCAL/MOL
REMARK 924 INTRA-LIGAND FREE ENERGY PREDICTED BY IDOCK:    0.12 KCAL/MOL
REMARK 927      BINDING AFFINITY PREDICTED BY RF-SCORE:    0.00 PKD
ROOT
HETATM    1  N   UNL     1      -8.827  15.503  65.916  1.00  0.00    -0.376 N  
HETATM    2  C   UNL     1      -8.259  14.841  66.975  1.00  0.00    -0.179 C  
HETATM    3  H1  UNL     1      -9.519  14.995  65.365  1.00  0.00     0.000 HD 
HETATM    4  H2  UNL     1      -8.567  16.463  65.689  1.00  0.00     0.000 HD 
HETATM    5  O   UNL     1      -7.425  15.453  67.638  1.00  0.00    -0.140 OA 
ENDROOT
BRANCH   2   6
HETATM    6  N   UNL     1      -8.648  13.499  67.107  1.00  0.00    -0.209 N  
HETATM    7  C   UNL     1      -7.680  12.431  67.037  1.00  0.00    -0.063 A  
HETATM    8  C   UNL     1      -6.385  12.616  67.559  1.00  0.00    -0.159 A  
HETATM    9  C   UNL     1      -5.437  11.591  67.547  1.00  0.00    -0.061 A  
HETATM   10  C   UNL     1      -5.755  10.355  67.000  1.00  0.00    -0.046 A  
HETATM   11  C   UNL     1      -7.020  10.153  66.456  1.00  0.00    -0.102 A  
HETATM   12  C   UNL     1      -7.989  11.174  66.472  1.00  0.00    -0.158 A  
HETATM   13  C   UNL     1      -9.253  10.876  65.792  1.00  0.00    -0.224 C  
HETATM   14  C   UNL     1     -10.457  11.271  66.221  1.00  0.00    -0.308 C  
HETATM   15  C   UNL     1     -10.673  12.059  67.437  1.00  0.00    -0.266 A  
HETATM   16  C   UNL     1     -11.814  11.753  68.200  1.00  0.00    -0.324 A  
HETATM   17  C   UNL     1     -12.135  12.491  69.340  1.00  0.00    -0.237 A  
HETATM   18  C   UNL     1     -11.330  13.554  69.720  1.00  0.00    -0.161 A  
HETATM   19  C   UNL     1     -10.204  13.876  68.965  1.00  0.00    -0.071 A  
HETATM   20  C   UNL     1      -9.853  13.139  67.815  1.00  0.00    -0.228 A  
ENDBRANCH   2   6
TORSDOF 1
ENDMDL
MODEL      132
REMARK 921   NORMALIZED FREE ENERGY PREDICTED BY IDOCK:   -3.08 KCAL/MOL
REMARK 922        TOTAL FREE ENERGY PREDICTED BY IDOCK:   -3.17 KCAL/MOL
REMARK 923 INTER-LIGAND FREE ENERGY PREDICTED BY IDOCK:   -3.23 KCAL/MOL
REMARK 924 INTRA-LIGAND FREE ENERGY PREDICTED BY IDOCK:    0.07 KCAL/MOL
REMARK 927      BINDING AFFINITY PREDICTED BY RF-SCORE:    0.00 PKD
ROOT
HETATM    1  N   UNL     1      -8.509   8.657  64.990  1.00  0.00    -0.184 N  
HETATM    2  C   UNL     1      -9.298   8.859  66.095  1.00  0.00    -0.239 C  
HETATM    3  H1  UNL     1      -7.679   9.241  64.897  1.00  0.00     0.000 HD 
HETATM    4  H2  UNL     1      -8.743   7.951  64.292  1.00  0.00     0.000 HD 
HETATM    5  O   UNL     1     -10.298   8.154  66.207  1.00  0.00    -0.110 OA 
ENDROOT
BRANCH   2   6
HETATM    6  N   UNL     1      -8.897   9.923  66.917  1.00  0.00    -0.134 N  
HETATM    7  C   UNL     1      -9.424  11.253  66.724  1.00  0.00    -0.179 A  
HETATM    8  C   UNL     1     -10.757  11.432  66.310  1.00  0.00    -0.322 A  
HETATM    9  C   UNL     1     -11.312  12.705  66.155  1.00  0.00    -0.375 A  
HETATM   10  C   UNL     1     -10.541  13.833  66.398  1.00  0.00    -0.284 A  
HETATM   11  C   UNL     1      -9.213  13.686  66.784  1.00  0.00    -0.251 A  
HETATM   12  C   UNL     1      -8.644  12.409  66.956  1.00  0.00    -0.191 A  
HETATM   13  C   UNL     1      -7.215  12.375  67.278  1.00  0.00    -0.125 C  
HETATM   14  C   UNL     1      -6.647  11.506  68.122  1.00  0.00    -0.057 C  
HETATM   15  C   UNL     1      -7.385  10.465  68.841  1.00  0.00    -0.094 A  
HETATM   16  C   UNL     1      -6.980  10.191  70.159  1.00  0.00    -0.157 A  
HETATM   17  C   UNL     1      -7.583   9.175  70.901  1.00  0.00    -0.146 A  
HETATM   18  C   UNL     1      -8.585   8.407  70.328  1.00  0.00    -0.128 A  
HETATM   19  C   UNL     1      -8.988   8.659  69.017  1.00  0.00    -0.142 A  
HETATM   20  C   UNL     1      -8.400   9.688  68.251  1.00  0.00    -0.117 A  
ENDBRANCH   2   6
TORSDOF 1
ENDMDL
MODEL      133
REMARK 921   NORMALIZED FREE ENERGY PREDICTED BY IDOCK:   -3.07 KCAL/MOL
REMARK 922        TOTAL FREE ENERGY PREDICTED BY IDOCK:   -3.16 KCAL/MOL
REMARK 923 INTER-LIGAND FREE ENERGY PREDICTED BY IDOCK:   -3.22 KCAL/MOL
REMARK 924 INTRA-LIGAND FREE ENERGY PREDICTED BY IDOCK:    0.06 KCAL/MOL
REMARK 927      BINDING AFFINITY PREDICTED BY RF-SCORE:    0.00 PKD
ROOT
HETATM    1  N   UNL     1     -11.255   9.525  68.043  1.00  0.00    -0.509 N  
HETATM    2  C   UNL     1     -10.388   8.507  67.740  1.00  0.00    -0.237 C  
HETATM    3  H1  UNL     1     -11.076  10.052  68.898  1.00  0.00     0.000 HD 
HETATM    4  H2  UNL     1     -12.046   9.747  67.438  1.00  0.00     0.000 HD 
HETATM    5  O   UNL     1     -10.604   7.873  66.710  1.00  0.00    -0.326 OA 
ENDROOT
BRANCH   2   6
HETATM    6  N   UNL     1      -9.404   8.264  68.711  1.00  0.00    -0.144 N  
HETATM    7  C   UNL     1      -9.529   7.167  69.641  1.00  0.00    -0.152 A  
HETATM    8  C   UNL     1     -10.118   5.956  69.231  1.00  0.00    -0.251 A  
HETATM    9  C   UNL     1     -10.216   4.861  70.092  1.00  0.00    -0.310 A  
HETATM   10  C   UNL     1      -9.739   4.953  71.392  1.00  0.00    -0.237 A  
HETATM   11  C   UNL     1      -9.174   6.146  71.831  1.00  0.00    -0.150 A  
HETATM   12  C   UNL     1      -9.058   7.254  70.971  1.00  0.00    -0.153 A  
HETATM   13  C   UNL     1      -8.528   8.484  71.567  1.00  0.00    -0.221 C  
HETATM   14  C   UNL     1      -7.707   9.337  70.944  1.00  0.00    -0.134 C  
HETATM   15  C   UNL     1      -7.225   9.155  69.574  1.00  0.00    -0.060 A  
HETATM   16  C   UNL     1      -5.899   9.536  69.308  1.00  0.00    -0.034 A  
HETATM   17  C   UNL     1      -5.372   9.456  68.019  1.00  0.00    -0.037 A  
HETATM   18  C   UNL     1      -6.170   9.012  66.976  1.00  0.00    -0.059 A  
HETATM   19  C   UNL     1      -7.492   8.643  67.223  1.00  0.00    -0.089 A  
HETATM   20  C   UNL     1      -8.043   8.705  68.519  1.00  0.00    -0.117 A  
ENDBRANCH   2   6
TORSDOF 1
ENDMDL
MODEL      134
REMARK 921   NORMALIZED FREE ENERGY PREDICTED BY IDOCK:   -3.07 KCAL/MOL
REMARK 922        TOTAL FREE ENERGY PREDICTED BY IDOCK:   -3.16 KCAL/MOL
REMARK 923 INTER-LIGAND FREE ENERGY PREDICTED BY IDOCK:   -3.45 KCAL/MOL
REMARK 924 INTRA-LIGAND FREE ENERGY PREDICTED BY IDOCK:    0.29 KCAL/MOL
REMARK 927      BINDING AFFINITY PREDICTED BY RF-SCORE:    0.00 PKD
ROOT
HETATM    1  N   UNL     1     -10.096   7.779  70.879  1.00  0.00    -0.187 N  
HETATM    2  C   UNL     1     -10.610   7.306  69.698  1.00  0.00    -0.235 C  
HETATM    3  H1  UNL     1      -9.267   8.370  70.824  1.00  0.00     0.000 HD 
HETATM    4  H2  UNL     1     -10.527   7.550  71.775  1.00  0.00     0.000 HD 
HETATM    5  O   UNL     1     -11.609   6.595  69.766  1.00  0.00    -0.351 OA 
ENDROOT
BRANCH   2   6
HETATM    6  N   UNL     1      -9.859   7.631  68.558  1.00  0.00    -0.162 N  
HETATM    7  C   UNL     1      -9.608   6.653  67.526  1.00  0.00    -0.126 A  
HETATM    8  C   UNL     1     -10.590   5.696  67.207  1.00  0.00    -0.328 A  
HETATM    9  C   UNL     1     -10.398   4.763  66.185  1.00  0.00    -0.337 A  
HETATM   10  C   UNL     1      -9.212   4.754  65.465  1.00  0.00    -0.155 A  
HETATM   11  C   UNL     1      -8.214   5.674  65.776  1.00  0.00    -0.122 A  
HETATM   12  C   UNL     1      -8.399   6.628  66.795  1.00  0.00    -0.115 A  
HETATM   13  C   UNL     1      -7.249   7.486  67.095  1.00  0.00    -0.086 C  
HETATM   14  C   UNL     1      -7.332   8.782  67.413  1.00  0.00    -0.081 C  
HETATM   15  C   UNL     1      -8.592   9.522  67.507  1.00  0.00    -0.126 A  
HETATM   16  C   UNL     1      -8.586  10.852  67.053  1.00  0.00    -0.136 A  
HETATM   17  C   UNL     1      -9.723  11.654  67.158  1.00  0.00    -0.195 A  
HETATM   18  C   UNL     1     -10.875  11.141  67.736  1.00  0.00    -0.288 A  
HETATM   19  C   UNL     1     -10.891   9.827  68.202  1.00  0.00    -0.264 A  
HETATM   20  C   UNL     1      -9.758   8.995  68.097  1.00  0.00    -0.152 A  
ENDBRANCH   2   6
TORSDOF 1
ENDMDL
MODEL      135
REMARK 921   NORMALIZED FREE ENERGY PREDICTED BY IDOCK:   -3.05 KCAL/MOL
REMARK 922        TOTAL FREE ENERGY PREDICTED BY IDOCK:   -3.14 KCAL/MOL
REMARK 923 INTER-LIGAND FREE ENERGY PREDICTED BY IDOCK:   -3.65 KCAL/MOL
REMARK 924 INTRA-LIGAND FREE ENERGY PREDICTED BY IDOCK:    0.51 KCAL/MOL
REMARK 927      BINDING AFFINITY PREDICTED BY RF-SCORE:    0.00 PKD
ROOT
HETATM    1  N   UNL     1     -10.864   8.677  67.685  1.00  0.00    -0.493 N  
HETATM    2  C   UNL     1     -10.649   7.323  67.711  1.00  0.00    -0.221 C  
HETATM    3  H1  UNL     1     -10.400   9.237  68.400  1.00  0.00     0.000 HD 
HETATM    4  H2  UNL     1     -11.463   9.107  66.979  1.00  0.00     0.000 HD 
HETATM    5  O   UNL     1     -11.208   6.649  66.849  1.00  0.00    -0.391 OA 
ENDROOT
BRANCH   2   6
HETATM    6  N   UNL     1      -9.877   6.871  68.791  1.00  0.00    -0.147 N  
HETATM    7  C   UNL     1      -8.477   7.205  68.899  1.00  0.00    -0.126 A  
HETATM    8  C   UNL     1      -8.015   8.461  68.462  1.00  0.00    -0.121 A  
HETATM    9  C   UNL     1      -6.675   8.833  68.590  1.00  0.00    -0.059 A  
HETATM   10  C   UNL     1      -5.758   7.953  69.149  1.00  0.00    -0.030 A  
HETATM   11  C   UNL     1      -6.183   6.696  69.567  1.00  0.00    -0.037 A  
HETATM   12  C   UNL     1      -7.533   6.311  69.455  1.00  0.00    -0.093 A  
HETATM   13  C   UNL     1      -7.849   4.935  69.846  1.00  0.00    -0.066 C  
HETATM   14  C   UNL     1      -8.964   4.563  70.483  1.00  0.00    -0.155 C  
HETATM   15  C   UNL     1     -10.027   5.490  70.878  1.00  0.00    -0.260 A  
HETATM   16  C   UNL     1     -10.658   5.248  72.111  1.00  0.00    -0.281 A  
HETATM   17  C   UNL     1     -11.721   6.041  72.543  1.00  0.00    -0.280 A  
HETATM   18  C   UNL     1     -12.179   7.074  71.739  1.00  0.00    -0.387 A  
HETATM   19  C   UNL     1     -11.571   7.316  70.508  1.00  0.00    -0.292 A  
HETATM   20  C   UNL     1     -10.488   6.535  70.055  1.00  0.00    -0.212 A  
ENDBRANCH   2   6
TORSDOF 1
ENDMDL
MODEL      136
REMARK 921   NORMALIZED FREE ENERGY PREDICTED BY IDOCK:   -3.04 KCAL/MOL
REMARK 922        TOTAL FREE ENERGY PREDICTED BY IDOCK:   -3.13 KCAL/MOL
REMARK 923 INTER-LIGAND FREE ENERGY PREDICTED BY IDOCK:   -3.23 KCAL/MOL
REMARK 924 INTRA-LIGAND FREE ENERGY PREDICTED BY IDOCK:    0.10 KCAL/MOL
REMARK 927      BINDING AFFINITY PREDICTED BY RF-SCORE:    0.00 PKD
ROOT
HETATM    1  N   UNL     1      -6.459   7.640  68.339  1.00  0.00    -0.051 N  
HETATM    2  C   UNL     1      -6.871   7.377  69.621  1.00  0.00    -0.052 C  
HETATM    3  H1  UNL     1      -7.097   7.392  67.584  1.00  0.00     0.000 HD 
HETATM    4  H2  UNL     1      -5.552   8.067  68.150  1.00  0.00     0.000 HD 
HETATM    5  O   UNL     1      -6.102   7.677  70.531  1.00  0.00    -0.030 OA 
ENDROOT
BRANCH   2   6
HETATM    6  N   UNL     1      -8.100   6.708  69.717  1.00  0.00    -0.124 N  
HETATM    7  C   UNL     1      -8.180   5.272  69.593  1.00  0.00    -0.095 A  
HETATM    8  C   UNL     1      -7.143   4.462  70.094  1.00  0.00    -0.045 A  
HETATM    9  C   UNL     1      -7.206   3.068  70.029  1.00  0.00    -0.041 A  
HETATM   10  C   UNL     1      -8.304   2.448  69.450  1.00  0.00    -0.077 A  
HETATM   11  C   UNL     1      -9.332   3.225  68.925  1.00  0.00    -0.232 A  
HETATM   12  C   UNL     1      -9.287   4.631  68.994  1.00  0.00    -0.203 A  
HETATM   13  C   UNL     1     -10.381   5.347  68.332  1.00  0.00    -0.216 C  
HETATM   14  C   UNL     1     -10.949   6.464  68.798  1.00  0.00    -0.404 C  
HETATM   15  C   UNL     1     -10.551   7.126  70.042  1.00  0.00    -0.248 A  
HETATM   16  C   UNL     1     -11.576   7.694  70.819  1.00  0.00    -0.284 A  
HETATM   17  C   UNL     1     -11.286   8.397  71.989  1.00  0.00    -0.411 A  
HETATM   18  C   UNL     1      -9.968   8.557  72.386  1.00  0.00    -0.365 A  
HETATM   19  C   UNL     1      -8.940   8.010  71.619  1.00  0.00    -0.192 A  
HETATM   20  C   UNL     1      -9.209   7.286  70.439  1.00  0.00    -0.158 A  
ENDBRANCH   2   6
TORSDOF 1
ENDMDL
MODEL      137
REMARK 921   NORMALIZED FREE ENERGY PREDICTED BY IDOCK:   -3.04 KCAL/MOL
REMARK 922        TOTAL FREE ENERGY PREDICTED BY IDOCK:   -3.13 KCAL/MOL
REMARK 923 INTER-LIGAND FREE ENERGY PREDICTED BY IDOCK:   -3.63 KCAL/MOL
REMARK 924 INTRA-LIGAND FREE ENERGY PREDICTED BY IDOCK:    0.51 KCAL/MOL
REMARK 927      BINDING AFFINITY PREDICTED BY RF-SCORE:    0.00 PKD
ROOT
HETATM    1  N   UNL     1     -10.123  10.117  67.038  1.00  0.00    -0.213 N  
HETATM    2  C   UNL     1      -9.382  11.062  66.374  1.00  0.00    -0.183 C  
HETATM    3  H1  UNL     1     -10.358  10.309  68.011  1.00  0.00     0.000 HD 
HETATM    4  H2  UNL     1     -10.426   9.260  66.576  1.00  0.00     0.000 HD 
HETATM    5  O   UNL     1      -9.099  10.831  65.201  1.00  0.00    -0.193 OA 
ENDROOT
BRANCH   2   6
HETATM    6  N   UNL     1      -8.964  12.143  67.164  1.00  0.00    -0.182 N  
HETATM    7  C   UNL     1      -9.834  13.269  67.409  1.00  0.00    -0.227 A  
HETATM    8  C   UNL     1     -11.221  13.072  67.547  1.00  0.00    -0.320 A  
HETATM    9  C   UNL     1     -12.086  14.132  67.827  1.00  0.00    -0.321 A  
HETATM   10  C   UNL     1     -11.588  15.420  67.963  1.00  0.00    -0.303 A  
HETATM   11  C   UNL     1     -10.224  15.647  67.808  1.00  0.00    -0.252 A  
HETATM   12  C   UNL     1      -9.338  14.586  67.538  1.00  0.00    -0.193 A  
HETATM   13  C   UNL     1      -7.938  14.954  67.307  1.00  0.00    -0.237 C  
HETATM   14  C   UNL     1      -6.887  14.240  67.723  1.00  0.00    -0.189 C  
HETATM   15  C   UNL     1      -6.995  12.984  68.469  1.00  0.00    -0.102 A  
HETATM   16  C   UNL     1      -6.045  12.760  69.481  1.00  0.00    -0.118 A  
HETATM   17  C   UNL     1      -6.032  11.567  70.204  1.00  0.00    -0.159 A  
HETATM   18  C   UNL     1      -6.956  10.575  69.911  1.00  0.00    -0.151 A  
HETATM   19  C   UNL     1      -7.896  10.779  68.901  1.00  0.00    -0.136 A  
HETATM   20  C   UNL     1      -7.935  11.982  68.164  1.00  0.00    -0.152 A  
ENDBRANCH   2   6
TORSDOF 1
ENDMDL
MODEL      138
REMARK 921   NORMALIZED FREE ENERGY PREDICTED BY IDOCK:   -3.04 KCAL/MOL
REMARK 922        TOTAL FREE ENERGY PREDICTED BY IDOCK:   -3.13 KCAL/MOL
REMARK 923 INTER-LIGAND FREE ENERGY PREDICTED BY IDOCK:   -3.21 KCAL/MOL
REMARK 924 INTRA-LIGAND FREE ENERGY PREDICTED BY IDOCK:    0.09 KCAL/MOL
REMARK 927      BINDING AFFINITY PREDICTED BY RF-SCORE:    0.00 PKD
ROOT
HETATM    1  N   UNL     1     -11.786   7.703  70.297  1.00  0.00    -0.486 N  
HETATM    2  C   UNL     1     -10.862   7.077  69.498  1.00  0.00    -0.238 C  
HETATM    3  H1  UNL     1     -11.543   8.627  70.654  1.00  0.00     0.000 HD 
HETATM    4  H2  UNL     1     -12.677   7.263  70.524  1.00  0.00     0.000 HD 
HETATM    5  O   UNL     1     -11.155   5.964  69.068  1.00  0.00    -0.336 OA 
ENDROOT
BRANCH   2   6
HETATM    6  N   UNL     1      -9.650   7.766  69.350  1.00  0.00    -0.156 N  
HETATM    7  C   UNL     1      -8.420   7.238  69.890  1.00  0.00    -0.140 A  
HETATM    8  C   UNL     1      -8.193   5.848  69.901  1.00  0.00    -0.117 A  
HETATM    9  C   UNL     1      -6.997   5.305  70.377  1.00  0.00    -0.056 A  
HETATM   10  C   UNL     1      -6.001   6.138  70.867  1.00  0.00    -0.030 A  
HETATM   11  C   UNL     1      -6.209   7.514  70.892  1.00  0.00    -0.035 A  
HETATM   12  C   UNL     1      -7.405   8.076  70.404  1.00  0.00    -0.063 A  
HETATM   13  C   UNL     1      -7.549   9.526  70.560  1.00  0.00    -0.165 C  
HETATM   14  C   UNL     1      -8.122  10.333  69.661  1.00  0.00    -0.157 C  
HETATM   15  C   UNL     1      -8.685   9.872  68.390  1.00  0.00    -0.120 A  
HETATM   16  C   UNL     1      -8.510  10.709  67.274  1.00  0.00    -0.126 A  
HETATM   17  C   UNL     1      -9.064  10.382  66.036  1.00  0.00    -0.187 A  
HETATM   18  C   UNL     1      -9.815   9.224  65.903  1.00  0.00    -0.335 A  
HETATM   19  C   UNL     1     -10.008   8.391  67.005  1.00  0.00    -0.323 A  
HETATM   20  C   UNL     1      -9.448   8.696  68.264  1.00  0.00    -0.141 A  
ENDBRANCH   2   6
TORSDOF 1
ENDMDL
MODEL      139
REMARK 921   NORMALIZED FREE ENERGY PREDICTED BY IDOCK:   -3.02 KCAL/MOL
REMARK 922        TOTAL FREE ENERGY PREDICTED BY IDOCK:   -3.11 KCAL/MOL
REMARK 923 INTER-LIGAND FREE ENERGY PREDICTED BY IDOCK:   -4.06 KCAL/MOL
REMARK 924 INTRA-LIGAND FREE ENERGY PREDICTED BY IDOCK:    0.95 KCAL/MOL
REMARK 927      BINDING AFFINITY PREDICTED BY RF-SCORE:    0.00 PKD
ROOT
HETATM    1  N   UNL     1     -10.780   9.066  68.815  1.00  0.00    -0.384 N  
HETATM    2  C   UNL     1     -10.515   8.058  67.924  1.00  0.00    -0.197 C  
HETATM    3  H1  UNL     1     -10.586   8.882  69.799  1.00  0.00     0.000 HD 
HETATM    4  H2  UNL     1     -11.156   9.963  68.506  1.00  0.00     0.000 HD 
HETATM    5  O   UNL     1     -10.748   8.280  66.738  1.00  0.00    -0.267 OA 
ENDROOT
BRANCH   2   6
HETATM    6  N   UNL     1     -10.088   6.855  68.507  1.00  0.00    -0.156 N  
HETATM    7  C   UNL     1     -10.449   6.514  69.863  1.00  0.00    -0.213 A  
HETATM    8  C   UNL     1     -11.708   6.884  70.373  1.00  0.00    -0.377 A  
HETATM    9  C   UNL     1     -12.106   6.534  71.665  1.00  0.00    -0.381 A  
HETATM   10  C   UNL     1     -11.249   5.816  72.487  1.00  0.00    -0.347 A  
HETATM   11  C   UNL     1      -9.989   5.458  72.017  1.00  0.00    -0.232 A  
HETATM   12  C   UNL     1      -9.579   5.794  70.712  1.00  0.00    -0.210 A  
HETATM   13  C   UNL     1      -8.201   5.444  70.357  1.00  0.00    -0.105 C  
HETATM   14  C   UNL     1      -7.815   5.001  69.155  1.00  0.00    -0.080 C  
HETATM   15  C   UNL     1      -8.727   4.805  68.026  1.00  0.00    -0.110 A  
HETATM   16  C   UNL     1      -8.488   3.695  67.197  1.00  0.00    -0.103 A  
HETATM   17  C   UNL     1      -9.266   3.462  66.063  1.00  0.00    -0.164 A  
HETATM   18  C   UNL     1     -10.281   4.347  65.732  1.00  0.00    -0.257 A  
HETATM   19  C   UNL     1     -10.521   5.459  66.538  1.00  0.00    -0.352 A  
HETATM   20  C   UNL     1      -9.755   5.709  67.695  1.00  0.00    -0.124 A  
ENDBRANCH   2   6
TORSDOF 1
ENDMDL
MODEL      140
REMARK 921   NORMALIZED FREE ENERGY PREDICTED BY IDOCK:   -3.01 KCAL/MOL
REMARK 922        TOTAL FREE ENERGY PREDICTED BY IDOCK:   -3.10 KCAL/MOL
REMARK 923 INTER-LIGAND FREE ENERGY PREDICTED BY IDOCK:   -3.18 KCAL/MOL
REMARK 924 INTRA-LIGAND FREE ENERGY PREDICTED BY IDOCK:    0.08 KCAL/MOL
REMARK 927      BINDING AFFINITY PREDICTED BY RF-SCORE:    0.00 PKD
ROOT
HETATM    1  N   UNL     1      -8.051  13.425  66.868  1.00  0.00    -0.404 N  
HETATM    2  C   UNL     1      -7.449  12.368  67.501  1.00  0.00    -0.150 C  
HETATM    3  H1  UNL     1      -8.850  13.217  66.269  1.00  0.00     0.000 HD 
HETATM    4  H2  UNL     1      -7.714  14.380  66.991  1.00  0.00     0.000 HD 
HETATM    5  O   UNL     1      -6.486  12.619  68.221  1.00  0.00    -0.062 OA 
ENDROOT
BRANCH   2   6
HETATM    6  N   UNL     1      -7.967  11.108  67.163  1.00  0.00    -0.133 N  
HETATM    7  C   UNL     1      -7.465  10.376  66.025  1.00  0.00    -0.134 A  
HETATM    8  C   UNL     1      -6.102  10.450  65.682  1.00  0.00    -0.123 A  
HETATM    9  C   UNL     1      -5.575   9.722  64.613  1.00  0.00    -0.079 A  
HETATM   10  C   UNL     1      -6.402   8.909  63.850  1.00  0.00    -0.086 A  
HETATM   11  C   UNL     1      -7.758   8.836  64.151  1.00  0.00    -0.130 A  
HETATM   12  C   UNL     1      -8.301   9.556  65.233  1.00  0.00    -0.144 A  
HETATM   13  C   UNL     1      -9.754   9.472  65.403  1.00  0.00    -0.314 C  
HETATM   14  C   UNL     1     -10.379   9.416  66.584  1.00  0.00    -0.284 C  
HETATM   15  C   UNL     1      -9.689   9.431  67.875  1.00  0.00    -0.177 A  
HETATM   16  C   UNL     1     -10.220   8.620  68.893  1.00  0.00    -0.221 A  
HETATM   17  C   UNL     1      -9.667   8.616  70.173  1.00  0.00    -0.182 A  
HETATM   18  C   UNL     1      -8.586   9.437  70.457  1.00  0.00    -0.265 A  
HETATM   19  C   UNL     1      -8.057  10.256  69.461  1.00  0.00    -0.170 A  
HETATM   20  C   UNL     1      -8.593  10.269  68.157  1.00  0.00    -0.119 A  
ENDBRANCH   2   6
TORSDOF 1
ENDMDL
MODEL      141
REMARK 921   NORMALIZED FREE ENERGY PREDICTED BY IDOCK:   -3.00 KCAL/MOL
REMARK 922        TOTAL FREE ENERGY PREDICTED BY IDOCK:   -3.09 KCAL/MOL
REMARK 923 INTER-LIGAND FREE ENERGY PREDICTED BY IDOCK:   -3.45 KCAL/MOL
REMARK 924 INTRA-LIGAND FREE ENERGY PREDICTED BY IDOCK:    0.36 KCAL/MOL
REMARK 927      BINDING AFFINITY PREDICTED BY RF-SCORE:    0.00 PKD
ROOT
HETATM    1  N   UNL     1      -8.737   9.307  67.714  1.00  0.00    -0.120 N  
HETATM    2  C   UNL     1      -8.257   8.932  68.943  1.00  0.00    -0.117 C  
HETATM    3  H1  UNL     1      -9.542   8.796  67.352  1.00  0.00     0.000 HD 
HETATM    4  H2  UNL     1      -8.306  10.064  67.184  1.00  0.00     0.000 HD 
HETATM    5  O   UNL     1      -7.287   9.546  69.379  1.00  0.00    -0.075 OA 
ENDROOT
BRANCH   2   6
HETATM    6  N   UNL     1      -8.895   7.817  69.508  1.00  0.00    -0.139 N  
HETATM    7  C   UNL     1      -8.875   6.532  68.849  1.00  0.00    -0.126 A  
HETATM    8  C   UNL     1      -7.738   6.128  68.125  1.00  0.00    -0.103 A  
HETATM    9  C   UNL     1      -7.667   4.875  67.511  1.00  0.00    -0.091 A  
HETATM   10  C   UNL     1      -8.740   3.998  67.595  1.00  0.00    -0.118 A  
HETATM   11  C   UNL     1      -9.886   4.382  68.284  1.00  0.00    -0.132 A  
HETATM   12  C   UNL     1      -9.967   5.637  68.917  1.00  0.00    -0.222 A  
HETATM   13  C   UNL     1     -11.253   5.969  69.537  1.00  0.00    -0.416 C  
HETATM   14  C   UNL     1     -11.392   6.635  70.688  1.00  0.00    -0.401 C  
HETATM   15  C   UNL     1     -10.268   7.126  71.489  1.00  0.00    -0.210 A  
HETATM   16  C   UNL     1     -10.401   7.054  72.886  1.00  0.00    -0.267 A  
HETATM   17  C   UNL     1      -9.409   7.554  73.730  1.00  0.00    -0.331 A  
HETATM   18  C   UNL     1      -8.281   8.149  73.188  1.00  0.00    -0.253 A  
HETATM   19  C   UNL     1      -8.141   8.238  71.803  1.00  0.00    -0.179 A  
HETATM   20  C   UNL     1      -9.126   7.731  70.930  1.00  0.00    -0.148 A  
ENDBRANCH   2   6
TORSDOF 1
ENDMDL
MODEL      142
REMARK 921   NORMALIZED FREE ENERGY PREDICTED BY IDOCK:   -3.00 KCAL/MOL
REMARK 922        TOTAL FREE ENERGY PREDICTED BY IDOCK:   -3.09 KCAL/MOL
REMARK 923 INTER-LIGAND FREE ENERGY PREDICTED BY IDOCK:   -3.15 KCAL/MOL
REMARK 924 INTRA-LIGAND FREE ENERGY PREDICTED BY IDOCK:    0.07 KCAL/MOL
REMARK 927      BINDING AFFINITY PREDICTED BY RF-SCORE:    0.00 PKD
ROOT
HETATM    1  N   UNL     1      -6.619  10.497  70.185  1.00  0.00    -0.141 N  
HETATM    2  C   UNL     1      -7.230  10.696  68.972  1.00  0.00    -0.095 C  
HETATM    3  H1  UNL     1      -7.204  10.172  70.954  1.00  0.00     0.000 HD 
HETATM    4  H2  UNL     1      -5.621  10.666  70.311  1.00  0.00     0.000 HD 
HETATM    5  O   UNL     1      -6.524  11.087  68.046  1.00  0.00    -0.057 OA 
ENDROOT
BRANCH   2   6
HETATM    6  N   UNL     1      -8.620  10.508  68.977  1.00  0.00    -0.153 N  
HETATM    7  C   UNL     1      -9.525  11.630  68.897  1.00  0.00     0.028 A  
HETATM    8  C   UNL     1      -9.187  12.756  68.121  1.00  0.00    -0.212 A  
HETATM    9  C   UNL     1     -10.057  13.840  67.986  1.00  0.00    -0.245 A  
HETATM   10  C   UNL     1     -11.283  13.833  68.636  1.00  0.00    -0.308 A  
HETATM   11  C   UNL     1     -11.632  12.745  69.430  1.00  0.00    -0.361 A  
HETATM   12  C   UNL     1     -10.770  11.639  69.565  1.00  0.00    -0.002 A  
HETATM   13  C   UNL     1     -11.202  10.591  70.494  1.00  0.00    -0.348 C  
HETATM   14  C   UNL     1     -11.023   9.281  70.297  1.00  0.00    -0.286 C  
HETATM   15  C   UNL     1     -10.366   8.714  69.117  1.00  0.00    -0.227 A  
HETATM   16  C   UNL     1     -10.891   7.513  68.609  1.00  0.00    -0.044 A  
HETATM   17  C   UNL     1     -10.294   6.868  67.526  1.00  0.00    -0.277 A  
HETATM   18  C   UNL     1      -9.154   7.404  66.950  1.00  0.00    -0.164 A  
HETATM   19  C   UNL     1      -8.614   8.588  67.451  1.00  0.00    -0.127 A  
HETATM   20  C   UNL     1      -9.206   9.264  68.538  1.00  0.00    -0.135 A  
ENDBRANCH   2   6
TORSDOF 1
ENDMDL
MODEL      143
REMARK 921   NORMALIZED FREE ENERGY PREDICTED BY IDOCK:   -2.99 KCAL/MOL
REMARK 922        TOTAL FREE ENERGY PREDICTED BY IDOCK:   -3.07 KCAL/MOL
REMARK 923 INTER-LIGAND FREE ENERGY PREDICTED BY IDOCK:   -3.15 KCAL/MOL
REMARK 924 INTRA-LIGAND FREE ENERGY PREDICTED BY IDOCK:    0.08 KCAL/MOL
REMARK 927      BINDING AFFINITY PREDICTED BY RF-SCORE:    0.00 PKD
ROOT
HETATM    1  N   UNL     1      -6.500   9.816  69.312  1.00  0.00    -0.047 N  
HETATM    2  C   UNL     1      -6.655   8.945  68.265  1.00  0.00    -0.060 C  
HETATM    3  H1  UNL     1      -7.345  10.242  69.693  1.00  0.00     0.000 HD 
HETATM    4  H2  UNL     1      -5.579  10.029  69.695  1.00  0.00     0.000 HD 
HETATM    5  O   UNL     1      -5.637   8.432  67.806  1.00  0.00    -0.034 OA 
ENDROOT
BRANCH   2   6
HETATM    6  N   UNL     1      -7.970   8.822  67.791  1.00  0.00    -0.106 N  
HETATM    7  C   UNL     1      -8.343   9.321  66.488  1.00  0.00    -0.126 A  
HETATM    8  C   UNL     1      -7.431   9.252  65.418  1.00  0.00    -0.098 A  
HETATM    9  C   UNL     1      -7.774   9.685  64.135  1.00  0.00    -0.129 A  
HETATM   10  C   UNL     1      -9.034  10.211  63.892  1.00  0.00    -0.270 A  
HETATM   11  C   UNL     1      -9.947  10.314  64.937  1.00  0.00    -0.393 A  
HETATM   12  C   UNL     1      -9.620   9.870  66.233  1.00  0.00    -0.265 A  
HETATM   13  C   UNL     1     -10.626  10.108  67.272  1.00  0.00    -0.321 C  
HETATM   14  C   UNL     1     -10.903   9.260  68.269  1.00  0.00    -0.132 C  
HETATM   15  C   UNL     1     -10.233   7.972  68.456  1.00  0.00    -0.231 A  
HETATM   16  C   UNL     1     -11.023   6.902  68.911  1.00  0.00    -0.217 A  
HETATM   17  C   UNL     1     -10.460   5.653  69.176  1.00  0.00    -0.339 A  
HETATM   18  C   UNL     1      -9.097   5.464  69.008  1.00  0.00    -0.136 A  
HETATM   19  C   UNL     1      -8.299   6.520  68.569  1.00  0.00    -0.121 A  
HETATM   20  C   UNL     1      -8.847   7.788  68.284  1.00  0.00    -0.129 A  
ENDBRANCH   2   6
TORSDOF 1
ENDMDL
MODEL      144
REMARK 921   NORMALIZED FREE ENERGY PREDICTED BY IDOCK:   -2.99 KCAL/MOL
REMARK 922        TOTAL FREE ENERGY PREDICTED BY IDOCK:   -3.07 KCAL/MOL
REMARK 923 INTER-LIGAND FREE ENERGY PREDICTED BY IDOCK:   -3.16 KCAL/MOL
REMARK 924 INTRA-LIGAND FREE ENERGY PREDICTED BY IDOCK:    0.09 KCAL/MOL
REMARK 927      BINDING AFFINITY PREDICTED BY RF-SCORE:    0.00 PKD
ROOT
HETATM    1  N   UNL     1      -8.964   8.682  64.608  1.00  0.00    -0.416 N  
HETATM    2  C   UNL     1      -8.299   8.753  65.806  1.00  0.00    -0.134 C  
HETATM    3  H1  UNL     1      -9.730   8.013  64.539  1.00  0.00     0.000 HD 
HETATM    4  H2  UNL     1      -8.702   9.274  63.820  1.00  0.00     0.000 HD 
HETATM    5  O   UNL     1      -7.376   9.559  65.889  1.00  0.00    -0.094 OA 
ENDROOT
BRANCH   2   6
HETATM    6  N   UNL     1      -8.712   7.815  66.764  1.00  0.00    -0.130 N  
HETATM    7  C   UNL     1      -8.173   6.475  66.778  1.00  0.00    -0.110 A  
HETATM    8  C   UNL     1      -6.829   6.251  66.424  1.00  0.00    -0.062 A  
HETATM    9  C   UNL     1      -6.263   4.975  66.467  1.00  0.00    -0.035 A  
HETATM   10  C   UNL     1      -7.032   3.886  66.853  1.00  0.00    -0.059 A  
HETATM   11  C   UNL     1      -8.371   4.075  67.184  1.00  0.00    -0.099 A  
HETATM   12  C   UNL     1      -8.951   5.358  67.157  1.00  0.00    -0.112 A  
HETATM   13  C   UNL     1     -10.387   5.425  67.439  1.00  0.00    -0.258 C  
HETATM   14  C   UNL     1     -10.980   6.401  68.135  1.00  0.00    -0.393 C  
HETATM   15  C   UNL     1     -10.266   7.542  68.712  1.00  0.00    -0.206 A  
HETATM   16  C   UNL     1     -10.703   7.999  69.968  1.00  0.00    -0.244 A  
HETATM   17  C   UNL     1     -10.124   9.118  70.568  1.00  0.00    -0.288 A  
HETATM   18  C   UNL     1      -9.114   9.804  69.912  1.00  0.00    -0.257 A  
HETATM   19  C   UNL     1      -8.679   9.369  68.661  1.00  0.00    -0.131 A  
HETATM   20  C   UNL     1      -9.241   8.235  68.039  1.00  0.00    -0.136 A  
ENDBRANCH   2   6
TORSDOF 1
ENDMDL
MODEL      145
REMARK 921   NORMALIZED FREE ENERGY PREDICTED BY IDOCK:   -2.94 KCAL/MOL
REMARK 922        TOTAL FREE ENERGY PREDICTED BY IDOCK:   -3.03 KCAL/MOL
REMARK 923 INTER-LIGAND FREE ENERGY PREDICTED BY IDOCK:   -3.53 KCAL/MOL
REMARK 924 INTRA-LIGAND FREE ENERGY PREDICTED BY IDOCK:    0.50 KCAL/MOL
REMARK 927      BINDING AFFINITY PREDICTED BY RF-SCORE:    0.00 PKD
ROOT
HETATM    1  N   UNL     1      -9.539  12.821  67.048  1.00  0.00    -0.222 N  
HETATM    2  C   UNL     1     -10.188  11.753  66.484  1.00  0.00    -0.208 C  
HETATM    3  H1  UNL     1      -8.720  12.620  67.621  1.00  0.00     0.000 HD 
HETATM    4  H2  UNL     1      -9.863  13.777  66.901  1.00  0.00     0.000 HD 
HETATM    5  O   UNL     1     -11.175  11.996  65.794  1.00  0.00    -0.318 OA 
ENDROOT
BRANCH   2   6
HETATM    6  N   UNL     1      -9.680  10.497  66.849  1.00  0.00    -0.175 N  
HETATM    7  C   UNL     1      -8.390  10.048  66.382  1.00  0.00    -0.126 A  
HETATM    8  C   UNL     1      -7.339  10.970  66.218  1.00  0.00    -0.097 A  
HETATM    9  C   UNL     1      -6.067  10.565  65.808  1.00  0.00    -0.133 A  
HETATM   10  C   UNL     1      -5.816   9.227  65.539  1.00  0.00    -0.054 A  
HETATM   11  C   UNL     1      -6.844   8.298  65.669  1.00  0.00    -0.066 A  
HETATM   12  C   UNL     1      -8.128   8.690  66.092  1.00  0.00    -0.108 A  
HETATM   13  C   UNL     1      -9.153   7.643  66.108  1.00  0.00    -0.189 C  
HETATM   14  C   UNL     1     -10.109   7.530  67.036  1.00  0.00    -0.332 C  
HETATM   15  C   UNL     1     -10.261   8.446  68.169  1.00  0.00    -0.253 A  
HETATM   16  C   UNL     1     -10.655   7.883  69.395  1.00  0.00    -0.209 A  
HETATM   17  C   UNL     1     -10.884   8.685  70.514  1.00  0.00    -0.257 A  
HETATM   18  C   UNL     1     -10.739  10.060  70.415  1.00  0.00    -0.369 A  
HETATM   19  C   UNL     1     -10.360  10.633  69.202  1.00  0.00    -0.242 A  
HETATM   20  C   UNL     1     -10.113   9.842  68.061  1.00  0.00    -0.171 A  
ENDBRANCH   2   6
TORSDOF 1
ENDMDL
MODEL      146
REMARK 921   NORMALIZED FREE ENERGY PREDICTED BY IDOCK:   -2.92 KCAL/MOL
REMARK 922        TOTAL FREE ENERGY PREDICTED BY IDOCK:   -3.00 KCAL/MOL
REMARK 923 INTER-LIGAND FREE ENERGY PREDICTED BY IDOCK:   -3.49 KCAL/MOL
REMARK 924 INTRA-LIGAND FREE ENERGY PREDICTED BY IDOCK:    0.49 KCAL/MOL
REMARK 927      BINDING AFFINITY PREDICTED BY RF-SCORE:    0.00 PKD
ROOT
HETATM    1  N   UNL     1      -9.823   4.114  69.697  1.00  0.00    -0.198 N  
HETATM    2  C   UNL     1      -9.236   4.541  70.861  1.00  0.00    -0.139 C  
HETATM    3  H1  UNL     1     -10.088   4.828  69.019  1.00  0.00     0.000 HD 
HETATM    4  H2  UNL     1      -9.986   3.123  69.517  1.00  0.00     0.000 HD 
HETATM    5  O   UNL     1      -8.917   3.680  71.677  1.00  0.00    -0.099 OA 
ENDROOT
BRANCH   2   6
HETATM    6  N   UNL     1      -9.160   5.934  71.005  1.00  0.00    -0.145 N  
HETATM    7  C   UNL     1      -8.181   6.707  70.278  1.00  0.00    -0.126 A  
HETATM    8  C   UNL     1      -7.812   6.330  68.973  1.00  0.00    -0.109 A  
HETATM    9  C   UNL     1      -6.899   7.079  68.225  1.00  0.00    -0.074 A  
HETATM   10  C   UNL     1      -6.322   8.217  68.769  1.00  0.00    -0.049 A  
HETATM   11  C   UNL     1      -6.651   8.599  70.066  1.00  0.00    -0.038 A  
HETATM   12  C   UNL     1      -7.578   7.861  70.827  1.00  0.00    -0.078 A  
HETATM   13  C   UNL     1      -7.781   8.305  72.209  1.00  0.00    -0.168 C  
HETATM   14  C   UNL     1      -8.958   8.301  72.843  1.00  0.00    -0.324 C  
HETATM   15  C   UNL     1     -10.212   7.849  72.236  1.00  0.00    -0.302 A  
HETATM   16  C   UNL     1     -11.376   8.563  72.569  1.00  0.00    -0.357 A  
HETATM   17  C   UNL     1     -12.625   8.168  72.088  1.00  0.00    -0.349 A  
HETATM   18  C   UNL     1     -12.727   7.044  71.283  1.00  0.00    -0.400 A  
HETATM   19  C   UNL     1     -11.582   6.319  70.954  1.00  0.00    -0.338 A  
HETATM   20  C   UNL     1     -10.308   6.705  71.420  1.00  0.00    -0.200 A  
ENDBRANCH   2   6
TORSDOF 1
ENDMDL
MODEL      147
REMARK 921   NORMALIZED FREE ENERGY PREDICTED BY IDOCK:   -2.90 KCAL/MOL
REMARK 922        TOTAL FREE ENERGY PREDICTED BY IDOCK:   -2.99 KCAL/MOL
REMARK 923 INTER-LIGAND FREE ENERGY PREDICTED BY IDOCK:   -3.49 KCAL/MOL
REMARK 924 INTRA-LIGAND FREE ENERGY PREDICTED BY IDOCK:    0.50 KCAL/MOL
REMARK 927      BINDING AFFINITY PREDICTED BY RF-SCORE:    0.00 PKD
ROOT
HETATM    1  N   UNL     1     -12.251   6.762  69.961  1.00  0.00    -0.589 N  
HETATM    2  C   UNL     1     -11.293   7.591  70.488  1.00  0.00    -0.260 C  
HETATM    3  H1  UNL     1     -11.931   6.002  69.362  1.00  0.00     0.000 HD 
HETATM    4  H2  UNL     1     -13.241   6.902  70.160  1.00  0.00     0.000 HD 
HETATM    5  O   UNL     1     -11.678   8.507  71.210  1.00  0.00    -0.271 OA 
ENDROOT
BRANCH   2   6
HETATM    6  N   UNL     1      -9.985   7.329  70.053  1.00  0.00    -0.183 N  
HETATM    7  C   UNL     1      -9.280   6.143  70.478  1.00  0.00    -0.157 A  
HETATM    8  C   UNL     1      -9.980   4.937  70.672  1.00  0.00    -0.305 A  
HETATM    9  C   UNL     1      -9.324   3.761  71.042  1.00  0.00    -0.218 A  
HETATM   10  C   UNL     1      -7.950   3.763  71.241  1.00  0.00    -0.064 A  
HETATM   11  C   UNL     1      -7.237   4.947  71.080  1.00  0.00    -0.056 A  
HETATM   12  C   UNL     1      -7.884   6.138  70.696  1.00  0.00    -0.106 A  
HETATM   13  C   UNL     1      -7.048   7.340  70.643  1.00  0.00    -0.065 C  
HETATM   14  C   UNL     1      -7.163   8.306  69.725  1.00  0.00    -0.060 C  
HETATM   15  C   UNL     1      -8.149   8.289  68.641  1.00  0.00    -0.120 A  
HETATM   16  C   UNL     1      -7.734   8.789  67.395  1.00  0.00    -0.097 A  
HETATM   17  C   UNL     1      -8.621   8.870  66.321  1.00  0.00    -0.145 A  
HETATM   18  C   UNL     1      -9.938   8.469  66.485  1.00  0.00    -0.350 A  
HETATM   19  C   UNL     1     -10.366   7.984  67.720  1.00  0.00    -0.294 A  
HETATM   20  C   UNL     1      -9.485   7.883  68.817  1.00  0.00    -0.147 A  
ENDBRANCH   2   6
TORSDOF 1
ENDMDL
MODEL      148
REMARK 921   NORMALIZED FREE ENERGY PREDICTED BY IDOCK:   -2.90 KCAL/MOL
REMARK 922        TOTAL FREE ENERGY PREDICTED BY IDOCK:   -2.99 KCAL/MOL
REMARK 923 INTER-LIGAND FREE ENERGY PREDICTED BY IDOCK:   -3.05 KCAL/MOL
REMARK 924 INTRA-LIGAND FREE ENERGY PREDICTED BY IDOCK:    0.06 KCAL/MOL
REMARK 927      BINDING AFFINITY PREDICTED BY RF-SCORE:    0.00 PKD
ROOT
HETATM    1  N   UNL     1     -12.418   7.906  70.771  1.00  0.00    -0.511 N  
HETATM    2  C   UNL     1     -11.442   6.956  70.605  1.00  0.00    -0.336 C  
HETATM    3  H1  UNL     1     -12.180   8.867  70.526  1.00  0.00     0.000 HD 
HETATM    4  H2  UNL     1     -13.343   7.661  71.124  1.00  0.00     0.000 HD 
HETATM    5  O   UNL     1     -11.729   5.799  70.901  1.00  0.00     0.032 OA 
ENDROOT
BRANCH   2   6
HETATM    6  N   UNL     1     -10.196   7.458  70.198  1.00  0.00    -0.202 N  
HETATM    7  C   UNL     1      -9.086   7.535  71.118  1.00  0.00    -0.147 A  
HETATM    8  C   UNL     1      -8.914   6.542  72.101  1.00  0.00    -0.139 A  
HETATM    9  C   UNL     1      -7.828   6.562  72.979  1.00  0.00    -0.104 A  
HETATM   10  C   UNL     1      -6.892   7.584  72.905  1.00  0.00    -0.068 A  
HETATM   11  C   UNL     1      -7.051   8.591  71.958  1.00  0.00    -0.104 A  
HETATM   12  C   UNL     1      -8.134   8.577  71.059  1.00  0.00    -0.149 A  
HETATM   13  C   UNL     1      -8.249   9.733  70.165  1.00  0.00    -0.202 C  
HETATM   14  C   UNL     1      -8.644   9.671  68.889  1.00  0.00    -0.127 C  
HETATM   15  C   UNL     1      -9.018   8.429  68.209  1.00  0.00    -0.139 A  
HETATM   16  C   UNL     1      -8.641   8.300  66.861  1.00  0.00    -0.122 A  
HETATM   17  C   UNL     1      -9.006   7.180  66.115  1.00  0.00    -0.168 A  
HETATM   18  C   UNL     1      -9.769   6.182  66.703  1.00  0.00    -0.196 A  
HETATM   19  C   UNL     1     -10.161   6.302  68.035  1.00  0.00    -0.205 A  
HETATM   20  C   UNL     1      -9.795   7.420  68.812  1.00  0.00    -0.164 A  
ENDBRANCH   2   6
TORSDOF 1
ENDMDL
MODEL      149
REMARK 921   NORMALIZED FREE ENERGY PREDICTED BY IDOCK:   -2.88 KCAL/MOL
REMARK 922        TOTAL FREE ENERGY PREDICTED BY IDOCK:   -2.96 KCAL/MOL
REMARK 923 INTER-LIGAND FREE ENERGY PREDICTED BY IDOCK:   -3.10 KCAL/MOL
REMARK 924 INTRA-LIGAND FREE ENERGY PREDICTED BY IDOCK:    0.14 KCAL/MOL
REMARK 927      BINDING AFFINITY PREDICTED BY RF-SCORE:    0.00 PKD
ROOT
HETATM    1  N   UNL     1      -7.669   4.651  68.993  1.00  0.00    -0.070 N  
HETATM    2  C   UNL     1      -8.873   4.596  69.647  1.00  0.00    -0.083 C  
HETATM    3  H1  UNL     1      -6.969   5.298  69.357  1.00  0.00     0.000 HD 
HETATM    4  H2  UNL     1      -7.480   4.069  68.177  1.00  0.00     0.000 HD 
HETATM    5  O   UNL     1      -9.715   3.816  69.209  1.00  0.00    -0.176 OA 
ENDROOT
BRANCH   2   6
HETATM    6  N   UNL     1      -9.016   5.519  70.694  1.00  0.00    -0.142 N  
HETATM    7  C   UNL     1      -9.297   6.910  70.429  1.00  0.00    -0.159 A  
HETATM    8  C   UNL     1     -10.121   7.270  69.346  1.00  0.00    -0.183 A  
HETATM    9  C   UNL     1     -10.449   8.603  69.086  1.00  0.00    -0.223 A  
HETATM   10  C   UNL     1      -9.949   9.612  69.897  1.00  0.00    -0.273 A  
HETATM   11  C   UNL     1      -9.112   9.287  70.960  1.00  0.00    -0.253 A  
HETATM   12  C   UNL     1      -8.783   7.946  71.241  1.00  0.00    -0.149 A  
HETATM   13  C   UNL     1      -7.826   7.729  72.328  1.00  0.00    -0.127 C  
HETATM   14  C   UNL     1      -7.888   6.721  73.205  1.00  0.00    -0.099 C  
HETATM   15  C   UNL     1      -8.930   5.692  73.194  1.00  0.00    -0.121 A  
HETATM   16  C   UNL     1      -9.392   5.239  74.442  1.00  0.00    -0.134 A  
HETATM   17  C   UNL     1     -10.338   4.218  74.531  1.00  0.00    -0.291 A  
HETATM   18  C   UNL     1     -10.820   3.624  73.375  1.00  0.00    -0.314 A  
HETATM   19  C   UNL     1     -10.361   4.055  72.130  1.00  0.00    -0.155 A  
HETATM   20  C   UNL     1      -9.413   5.092  72.015  1.00  0.00    -0.149 A  
ENDBRANCH   2   6
TORSDOF 1
ENDMDL
MODEL      150
REMARK 921   NORMALIZED FREE ENERGY PREDICTED BY IDOCK:   -2.87 KCAL/MOL
REMARK 922        TOTAL FREE ENERGY PREDICTED BY IDOCK:   -2.95 KCAL/MOL
REMARK 923 INTER-LIGAND FREE ENERGY PREDICTED BY IDOCK:   -3.51 KCAL/MOL
REMARK 924 INTRA-LIGAND FREE ENERGY PREDICTED BY IDOCK:    0.56 KCAL/MOL
REMARK 927      BINDING AFFINITY PREDICTED BY RF-SCORE:    0.00 PKD
ROOT
HETATM    1  N   UNL     1      -9.982   7.700  67.792  1.00  0.00    -0.165 N  
HETATM    2  C   UNL     1      -8.925   7.403  68.613  1.00  0.00    -0.131 C  
HETATM    3  H1  UNL     1     -10.915   7.460  68.127  1.00  0.00     0.000 HD 
HETATM    4  H2  UNL     1      -9.842   8.143  66.884  1.00  0.00     0.000 HD 
HETATM    5  O   UNL     1      -7.801   7.692  68.209  1.00  0.00    -0.117 OA 
ENDROOT
BRANCH   2   6
HETATM    6  N   UNL     1      -9.267   6.715  69.787  1.00  0.00    -0.146 N  
HETATM    7  C   UNL     1     -10.197   7.278  70.738  1.00  0.00    -0.197 A  
HETATM    8  C   UNL     1     -11.286   8.049  70.289  1.00  0.00    -0.192 A  
HETATM    9  C   UNL     1     -12.228   8.573  71.177  1.00  0.00    -0.260 A  
HETATM   10  C   UNL     1     -12.097   8.350  72.541  1.00  0.00    -0.403 A  
HETATM   11  C   UNL     1     -11.016   7.613  73.014  1.00  0.00    -0.457 A  
HETATM   12  C   UNL     1     -10.066   7.068  72.129  1.00  0.00    -0.198 A  
HETATM   13  C   UNL     1      -8.924   6.386  72.745  1.00  0.00    -0.124 C  
HETATM   14  C   UNL     1      -8.349   5.280  72.261  1.00  0.00    -0.122 C  
HETATM   15  C   UNL     1      -8.788   4.598  71.041  1.00  0.00    -0.149 A  
HETATM   16  C   UNL     1      -8.742   3.193  71.044  1.00  0.00    -0.125 A  
HETATM   17  C   UNL     1      -9.082   2.459  69.907  1.00  0.00    -0.176 A  
HETATM   18  C   UNL     1      -9.454   3.122  68.748  1.00  0.00    -0.191 A  
HETATM   19  C   UNL     1      -9.492   4.515  68.727  1.00  0.00    -0.221 A  
HETATM   20  C   UNL     1      -9.163   5.278  69.867  1.00  0.00    -0.137 A  
ENDBRANCH   2   6
TORSDOF 1
ENDMDL
MODEL      151
REMARK 921   NORMALIZED FREE ENERGY PREDICTED BY IDOCK:   -2.87 KCAL/MOL
REMARK 922        TOTAL FREE ENERGY PREDICTED BY IDOCK:   -2.95 KCAL/MOL
REMARK 923 INTER-LIGAND FREE ENERGY PREDICTED BY IDOCK:   -3.05 KCAL/MOL
REMARK 924 INTRA-LIGAND FREE ENERGY PREDICTED BY IDOCK:    0.10 KCAL/MOL
REMARK 927      BINDING AFFINITY PREDICTED BY RF-SCORE:    0.00 PKD
ROOT
HETATM    1  N   UNL     1     -11.649   6.563  67.209  1.00  0.00    -0.644 N  
HETATM    2  C   UNL     1     -10.580   5.730  66.997  1.00  0.00    -0.300 C  
HETATM    3  H1  UNL     1     -11.500   7.366  67.819  1.00  0.00     0.000 HD 
HETATM    4  H2  UNL     1     -12.554   6.387  66.773  1.00  0.00     0.000 HD 
HETATM    5  O   UNL     1     -10.760   4.763  66.261  1.00  0.00    -0.283 OA 
ENDROOT
BRANCH   2   6
HETATM    6  N   UNL     1      -9.430   6.050  67.733  1.00  0.00    -0.112 N  
HETATM    7  C   UNL     1      -9.274   5.614  69.101  1.00  0.00    -0.115 A  
HETATM    8  C   UNL     1      -9.779   4.364  69.505  1.00  0.00    -0.280 A  
HETATM    9  C   UNL     1      -9.609   3.892  70.809  1.00  0.00    -0.259 A  
HETATM   10  C   UNL     1      -8.939   4.665  71.747  1.00  0.00    -0.156 A  
HETATM   11  C   UNL     1      -8.451   5.916  71.380  1.00  0.00    -0.128 A  
HETATM   12  C   UNL     1      -8.605   6.399  70.067  1.00  0.00    -0.135 A  
HETATM   13  C   UNL     1      -8.129   7.763  69.819  1.00  0.00    -0.117 C  
HETATM   14  C   UNL     1      -7.525   8.164  68.695  1.00  0.00    -0.098 C  
HETATM   15  C   UNL     1      -7.256   7.286  67.554  1.00  0.00    -0.090 A  
HETATM   16  C   UNL     1      -6.043   7.482  66.870  1.00  0.00    -0.047 A  
HETATM   17  C   UNL     1      -5.729   6.735  65.735  1.00  0.00    -0.030 A  
HETATM   18  C   UNL     1      -6.630   5.796  65.258  1.00  0.00    -0.043 A  
HETATM   19  C   UNL     1      -7.843   5.601  65.918  1.00  0.00    -0.101 A  
HETATM   20  C   UNL     1      -8.178   6.336  67.074  1.00  0.00    -0.109 A  
ENDBRANCH   2   6
TORSDOF 1
ENDMDL
MODEL      152
REMARK 921   NORMALIZED FREE ENERGY PREDICTED BY IDOCK:   -2.85 KCAL/MOL
REMARK 922        TOTAL FREE ENERGY PREDICTED BY IDOCK:   -2.93 KCAL/MOL
REMARK 923 INTER-LIGAND FREE ENERGY PREDICTED BY IDOCK:   -3.45 KCAL/MOL
REMARK 924 INTRA-LIGAND FREE ENERGY PREDICTED BY IDOCK:    0.52 KCAL/MOL
REMARK 927      BINDING AFFINITY PREDICTED BY RF-SCORE:    0.00 PKD
ROOT
HETATM    1  N   UNL     1     -11.049   9.034  68.137  1.00  0.00    -0.470 N  
HETATM    2  C   UNL     1     -10.412   7.861  67.821  1.00  0.00    -0.212 C  
HETATM    3  H1  UNL     1     -11.047   9.316  69.117  1.00  0.00     0.000 HD 
HETATM    4  H2  UNL     1     -11.506   9.600  67.422  1.00  0.00     0.000 HD 
HETATM    5  O   UNL     1     -10.415   7.522  66.640  1.00  0.00    -0.269 OA 
ENDROOT
BRANCH   2   6
HETATM    6  N   UNL     1      -9.911   7.149  68.921  1.00  0.00    -0.153 N  
HETATM    7  C   UNL     1      -9.748   5.716  68.871  1.00  0.00    -0.138 A  
HETATM    8  C   UNL     1      -9.365   5.090  67.670  1.00  0.00    -0.141 A  
HETATM    9  C   UNL     1      -9.157   3.711  67.596  1.00  0.00    -0.189 A  
HETATM   10  C   UNL     1      -9.341   2.918  68.720  1.00  0.00    -0.234 A  
HETATM   11  C   UNL     1      -9.744   3.508  69.915  1.00  0.00    -0.131 A  
HETATM   12  C   UNL     1      -9.945   4.898  70.007  1.00  0.00    -0.323 A  
HETATM   13  C   UNL     1     -10.453   5.396  71.288  1.00  0.00    -0.296 C  
HETATM   14  C   UNL     1     -10.079   6.546  71.859  1.00  0.00    -0.200 C  
HETATM   15  C   UNL     1      -9.104   7.469  71.273  1.00  0.00    -0.147 A  
HETATM   16  C   UNL     1      -8.227   8.117  72.160  1.00  0.00    -0.197 A  
HETATM   17  C   UNL     1      -7.306   9.059  71.701  1.00  0.00     0.011 A  
HETATM   18  C   UNL     1      -7.263   9.378  70.353  1.00  0.00    -0.111 A  
HETATM   19  C   UNL     1      -8.136   8.753  69.464  1.00  0.00    -0.105 A  
HETATM   20  C   UNL     1      -9.068   7.790  69.903  1.00  0.00    -0.147 A  
ENDBRANCH   2   6
TORSDOF 1
ENDMDL
MODEL      153
REMARK 921   NORMALIZED FREE ENERGY PREDICTED BY IDOCK:   -2.78 KCAL/MOL
REMARK 922        TOTAL FREE ENERGY PREDICTED BY IDOCK:   -2.86 KCAL/MOL
REMARK 923 INTER-LIGAND FREE ENERGY PREDICTED BY IDOCK:   -3.49 KCAL/MOL
REMARK 924 INTRA-LIGAND FREE ENERGY PREDICTED BY IDOCK:    0.63 KCAL/MOL
REMARK 927      BINDING AFFINITY PREDICTED BY RF-SCORE:    0.00 PKD
ROOT
HETATM    1  N   UNL     1     -11.376  12.169  67.287  1.00  0.00    -0.311 N  
HETATM    2  C   UNL     1     -11.250  11.015  68.018  1.00  0.00    -0.309 C  
HETATM    3  H1  UNL     1     -10.562  12.472  66.752  1.00  0.00     0.000 HD 
HETATM    4  H2  UNL     1     -12.246  12.700  67.278  1.00  0.00     0.000 HD 
HETATM    5  O   UNL     1     -12.230  10.649  68.662  1.00  0.00    -0.386 OA 
ENDROOT
BRANCH   2   6
HETATM    6  N   UNL     1      -9.968  10.445  68.002  1.00  0.00    -0.153 N  
HETATM    7  C   UNL     1      -9.556   9.506  69.019  1.00  0.00    -0.166 A  
HETATM    8  C   UNL     1     -10.486   8.599  69.561  1.00  0.00    -0.222 A  
HETATM    9  C   UNL     1     -10.112   7.649  70.515  1.00  0.00    -0.189 A  
HETATM   10  C   UNL     1      -8.800   7.591  70.962  1.00  0.00    -0.146 A  
HETATM   11  C   UNL     1      -7.865   8.493  70.461  1.00  0.00    -0.086 A  
HETATM   12  C   UNL     1      -8.225   9.447  69.490  1.00  0.00    -0.124 A  
HETATM   13  C   UNL     1      -7.182  10.400  69.101  1.00  0.00    -0.089 C  
HETATM   14  C   UNL     1      -6.997  10.858  67.858  1.00  0.00    -0.073 C  
HETATM   15  C   UNL     1      -7.819  10.465  66.712  1.00  0.00    -0.117 A  
HETATM   16  C   UNL     1      -7.161  10.305  65.480  1.00  0.00    -0.142 A  
HETATM   17  C   UNL     1      -7.871   9.992  64.320  1.00  0.00    -0.144 A  
HETATM   18  C   UNL     1      -9.249   9.854  64.374  1.00  0.00    -0.317 A  
HETATM   19  C   UNL     1      -9.916  10.023  65.587  1.00  0.00    -0.355 A  
HETATM   20  C   UNL     1      -9.219  10.329  66.774  1.00  0.00    -0.157 A  
ENDBRANCH   2   6
TORSDOF 1
ENDMDL
MODEL      154
REMARK 921   NORMALIZED FREE ENERGY PREDICTED BY IDOCK:   -2.76 KCAL/MOL
REMARK 922        TOTAL FREE ENERGY PREDICTED BY IDOCK:   -2.84 KCAL/MOL
REMARK 923 INTER-LIGAND FREE ENERGY PREDICTED BY IDOCK:   -3.37 KCAL/MOL
REMARK 924 INTRA-LIGAND FREE ENERGY PREDICTED BY IDOCK:    0.53 KCAL/MOL
REMARK 927      BINDING AFFINITY PREDICTED BY RF-SCORE:    0.00 PKD
ROOT
HETATM    1  N   UNL     1      -7.143   8.237  64.979  1.00  0.00    -0.074 N  
HETATM    2  C   UNL     1      -7.928   8.370  66.097  1.00  0.00    -0.100 C  
HETATM    3  H1  UNL     1      -6.901   9.089  64.475  1.00  0.00     0.000 HD 
HETATM    4  H2  UNL     1      -6.816   7.323  64.666  1.00  0.00     0.000 HD 
HETATM    5  O   UNL     1      -8.219   7.342  66.704  1.00  0.00    -0.118 OA 
ENDROOT
BRANCH   2   6
HETATM    6  N   UNL     1      -8.373   9.676  66.350  1.00  0.00    -0.119 N  
HETATM    7  C   UNL     1      -7.592  10.589  67.151  1.00  0.00    -0.097 A  
HETATM    8  C   UNL     1      -6.186  10.557  67.089  1.00  0.00    -0.063 A  
HETATM    9  C   UNL     1      -5.401  11.453  67.818  1.00  0.00    -0.046 A  
HETATM   10  C   UNL     1      -6.002  12.397  68.638  1.00  0.00    -0.059 A  
HETATM   11  C   UNL     1      -7.389  12.435  68.736  1.00  0.00    -0.076 A  
HETATM   12  C   UNL     1      -8.194  11.546  67.999  1.00  0.00    -0.143 A  
HETATM   13  C   UNL     1      -9.636  11.619  68.248  1.00  0.00    -0.198 C  
HETATM   14  C   UNL     1     -10.578  11.477  67.309  1.00  0.00    -0.266 C  
HETATM   15  C   UNL     1     -10.290  11.227  65.895  1.00  0.00    -0.304 A  
HETATM   16  C   UNL     1     -11.123  11.856  64.954  1.00  0.00    -0.363 A  
HETATM   17  C   UNL     1     -10.964  11.629  63.586  1.00  0.00    -0.507 A  
HETATM   18  C   UNL     1      -9.982  10.756  63.144  1.00  0.00    -0.341 A  
HETATM   19  C   UNL     1      -9.156  10.115  64.068  1.00  0.00    -0.289 A  
HETATM   20  C   UNL     1      -9.291  10.337  65.454  1.00  0.00    -0.207 A  
ENDBRANCH   2   6
TORSDOF 1
ENDMDL
MODEL      155
REMARK 921   NORMALIZED FREE ENERGY PREDICTED BY IDOCK:   -2.74 KCAL/MOL
REMARK 922        TOTAL FREE ENERGY PREDICTED BY IDOCK:   -2.81 KCAL/MOL
REMARK 923 INTER-LIGAND FREE ENERGY PREDICTED BY IDOCK:   -2.89 KCAL/MOL
REMARK 924 INTRA-LIGAND FREE ENERGY PREDICTED BY IDOCK:    0.08 KCAL/MOL
REMARK 927      BINDING AFFINITY PREDICTED BY RF-SCORE:    0.00 PKD
ROOT
HETATM    1  N   UNL     1     -10.515   7.892  73.045  1.00  0.00    -0.357 N  
HETATM    2  C   UNL     1      -9.272   7.895  72.464  1.00  0.00    -0.190 C  
HETATM    3  H1  UNL     1     -11.105   7.077  72.880  1.00  0.00     0.000 HD 
HETATM    4  H2  UNL     1     -10.836   8.673  73.618  1.00  0.00     0.000 HD 
HETATM    5  O   UNL     1      -8.562   8.877  72.663  1.00  0.00    -0.384 OA 
ENDROOT
BRANCH   2   6
HETATM    6  N   UNL     1      -9.009   6.795  71.633  1.00  0.00    -0.137 N  
HETATM    7  C   UNL     1      -8.849   6.958  70.208  1.00  0.00    -0.148 A  
HETATM    8  C   UNL     1      -8.234   8.116  69.694  1.00  0.00    -0.120 A  
HETATM    9  C   UNL     1      -8.025   8.287  68.324  1.00  0.00    -0.119 A  
HETATM   10  C   UNL     1      -8.438   7.310  67.429  1.00  0.00    -0.119 A  
HETATM   11  C   UNL     1      -9.071   6.167  67.908  1.00  0.00    -0.117 A  
HETATM   12  C   UNL     1      -9.278   5.976  69.288  1.00  0.00    -0.133 A  
HETATM   13  C   UNL     1     -10.032   4.778  69.669  1.00  0.00    -0.297 C  
HETATM   14  C   UNL     1      -9.774   4.029  70.747  1.00  0.00    -0.263 C  
HETATM   15  C   UNL     1      -8.695   4.309  71.696  1.00  0.00    -0.136 A  
HETATM   16  C   UNL     1      -8.012   3.202  72.229  1.00  0.00    -0.059 A  
HETATM   17  C   UNL     1      -7.011   3.367  73.187  1.00  0.00    -0.040 A  
HETATM   18  C   UNL     1      -6.693   4.639  73.637  1.00  0.00    -0.064 A  
HETATM   19  C   UNL     1      -7.372   5.745  73.127  1.00  0.00    -0.095 A  
HETATM   20  C   UNL     1      -8.380   5.604  72.151  1.00  0.00    -0.115 A  
ENDBRANCH   2   6
TORSDOF 1
ENDMDL
MODEL      156
REMARK 921   NORMALIZED FREE ENERGY PREDICTED BY IDOCK:   -2.71 KCAL/MOL
REMARK 922        TOTAL FREE ENERGY PREDICTED BY IDOCK:   -2.78 KCAL/MOL
REMARK 923 INTER-LIGAND FREE ENERGY PREDICTED BY IDOCK:   -2.86 KCAL/MOL
REMARK 924 INTRA-LIGAND FREE ENERGY PREDICTED BY IDOCK:    0.08 KCAL/MOL
REMARK 927      BINDING AFFINITY PREDICTED BY RF-SCORE:    0.00 PKD
ROOT
HETATM    1  N   UNL     1      -9.288   4.402  68.030  1.00  0.00    -0.137 N  
HETATM    2  C   UNL     1      -9.869   5.609  68.324  1.00  0.00    -0.141 C  
HETATM    3  H1  UNL     1      -8.521   4.096  68.629  1.00  0.00     0.000 HD 
HETATM    4  H2  UNL     1      -9.609   3.834  67.246  1.00  0.00     0.000 HD 
HETATM    5  O   UNL     1     -10.793   5.977  67.602  1.00  0.00    -0.281 OA 
ENDROOT
BRANCH   2   6
HETATM    6  N   UNL     1      -9.261   6.315  69.373  1.00  0.00    -0.138 N  
HETATM    7  C   UNL     1      -8.531   7.536  69.126  1.00  0.00    -0.136 A  
HETATM    8  C   UNL     1      -8.962   8.426  68.124  1.00  0.00    -0.139 A  
HETATM    9  C   UNL     1      -8.304   9.636  67.887  1.00  0.00    -0.117 A  
HETATM   10  C   UNL     1      -7.189   9.980  68.638  1.00  0.00    -0.080 A  
HETATM   11  C   UNL     1      -6.727   9.107  69.618  1.00  0.00    -0.046 A  
HETATM   12  C   UNL     1      -7.387   7.890  69.876  1.00  0.00    -0.075 A  
HETATM   13  C   UNL     1      -6.761   7.012  70.868  1.00  0.00    -0.053 C  
HETATM   14  C   UNL     1      -7.432   6.267  71.754  1.00  0.00    -0.094 C  
HETATM   15  C   UNL     1      -8.892   6.231  71.851  1.00  0.00    -0.139 A  
HETATM   16  C   UNL     1      -9.444   6.141  73.141  1.00  0.00    -0.138 A  
HETATM   17  C   UNL     1     -10.823   6.039  73.328  1.00  0.00    -0.277 A  
HETATM   18  C   UNL     1     -11.666   6.007  72.228  1.00  0.00    -0.338 A  
HETATM   19  C   UNL     1     -11.131   6.082  70.942  1.00  0.00    -0.352 A  
HETATM   20  C   UNL     1      -9.742   6.196  70.728  1.00  0.00    -0.177 A  
ENDBRANCH   2   6
TORSDOF 1
ENDMDL
MODEL      157
REMARK 921   NORMALIZED FREE ENERGY PREDICTED BY IDOCK:   -2.70 KCAL/MOL
REMARK 922        TOTAL FREE ENERGY PREDICTED BY IDOCK:   -2.77 KCAL/MOL
REMARK 923 INTER-LIGAND FREE ENERGY PREDICTED BY IDOCK:   -3.61 KCAL/MOL
REMARK 924 INTRA-LIGAND FREE ENERGY PREDICTED BY IDOCK:    0.84 KCAL/MOL
REMARK 927      BINDING AFFINITY PREDICTED BY RF-SCORE:    0.00 PKD
ROOT
HETATM    1  N   UNL     1      -9.805  10.665  67.701  1.00  0.00    -0.165 N  
HETATM    2  C   UNL     1      -8.971  10.416  68.761  1.00  0.00    -0.157 C  
HETATM    3  H1  UNL     1     -10.579  10.018  67.554  1.00  0.00     0.000 HD 
HETATM    4  H2  UNL     1      -9.657  11.464  67.084  1.00  0.00     0.000 HD 
HETATM    5  O   UNL     1      -8.038  11.196  68.937  1.00  0.00    -0.144 OA 
ENDROOT
BRANCH   2   6
HETATM    6  N   UNL     1      -9.248   9.232  69.461  1.00  0.00    -0.157 N  
HETATM    7  C   UNL     1      -9.770   8.069  68.784  1.00  0.00    -0.156 A  
HETATM    8  C   UNL     1      -9.360   7.774  67.470  1.00  0.00    -0.161 A  
HETATM    9  C   UNL     1      -9.812   6.634  66.800  1.00  0.00    -0.227 A  
HETATM   10  C   UNL     1     -10.698   5.767  67.424  1.00  0.00    -0.332 A  
HETATM   11  C   UNL     1     -11.139   6.048  68.713  1.00  0.00    -0.329 A  
HETATM   12  C   UNL     1     -10.682   7.186  69.405  1.00  0.00    -0.246 A  
HETATM   13  C   UNL     1     -11.281   7.428  70.720  1.00  0.00    -0.293 C  
HETATM   14  C   UNL     1     -10.618   7.903  71.781  1.00  0.00    -0.276 C  
HETATM   15  C   UNL     1      -9.195   8.248  71.767  1.00  0.00    -0.261 A  
HETATM   16  C   UNL     1      -8.456   7.956  72.926  1.00  0.00    -0.222 A  
HETATM   17  C   UNL     1      -7.109   8.304  73.029  1.00  0.00    -0.137 A  
HETATM   18  C   UNL     1      -6.488   8.965  71.980  1.00  0.00    -0.030 A  
HETATM   19  C   UNL     1      -7.212   9.274  70.829  1.00  0.00    -0.126 A  
HETATM   20  C   UNL     1      -8.572   8.922  70.699  1.00  0.00    -0.194 A  
ENDBRANCH   2   6
TORSDOF 1
ENDMDL
MODEL      158
REMARK 921   NORMALIZED FREE ENERGY PREDICTED BY IDOCK:   -2.68 KCAL/MOL
REMARK 922        TOTAL FREE ENERGY PREDICTED BY IDOCK:   -2.75 KCAL/MOL
REMARK 923 INTER-LIGAND FREE ENERGY PREDICTED BY IDOCK:   -3.58 KCAL/MOL
REMARK 924 INTRA-LIGAND FREE ENERGY PREDICTED BY IDOCK:    0.83 KCAL/MOL
REMARK 927      BINDING AFFINITY PREDICTED BY RF-SCORE:    0.00 PKD
ROOT
HETATM    1  N   UNL     1     -11.200   9.320  67.740  1.00  0.00    -0.412 N  
HETATM    2  C   UNL     1      -9.878   9.414  68.095  1.00  0.00    -0.160 C  
HETATM    3  H1  UNL     1     -11.540   9.969  67.030  1.00  0.00     0.000 HD 
HETATM    4  H2  UNL     1     -11.817   8.629  68.167  1.00  0.00     0.000 HD 
HETATM    5  O   UNL     1      -9.470   8.632  68.949  1.00  0.00    -0.145 OA 
ENDROOT
BRANCH   2   6
HETATM    6  N   UNL     1      -9.180  10.469  67.488  1.00  0.00    -0.142 N  
HETATM    7  C   UNL     1      -8.076  10.216  66.593  1.00  0.00    -0.120 A  
HETATM    8  C   UNL     1      -8.099   9.093  65.743  1.00  0.00    -0.112 A  
HETATM    9  C   UNL     1      -7.068   8.841  64.835  1.00  0.00    -0.077 A  
HETATM   10  C   UNL     1      -5.979   9.699  64.763  1.00  0.00    -0.083 A  
HETATM   11  C   UNL     1      -5.920  10.803  65.608  1.00  0.00    -0.108 A  
HETATM   12  C   UNL     1      -6.957  11.076  66.520  1.00  0.00    -0.138 A  
HETATM   13  C   UNL     1      -6.746  12.213  67.420  1.00  0.00    -0.143 C  
HETATM   14  C   UNL     1      -7.703  13.065  67.805  1.00  0.00    -0.151 C  
HETATM   15  C   UNL     1      -9.100  12.972  67.377  1.00  0.00    -0.201 A  
HETATM   16  C   UNL     1      -9.774  14.182  67.132  1.00  0.00    -0.248 A  
HETATM   17  C   UNL     1     -11.123  14.195  66.779  1.00  0.00    -0.314 A  
HETATM   18  C   UNL     1     -11.821  13.001  66.684  1.00  0.00    -0.455 A  
HETATM   19  C   UNL     1     -11.169  11.795  66.937  1.00  0.00    -0.387 A  
HETATM   20  C   UNL     1      -9.803  11.755  67.285  1.00  0.00    -0.185 A  
ENDBRANCH   2   6
TORSDOF 1
ENDMDL
MODEL      159
REMARK 921   NORMALIZED FREE ENERGY PREDICTED BY IDOCK:   -2.66 KCAL/MOL
REMARK 922        TOTAL FREE ENERGY PREDICTED BY IDOCK:   -2.72 KCAL/MOL
REMARK 923 INTER-LIGAND FREE ENERGY PREDICTED BY IDOCK:   -2.79 KCAL/MOL
REMARK 924 INTRA-LIGAND FREE ENERGY PREDICTED BY IDOCK:    0.07 KCAL/MOL
REMARK 927      BINDING AFFINITY PREDICTED BY RF-SCORE:    0.00 PKD
ROOT
HETATM    1  N   UNL     1      -9.855   7.976  73.140  1.00  0.00    -0.287 N  
HETATM    2  C   UNL     1     -10.153   6.853  72.411  1.00  0.00    -0.170 C  
HETATM    3  H1  UNL     1      -9.017   8.494  72.876  1.00  0.00     0.000 HD 
HETATM    4  H2  UNL     1     -10.446   8.280  73.913  1.00  0.00     0.000 HD 
HETATM    5  O   UNL     1     -11.163   6.229  72.730  1.00  0.00    -0.257 OA 
ENDROOT
BRANCH   2   6
HETATM    6  N   UNL     1      -9.200   6.511  71.440  1.00  0.00    -0.148 N  
HETATM    7  C   UNL     1      -8.120   5.602  71.742  1.00  0.00    -0.118 A  
HETATM    8  C   UNL     1      -8.332   4.521  72.619  1.00  0.00    -0.110 A  
HETATM    9  C   UNL     1      -7.322   3.597  72.900  1.00  0.00    -0.059 A  
HETATM   10  C   UNL     1      -6.069   3.739  72.320  1.00  0.00    -0.009 A  
HETATM   11  C   UNL     1      -5.825   4.812  71.469  1.00  0.00    -0.013 A  
HETATM   12  C   UNL     1      -6.837   5.744  71.167  1.00  0.00    -0.065 A  
HETATM   13  C   UNL     1      -6.442   6.880  70.330  1.00  0.00    -0.047 C  
HETATM   14  C   UNL     1      -7.212   7.431  69.385  1.00  0.00    -0.083 C  
HETATM   15  C   UNL     1      -8.562   6.968  69.059  1.00  0.00    -0.129 A  
HETATM   16  C   UNL     1      -8.934   6.990  67.703  1.00  0.00    -0.117 A  
HETATM   17  C   UNL     1     -10.220   6.626  67.304  1.00  0.00    -0.256 A  
HETATM   18  C   UNL     1     -11.156   6.253  68.256  1.00  0.00    -0.364 A  
HETATM   19  C   UNL     1     -10.805   6.238  69.606  1.00  0.00    -0.403 A  
HETATM   20  C   UNL     1      -9.508   6.592  70.032  1.00  0.00    -0.157 A  
ENDBRANCH   2   6
TORSDOF 1
ENDMDL
MODEL      160
REMARK 921   NORMALIZED FREE ENERGY PREDICTED BY IDOCK:   -2.63 KCAL/MOL
REMARK 922        TOTAL FREE ENERGY PREDICTED BY IDOCK:   -2.69 KCAL/MOL
REMARK 923 INTER-LIGAND FREE ENERGY PREDICTED BY IDOCK:   -3.20 KCAL/MOL
REMARK 924 INTRA-LIGAND FREE ENERGY PREDICTED BY IDOCK:    0.51 KCAL/MOL
REMARK 927      BINDING AFFINITY PREDICTED BY RF-SCORE:    0.00 PKD
ROOT
HETATM    1  N   UNL     1      -6.492   8.757  69.270  1.00  0.00    -0.042 N  
HETATM    2  C   UNL     1      -7.270   9.337  70.240  1.00  0.00    -0.087 C  
HETATM    3  H1  UNL     1      -6.615   7.757  69.110  1.00  0.00     0.000 HD 
HETATM    4  H2  UNL     1      -5.819   9.302  68.732  1.00  0.00     0.000 HD 
HETATM    5  O   UNL     1      -7.121  10.541  70.433  1.00  0.00    -0.273 OA 
ENDROOT
BRANCH   2   6
HETATM    6  N   UNL     1      -8.082   8.444  70.956  1.00  0.00    -0.108 N  
HETATM    7  C   UNL     1      -9.185   7.764  70.319  1.00  0.00    -0.156 A  
HETATM    8  C   UNL     1      -9.085   7.362  68.974  1.00  0.00    -0.133 A  
HETATM    9  C   UNL     1     -10.116   6.665  68.339  1.00  0.00    -0.163 A  
HETATM   10  C   UNL     1     -11.281   6.364  69.031  1.00  0.00    -0.402 A  
HETATM   11  C   UNL     1     -11.416   6.772  70.354  1.00  0.00    -0.419 A  
HETATM   12  C   UNL     1     -10.380   7.464  71.010  1.00  0.00    -0.201 A  
HETATM   13  C   UNL     1     -10.668   7.920  72.373  1.00  0.00    -0.367 C  
HETATM   14  C   UNL     1      -9.783   7.923  73.376  1.00  0.00    -0.318 C  
HETATM   15  C   UNL     1      -8.397   7.468  73.243  1.00  0.00    -0.171 A  
HETATM   16  C   UNL     1      -7.847   6.774  74.335  1.00  0.00    -0.123 A  
HETATM   17  C   UNL     1      -6.516   6.355  74.325  1.00  0.00    -0.070 A  
HETATM   18  C   UNL     1      -5.714   6.642  73.231  1.00  0.00    -0.046 A  
HETATM   19  C   UNL     1      -6.243   7.341  72.147  1.00  0.00    -0.040 A  
HETATM   20  C   UNL     1      -7.588   7.765  72.130  1.00  0.00    -0.082 A  
ENDBRANCH   2   6
TORSDOF 1
ENDMDL
MODEL      161
REMARK 921   NORMALIZED FREE ENERGY PREDICTED BY IDOCK:   -2.59 KCAL/MOL
REMARK 922        TOTAL FREE ENERGY PREDICTED BY IDOCK:   -2.65 KCAL/MOL
REMARK 923 INTER-LIGAND FREE ENERGY PREDICTED BY IDOCK:   -3.24 KCAL/MOL
REMARK 924 INTRA-LIGAND FREE ENERGY PREDICTED BY IDOCK:    0.60 KCAL/MOL
REMARK 927      BINDING AFFINITY PREDICTED BY RF-SCORE:    0.00 PKD
ROOT
HETATM    1  N   UNL     1      -7.525   6.935  69.580  1.00  0.00    -0.094 N  
HETATM    2  C   UNL     1      -7.616   8.264  69.906  1.00  0.00    -0.080 C  
HETATM    3  H1  UNL     1      -8.345   6.502  69.156  1.00  0.00     0.000 HD 
HETATM    4  H2  UNL     1      -6.673   6.402  69.753  1.00  0.00     0.000 HD 
HETATM    5  O   UNL     1      -6.627   8.786  70.417  1.00  0.00    -0.038 OA 
ENDROOT
BRANCH   2   6
HETATM    6  N   UNL     1      -8.878   8.837  69.692  1.00  0.00    -0.138 N  
HETATM    7  C   UNL     1      -9.164   9.586  68.491  1.00  0.00    -0.131 A  
HETATM    8  C   UNL     1      -8.589   9.200  67.265  1.00  0.00    -0.118 A  
HETATM    9  C   UNL     1      -8.876   9.875  66.076  1.00  0.00    -0.166 A  
HETATM   10  C   UNL     1      -9.737  10.963  66.085  1.00  0.00    -0.252 A  
HETATM   11  C   UNL     1     -10.300  11.381  67.287  1.00  0.00    -0.230 A  
HETATM   12  C   UNL     1     -10.029  10.703  68.491  1.00  0.00    -0.176 A  
HETATM   13  C   UNL     1     -10.606  11.285  69.706  1.00  0.00     0.108 C  
HETATM   14  C   UNL     1     -11.098  10.575  70.727  1.00  0.00    -0.065 C  
HETATM   15  C   UNL     1     -11.126   9.112  70.768  1.00  0.00    -0.336 A  
HETATM   16  C   UNL     1     -12.254   8.511  71.353  1.00  0.00    -0.343 A  
HETATM   17  C   UNL     1     -12.342   7.126  71.491  1.00  0.00    -0.406 A  
HETATM   18  C   UNL     1     -11.294   6.325  71.063  1.00  0.00    -0.378 A  
HETATM   19  C   UNL     1     -10.164   6.908  70.492  1.00  0.00    -0.209 A  
HETATM   20  C   UNL     1     -10.057   8.305  70.332  1.00  0.00    -0.190 A  
ENDBRANCH   2   6
TORSDOF 1
ENDMDL
MODEL      162
REMARK 921   NORMALIZED FREE ENERGY PREDICTED BY IDOCK:   -2.51 KCAL/MOL
REMARK 922        TOTAL FREE ENERGY PREDICTED BY IDOCK:   -2.57 KCAL/MOL
REMARK 923 INTER-LIGAND FREE ENERGY PREDICTED BY IDOCK:   -3.67 KCAL/MOL
REMARK 924 INTRA-LIGAND FREE ENERGY PREDICTED BY IDOCK:    1.09 KCAL/MOL
REMARK 927      BINDING AFFINITY PREDICTED BY RF-SCORE:    0.00 PKD
ROOT
HETATM    1  N   UNL     1      -8.742  11.449  67.960  1.00  0.00    -0.142 N  
HETATM    2  C   UNL     1      -8.585  10.094  68.104  1.00  0.00    -0.118 C  
HETATM    3  H1  UNL     1      -9.043  11.789  67.047  1.00  0.00     0.000 HD 
HETATM    4  H2  UNL     1      -8.565  12.089  68.734  1.00  0.00     0.000 HD 
HETATM    5  O   UNL     1      -8.223   9.684  69.203  1.00  0.00    -0.107 OA 
ENDROOT
BRANCH   2   6
HETATM    6  N   UNL     1      -8.777   9.352  66.928  1.00  0.00    -0.127 N  
HETATM    7  C   UNL     1      -9.109   7.948  66.978  1.00  0.00    -0.137 A  
HETATM    8  C   UNL     1      -9.932   7.452  68.007  1.00  0.00    -0.195 A  
HETATM    9  C   UNL     1     -10.308   6.108  68.061  1.00  0.00    -0.245 A  
HETATM   10  C   UNL     1      -9.858   5.220  67.094  1.00  0.00    -0.184 A  
HETATM   11  C   UNL     1      -9.023   5.678  66.079  1.00  0.00    -0.158 A  
HETATM   12  C   UNL     1      -8.646   7.033  66.005  1.00  0.00    -0.154 A  
HETATM   13  C   UNL     1      -7.695   7.383  64.947  1.00  0.00    -0.113 C  
HETATM   14  C   UNL     1      -7.729   8.518  64.240  1.00  0.00    -0.130 C  
HETATM   15  C   UNL     1      -8.730   9.570  64.431  1.00  0.00    -0.235 A  
HETATM   16  C   UNL     1      -9.190  10.229  63.278  1.00  0.00    -0.321 A  
HETATM   17  C   UNL     1     -10.098  11.286  63.367  1.00  0.00    -0.445 A  
HETATM   18  C   UNL     1     -10.541  11.707  64.611  1.00  0.00    -0.366 A  
HETATM   19  C   UNL     1     -10.084  11.071  65.764  1.00  0.00    -0.305 A  
HETATM   20  C   UNL     1      -9.175   9.994  65.698  1.00  0.00    -0.186 A  
ENDBRANCH   2   6
TORSDOF 1
ENDMDL
MODEL      163
REMARK 921   NORMALIZED FREE ENERGY PREDICTED BY IDOCK:   -2.50 KCAL/MOL
REMARK 922        TOTAL FREE ENERGY PREDICTED BY IDOCK:   -2.56 KCAL/MOL
REMARK 923 INTER-LIGAND FREE ENERGY PREDICTED BY IDOCK:   -3.06 KCAL/MOL
REMARK 924 INTRA-LIGAND FREE ENERGY PREDICTED BY IDOCK:    0.49 KCAL/MOL
REMARK 927      BINDING AFFINITY PREDICTED BY RF-SCORE:    0.00 PKD
ROOT
HETATM    1  N   UNL     1     -10.681   8.477  68.536  1.00  0.00    -0.417 N  
HETATM    2  C   UNL     1     -10.705   7.407  69.394  1.00  0.00    -0.211 C  
HETATM    3  H1  UNL     1      -9.989   8.459  67.787  1.00  0.00     0.000 HD 
HETATM    4  H2  UNL     1     -11.328   9.259  68.643  1.00  0.00     0.000 HD 
HETATM    5  O   UNL     1     -11.539   7.429  70.296  1.00  0.00    -0.232 OA 
ENDROOT
BRANCH   2   6
HETATM    6  N   UNL     1      -9.698   6.455  69.175  1.00  0.00    -0.135 N  
HETATM    7  C   UNL     1      -9.183   5.651  70.258  1.00  0.00    -0.151 A  
HETATM    8  C   UNL     1     -10.041   5.225  71.290  1.00  0.00    -0.278 A  
HETATM    9  C   UNL     1      -9.586   4.410  72.330  1.00  0.00    -0.200 A  
HETATM   10  C   UNL     1      -8.258   4.012  72.372  1.00  0.00    -0.098 A  
HETATM   11  C   UNL     1      -7.383   4.439  71.377  1.00  0.00    -0.055 A  
HETATM   12  C   UNL     1      -7.830   5.250  70.317  1.00  0.00    -0.083 A  
HETATM   13  C   UNL     1      -6.803   5.711  69.378  1.00  0.00    -0.061 C  
HETATM   14  C   UNL     1      -6.981   5.830  68.057  1.00  0.00    -0.065 C  
HETATM   15  C   UNL     1      -8.235   5.514  67.370  1.00  0.00    -0.101 A  
HETATM   16  C   UNL     1      -8.134   4.909  66.105  1.00  0.00    -0.107 A  
HETATM   17  C   UNL     1      -9.272   4.628  65.349  1.00  0.00    -0.155 A  
HETATM   18  C   UNL     1     -10.524   4.965  65.840  1.00  0.00    -0.282 A  
HETATM   19  C   UNL     1     -10.638   5.577  67.087  1.00  0.00    -0.313 A  
HETATM   20  C   UNL     1      -9.503   5.862  67.874  1.00  0.00    -0.110 A  
ENDBRANCH   2   6
TORSDOF 1
ENDMDL
MODEL      164
REMARK 921   NORMALIZED FREE ENERGY PREDICTED BY IDOCK:   -2.50 KCAL/MOL
REMARK 922        TOTAL FREE ENERGY PREDICTED BY IDOCK:   -2.56 KCAL/MOL
REMARK 923 INTER-LIGAND FREE ENERGY PREDICTED BY IDOCK:   -3.05 KCAL/MOL
REMARK 924 INTRA-LIGAND FREE ENERGY PREDICTED BY IDOCK:    0.49 KCAL/MOL
REMARK 927      BINDING AFFINITY PREDICTED BY RF-SCORE:    0.00 PKD
ROOT
HETATM    1  N   UNL     1     -11.352   7.291  67.403  1.00  0.00    -0.454 N  
HETATM    2  C   UNL     1     -10.234   6.625  67.837  1.00  0.00    -0.171 C  
HETATM    3  H1  UNL     1     -11.370   8.303  67.529  1.00  0.00     0.000 HD 
HETATM    4  H2  UNL     1     -12.132   6.795  66.972  1.00  0.00     0.000 HD 
HETATM    5  O   UNL     1     -10.212   5.406  67.685  1.00  0.00    -0.177 OA 
ENDROOT
BRANCH   2   6
HETATM    6  N   UNL     1      -9.287   7.429  68.489  1.00  0.00    -0.142 N  
HETATM    7  C   UNL     1      -8.413   8.305  67.745  1.00  0.00    -0.131 A  
HETATM    8  C   UNL     1      -8.879   8.946  66.582  1.00  0.00    -0.150 A  
HETATM    9  C   UNL     1      -8.074   9.833  65.862  1.00  0.00    -0.114 A  
HETATM   10  C   UNL     1      -6.776  10.090  66.280  1.00  0.00    -0.094 A  
HETATM   11  C   UNL     1      -6.282   9.451  67.412  1.00  0.00    -0.061 A  
HETATM   12  C   UNL     1      -7.085   8.564  68.154  1.00  0.00    -0.085 A  
HETATM   13  C   UNL     1      -6.432   7.882  69.275  1.00  0.00    -0.036 C  
HETATM   14  C   UNL     1      -7.018   7.617  70.448  1.00  0.00    -0.047 C  
HETATM   15  C   UNL     1      -8.401   7.974  70.770  1.00  0.00    -0.115 A  
HETATM   16  C   UNL     1      -8.660   8.401  72.084  1.00  0.00    -0.257 A  
HETATM   17  C   UNL     1      -9.957   8.703  72.500  1.00  0.00    -0.257 A  
HETATM   18  C   UNL     1     -11.013   8.566  71.613  1.00  0.00    -0.362 A  
HETATM   19  C   UNL     1     -10.772   8.132  70.310  1.00  0.00    -0.235 A  
HETATM   20  C   UNL     1      -9.469   7.830  69.864  1.00  0.00    -0.160 A  
ENDBRANCH   2   6
TORSDOF 1
ENDMDL
MODEL      165
REMARK 921   NORMALIZED FREE ENERGY PREDICTED BY IDOCK:   -2.45 KCAL/MOL
REMARK 922        TOTAL FREE ENERGY PREDICTED BY IDOCK:   -2.51 KCAL/MOL
REMARK 923 INTER-LIGAND FREE ENERGY PREDICTED BY IDOCK:   -2.59 KCAL/MOL
REMARK 924 INTRA-LIGAND FREE ENERGY PREDICTED BY IDOCK:    0.09 KCAL/MOL
REMARK 927      BINDING AFFINITY PREDICTED BY RF-SCORE:    0.00 PKD
ROOT
HETATM    1  N   UNL     1      -8.893  11.044  69.757  1.00  0.00    -0.014 N  
HETATM    2  C   UNL     1      -9.729  10.015  69.404  1.00  0.00    -0.225 C  
HETATM    3  H1  UNL     1      -7.891  10.859  69.736  1.00  0.00     0.000 HD 
HETATM    4  H2  UNL     1      -9.260  11.957  70.028  1.00  0.00     0.000 HD 
HETATM    5  O   UNL     1     -10.936  10.239  69.428  1.00  0.00    -0.219 OA 
ENDROOT
BRANCH   2   6
HETATM    6  N   UNL     1      -9.083   8.797  69.143  1.00  0.00    -0.141 N  
HETATM    7  C   UNL     1      -9.275   7.652  70.002  1.00  0.00    -0.151 A  
HETATM    8  C   UNL     1     -10.527   7.422  70.603  1.00  0.00    -0.224 A  
HETATM    9  C   UNL     1     -10.760   6.302  71.405  1.00  0.00    -0.297 A  
HETATM   10  C   UNL     1      -9.741   5.390  71.638  1.00  0.00    -0.204 A  
HETATM   11  C   UNL     1      -8.486   5.606  71.076  1.00  0.00    -0.122 A  
HETATM   12  C   UNL     1      -8.240   6.724  70.256  1.00  0.00    -0.125 A  
HETATM   13  C   UNL     1      -6.861   6.896  69.793  1.00  0.00    -0.051 C  
HETATM   14  C   UNL     1      -6.518   7.341  68.579  1.00  0.00    -0.040 C  
HETATM   15  C   UNL     1      -7.483   7.718  67.544  1.00  0.00    -0.097 A  
HETATM   16  C   UNL     1      -7.154   7.392  66.216  1.00  0.00    -0.070 A  
HETATM   17  C   UNL     1      -7.982   7.766  65.157  1.00  0.00    -0.129 A  
HETATM   18  C   UNL     1      -9.140   8.485  65.411  1.00  0.00    -0.103 A  
HETATM   19  C   UNL     1      -9.472   8.825  66.722  1.00  0.00    -0.249 A  
HETATM   20  C   UNL     1      -8.656   8.450  67.809  1.00  0.00    -0.130 A  
ENDBRANCH   2   6
TORSDOF 1
ENDMDL
MODEL      166
REMARK 921   NORMALIZED FREE ENERGY PREDICTED BY IDOCK:   -2.44 KCAL/MOL
REMARK 922        TOTAL FREE ENERGY PREDICTED BY IDOCK:   -2.50 KCAL/MOL
REMARK 923 INTER-LIGAND FREE ENERGY PREDICTED BY IDOCK:   -3.01 KCAL/MOL
REMARK 924 INTRA-LIGAND FREE ENERGY PREDICTED BY IDOCK:    0.51 KCAL/MOL
REMARK 927      BINDING AFFINITY PREDICTED BY RF-SCORE:    0.00 PKD
ROOT
HETATM    1  N   UNL     1     -10.973  10.764  66.955  1.00  0.00    -0.259 N  
HETATM    2  C   UNL     1     -10.174  10.199  65.994  1.00  0.00    -0.218 C  
HETATM    3  H1  UNL     1     -10.739  10.570  67.929  1.00  0.00     0.000 HD 
HETATM    4  H2  UNL     1     -11.767  11.353  66.707  1.00  0.00     0.000 HD 
HETATM    5  O   UNL     1     -10.456  10.432  64.821  1.00  0.00    -0.261 OA 
ENDROOT
BRANCH   2   6
HETATM    6  N   UNL     1      -9.178   9.342  66.486  1.00  0.00    -0.152 N  
HETATM    7  C   UNL     1      -8.075   9.851  67.267  1.00  0.00    -0.113 A  
HETATM    8  C   UNL     1      -8.274  10.927  68.153  1.00  0.00    -0.121 A  
HETATM    9  C   UNL     1      -7.240  11.416  68.954  1.00  0.00    -0.113 A  
HETATM   10  C   UNL     1      -5.975  10.850  68.881  1.00  0.00    -0.040 A  
HETATM   11  C   UNL     1      -5.745   9.801  67.996  1.00  0.00    -0.040 A  
HETATM   12  C   UNL     1      -6.781   9.290  67.191  1.00  0.00    -0.076 A  
HETATM   13  C   UNL     1      -6.402   8.245  66.235  1.00  0.00    -0.046 C  
HETATM   14  C   UNL     1      -7.161   7.189  65.924  1.00  0.00    -0.069 C  
HETATM   15  C   UNL     1      -8.482   6.933  66.502  1.00  0.00    -0.125 A  
HETATM   16  C   UNL     1      -8.811   5.594  66.775  1.00  0.00    -0.115 A  
HETATM   17  C   UNL     1     -10.069   5.248  67.269  1.00  0.00    -0.234 A  
HETATM   18  C   UNL     1     -11.020   6.235  67.478  1.00  0.00    -0.444 A  
HETATM   19  C   UNL     1     -10.712   7.566  67.200  1.00  0.00    -0.379 A  
HETATM   20  C   UNL     1      -9.444   7.941  66.710  1.00  0.00    -0.201 A  
ENDBRANCH   2   6
TORSDOF 1
ENDMDL
MODEL      167
REMARK 921   NORMALIZED FREE ENERGY PREDICTED BY IDOCK:   -2.43 KCAL/MOL
REMARK 922        TOTAL FREE ENERGY PREDICTED BY IDOCK:   -2.48 KCAL/MOL
REMARK 923 INTER-LIGAND FREE ENERGY PREDICTED BY IDOCK:   -2.55 KCAL/MOL
REMARK 924 INTRA-LIGAND FREE ENERGY PREDICTED BY IDOCK:    0.06 KCAL/MOL
REMARK 927      BINDING AFFINITY PREDICTED BY RF-SCORE:    0.00 PKD
ROOT
HETATM    1  N   UNL     1     -10.243   9.372  66.789  1.00  0.00    -0.250 N  
HETATM    2  C   UNL     1      -9.079   8.877  67.321  1.00  0.00    -0.134 C  
HETATM    3  H1  UNL     1     -10.921   8.695  66.438  1.00  0.00     0.000 HD 
HETATM    4  H2  UNL     1     -10.424  10.375  66.747  1.00  0.00     0.000 HD 
HETATM    5  O   UNL     1      -8.264   9.693  67.743  1.00  0.00    -0.112 OA 
ENDROOT
BRANCH   2   6
HETATM    6  N   UNL     1      -8.936   7.484  67.227  1.00  0.00    -0.123 N  
HETATM    7  C   UNL     1      -8.033   6.890  66.270  1.00  0.00    -0.108 A  
HETATM    8  C   UNL     1      -6.818   7.527  65.956  1.00  0.00    -0.057 A  
HETATM    9  C   UNL     1      -5.901   6.960  65.068  1.00  0.00    -0.036 A  
HETATM   10  C   UNL     1      -6.183   5.744  64.460  1.00  0.00    -0.026 A  
HETATM   11  C   UNL     1      -7.388   5.104  64.734  1.00  0.00    -0.067 A  
HETATM   12  C   UNL     1      -8.316   5.659  65.636  1.00  0.00    -0.135 A  
HETATM   13  C   UNL     1      -9.586   4.943  65.780  1.00  0.00    -0.181 C  
HETATM   14  C   UNL     1     -10.251   4.800  66.932  1.00  0.00    -0.230 C  
HETATM   15  C   UNL     1      -9.794   5.345  68.212  1.00  0.00    -0.196 A  
HETATM   16  C   UNL     1     -10.020   4.559  69.356  1.00  0.00    -0.212 A  
HETATM   17  C   UNL     1      -9.674   5.022  70.626  1.00  0.00    -0.266 A  
HETATM   18  C   UNL     1      -9.116   6.283  70.770  1.00  0.00    -0.150 A  
HETATM   19  C   UNL     1      -8.899   7.078  69.645  1.00  0.00    -0.141 A  
HETATM   20  C   UNL     1      -9.230   6.627  68.351  1.00  0.00    -0.122 A  
ENDBRANCH   2   6
TORSDOF 1
ENDMDL
MODEL      168
REMARK 921   NORMALIZED FREE ENERGY PREDICTED BY IDOCK:   -2.42 KCAL/MOL
REMARK 922        TOTAL FREE ENERGY PREDICTED BY IDOCK:   -2.48 KCAL/MOL
REMARK 923 INTER-LIGAND FREE ENERGY PREDICTED BY IDOCK:   -2.56 KCAL/MOL
REMARK 924 INTRA-LIGAND FREE ENERGY PREDICTED BY IDOCK:    0.08 KCAL/MOL
REMARK 927      BINDING AFFINITY PREDICTED BY RF-SCORE:    0.00 PKD
ROOT
HETATM    1  N   UNL     1     -11.248   9.767  68.118  1.00  0.00    -0.522 N  
HETATM    2  C   UNL     1     -10.225   8.872  68.308  1.00  0.00    -0.201 C  
HETATM    3  H1  UNL     1     -10.997  10.697  67.783  1.00  0.00     0.000 HD 
HETATM    4  H2  UNL     1     -12.218   9.512  68.304  1.00  0.00     0.000 HD 
HETATM    5  O   UNL     1     -10.527   7.752  68.712  1.00  0.00    -0.206 OA 
ENDROOT
BRANCH   2   6
HETATM    6  N   UNL     1      -8.940   9.394  68.096  1.00  0.00    -0.128 N  
HETATM    7  C   UNL     1      -8.007   9.546  69.188  1.00  0.00    -0.094 A  
HETATM    8  C   UNL     1      -7.985   8.603  70.233  1.00  0.00    -0.106 A  
HETATM    9  C   UNL     1      -7.067   8.695  71.282  1.00  0.00    -0.086 A  
HETATM   10  C   UNL     1      -6.156   9.741  71.320  1.00  0.00    -0.003 A  
HETATM   11  C   UNL     1      -6.173  10.701  70.312  1.00  0.00    -0.139 A  
HETATM   12  C   UNL     1      -7.084  10.614  69.242  1.00  0.00    -0.107 A  
HETATM   13  C   UNL     1      -7.070  11.726  68.288  1.00  0.00    -0.079 C  
HETATM   14  C   UNL     1      -7.237  11.596  66.967  1.00  0.00    -0.143 C  
HETATM   15  C   UNL     1      -7.459  10.314  66.295  1.00  0.00    -0.118 A  
HETATM   16  C   UNL     1      -6.852  10.139  65.039  1.00  0.00    -0.132 A  
HETATM   17  C   UNL     1      -7.057   8.976  64.296  1.00  0.00    -0.090 A  
HETATM   18  C   UNL     1      -7.886   7.982  64.791  1.00  0.00    -0.131 A  
HETATM   19  C   UNL     1      -8.505   8.147  66.030  1.00  0.00    -0.150 A  
HETATM   20  C   UNL     1      -8.305   9.309  66.803  1.00  0.00    -0.123 A  
ENDBRANCH   2   6
TORSDOF 1
ENDMDL
MODEL      169
REMARK 921   NORMALIZED FREE ENERGY PREDICTED BY IDOCK:   -2.41 KCAL/MOL
REMARK 922        TOTAL FREE ENERGY PREDICTED BY IDOCK:   -2.47 KCAL/MOL
REMARK 923 INTER-LIGAND FREE ENERGY PREDICTED BY IDOCK:   -2.85 KCAL/MOL
REMARK 924 INTRA-LIGAND FREE ENERGY PREDICTED BY IDOCK:    0.38 KCAL/MOL
REMARK 927      BINDING AFFINITY PREDICTED BY RF-SCORE:    0.00 PKD
ROOT
HETATM    1  N   UNL     1      -8.339   2.942  67.751  1.00  0.00    -0.079 N  
HETATM    2  C   UNL     1      -8.998   3.221  68.921  1.00  0.00    -0.130 C  
HETATM    3  H1  UNL     1      -7.781   3.690  67.340  1.00  0.00     0.000 HD 
HETATM    4  H2  UNL     1      -8.406   2.024  67.310  1.00  0.00     0.000 HD 
HETATM    5  O   UNL     1      -9.671   2.320  69.416  1.00  0.00    -0.033 OA 
ENDROOT
BRANCH   2   6
HETATM    6  N   UNL     1      -8.884   4.550  69.357  1.00  0.00    -0.086 N  
HETATM    7  C   UNL     1      -9.343   5.646  68.537  1.00  0.00    -0.123 A  
HETATM    8  C   UNL     1     -10.487   5.494  67.731  1.00  0.00    -0.245 A  
HETATM    9  C   UNL     1     -10.984   6.546  66.958  1.00  0.00    -0.466 A  
HETATM   10  C   UNL     1     -10.341   7.776  66.962  1.00  0.00    -0.405 A  
HETATM   11  C   UNL     1      -9.194   7.947  67.731  1.00  0.00    -0.144 A  
HETATM   12  C   UNL     1      -8.689   6.898  68.524  1.00  0.00    -0.125 A  
HETATM   13  C   UNL     1      -7.428   7.164  69.222  1.00  0.00    -0.093 C  
HETATM   14  C   UNL     1      -7.136   6.733  70.454  1.00  0.00    -0.068 C  
HETATM   15  C   UNL     1      -8.045   5.930  71.275  1.00  0.00    -0.118 A  
HETATM   16  C   UNL     1      -8.062   6.197  72.655  1.00  0.00    -0.103 A  
HETATM   17  C   UNL     1      -8.850   5.443  73.524  1.00  0.00    -0.119 A  
HETATM   18  C   UNL     1      -9.616   4.400  73.027  1.00  0.00    -0.156 A  
HETATM   19  C   UNL     1      -9.599   4.115  71.662  1.00  0.00    -0.232 A  
HETATM   20  C   UNL     1      -8.819   4.871  70.763  1.00  0.00    -0.126 A  
ENDBRANCH   2   6
TORSDOF 1
ENDMDL
MODEL      170
REMARK 921   NORMALIZED FREE ENERGY PREDICTED BY IDOCK:   -2.39 KCAL/MOL
REMARK 922        TOTAL FREE ENERGY PREDICTED BY IDOCK:   -2.44 KCAL/MOL
REMARK 923 INTER-LIGAND FREE ENERGY PREDICTED BY IDOCK:   -2.55 KCAL/MOL
REMARK 924 INTRA-LIGAND FREE ENERGY PREDICTED BY IDOCK:    0.12 KCAL/MOL
REMARK 927      BINDING AFFINITY PREDICTED BY RF-SCORE:    0.00 PKD
ROOT
HETATM    1  N   UNL     1      -7.628   8.177  65.885  1.00  0.00    -0.080 N  
HETATM    2  C   UNL     1      -8.836   7.911  66.478  1.00  0.00    -0.152 C  
HETATM    3  H1  UNL     1      -6.817   7.662  66.227  1.00  0.00     0.000 HD 
HETATM    4  H2  UNL     1      -7.544   8.862  65.134  1.00  0.00     0.000 HD 
HETATM    5  O   UNL     1      -9.813   8.532  66.066  1.00  0.00    -0.212 OA 
ENDROOT
BRANCH   2   6
HETATM    6  N   UNL     1      -8.778   7.013  67.555  1.00  0.00    -0.121 N  
HETATM    7  C   UNL     1      -9.195   7.408  68.879  1.00  0.00    -0.142 A  
HETATM    8  C   UNL     1     -10.274   8.297  69.044  1.00  0.00    -0.226 A  
HETATM    9  C   UNL     1     -10.732   8.667  70.311  1.00  0.00    -0.243 A  
HETATM   10  C   UNL     1     -10.112   8.167  71.447  1.00  0.00    -0.248 A  
HETATM   11  C   UNL     1      -9.027   7.305  71.313  1.00  0.00    -0.139 A  
HETATM   12  C   UNL     1      -8.563   6.915  70.043  1.00  0.00    -0.141 A  
HETATM   13  C   UNL     1      -7.361   6.076  70.022  1.00  0.00    -0.075 C  
HETATM   14  C   UNL     1      -7.152   5.069  69.167  1.00  0.00    -0.056 C  
HETATM   15  C   UNL     1      -8.105   4.667  68.130  1.00  0.00    -0.088 A  
HETATM   16  C   UNL     1      -8.227   3.290  67.874  1.00  0.00    -0.087 A  
HETATM   17  C   UNL     1      -9.063   2.817  66.863  1.00  0.00    -0.172 A  
HETATM   18  C   UNL     1      -9.773   3.716  66.081  1.00  0.00    -0.092 A  
HETATM   19  C   UNL     1      -9.652   5.085  66.315  1.00  0.00    -0.175 A  
HETATM   20  C   UNL     1      -8.821   5.586  67.339  1.00  0.00    -0.105 A  
ENDBRANCH   2   6
TORSDOF 1
ENDMDL
MODEL      171
REMARK 921   NORMALIZED FREE ENERGY PREDICTED BY IDOCK:   -2.30 KCAL/MOL
REMARK 922        TOTAL FREE ENERGY PREDICTED BY IDOCK:   -2.35 KCAL/MOL
REMARK 923 INTER-LIGAND FREE ENERGY PREDICTED BY IDOCK:   -2.41 KCAL/MOL
REMARK 924 INTRA-LIGAND FREE ENERGY PREDICTED BY IDOCK:    0.06 KCAL/MOL
REMARK 927      BINDING AFFINITY PREDICTED BY RF-SCORE:    0.00 PKD
ROOT
HETATM    1  N   UNL     1      -9.248   6.732  68.337  1.00  0.00    -0.125 N  
HETATM    2  C   UNL     1      -8.255   6.069  69.011  1.00  0.00    -0.108 C  
HETATM    3  H1  UNL     1     -10.083   6.985  68.867  1.00  0.00     0.000 HD 
HETATM    4  H2  UNL     1      -9.157   6.964  67.348  1.00  0.00     0.000 HD 
HETATM    5  O   UNL     1      -7.250   5.765  68.373  1.00  0.00    -0.075 OA 
ENDROOT
BRANCH   2   6
HETATM    6  N   UNL     1      -8.563   5.742  70.341  1.00  0.00    -0.131 N  
HETATM    7  C   UNL     1      -8.962   4.404  70.707  1.00  0.00    -0.104 A  
HETATM    8  C   UNL     1      -8.396   3.294  70.050  1.00  0.00    -0.079 A  
HETATM    9  C   UNL     1      -8.727   1.985  70.408  1.00  0.00    -0.116 A  
HETATM   10  C   UNL     1      -9.644   1.752  71.424  1.00  0.00    -0.206 A  
HETATM   11  C   UNL     1     -10.236   2.831  72.073  1.00  0.00    -0.116 A  
HETATM   12  C   UNL     1      -9.903   4.156  71.731  1.00  0.00    -0.252 A  
HETATM   13  C   UNL     1     -10.653   5.210  72.419  1.00  0.00    -0.278 C  
HETATM   14  C   UNL     1     -10.131   6.373  72.823  1.00  0.00    -0.195 C  
HETATM   15  C   UNL     1      -8.730   6.751  72.630  1.00  0.00    -0.130 A  
HETATM   16  C   UNL     1      -8.114   7.472  73.668  1.00  0.00    -0.176 A  
HETATM   17  C   UNL     1      -6.801   7.928  73.547  1.00  0.00    -0.116 A  
HETATM   18  C   UNL     1      -6.094   7.684  72.380  1.00  0.00    -0.040 A  
HETATM   19  C   UNL     1      -6.696   6.981  71.338  1.00  0.00    -0.052 A  
HETATM   20  C   UNL     1      -8.018   6.502  71.441  1.00  0.00    -0.108 A  
ENDBRANCH   2   6
TORSDOF 1
ENDMDL
MODEL      172
REMARK 921   NORMALIZED FREE ENERGY PREDICTED BY IDOCK:   -2.22 KCAL/MOL
REMARK 922        TOTAL FREE ENERGY PREDICTED BY IDOCK:   -2.26 KCAL/MOL
REMARK 923 INTER-LIGAND FREE ENERGY PREDICTED BY IDOCK:   -3.33 KCAL/MOL
REMARK 924 INTRA-LIGAND FREE ENERGY PREDICTED BY IDOCK:    1.07 KCAL/MOL
REMARK 927      BINDING AFFINITY PREDICTED BY RF-SCORE:    0.00 PKD
ROOT
HETATM    1  N   UNL     1      -9.408   2.244  69.525  1.00  0.00    -0.113 N  
HETATM    2  C   UNL     1      -9.711   2.857  70.715  1.00  0.00    -0.051 C  
HETATM    3  H1  UNL     1      -9.356   2.835  68.696  1.00  0.00     0.000 HD 
HETATM    4  H2  UNL     1      -9.241   1.239  69.473  1.00  0.00     0.000 HD 
HETATM    5  O   UNL     1      -9.773   2.145  71.713  1.00  0.00    -0.124 OA 
ENDROOT
BRANCH   2   6
HETATM    6  N   UNL     1     -10.001   4.226  70.613  1.00  0.00    -0.188 N  
HETATM    7  C   UNL     1      -9.975   5.083  71.774  1.00  0.00    -0.191 A  
HETATM    8  C   UNL     1      -9.031   4.859  72.795  1.00  0.00    -0.129 A  
HETATM    9  C   UNL     1      -8.949   5.694  73.912  1.00  0.00    -0.126 A  
HETATM   10  C   UNL     1      -9.819   6.767  74.044  1.00  0.00    -0.334 A  
HETATM   11  C   UNL     1     -10.777   6.997  73.061  1.00  0.00    -0.337 A  
HETATM   12  C   UNL     1     -10.864   6.171  71.924  1.00  0.00    -0.295 A  
HETATM   13  C   UNL     1     -11.966   6.453  71.001  1.00  0.00    -0.265 C  
HETATM   14  C   UNL     1     -11.882   6.369  69.669  1.00  0.00     0.013 C  
HETATM   15  C   UNL     1     -10.666   5.980  68.950  1.00  0.00    -0.384 A  
HETATM   16  C   UNL     1     -10.401   6.644  67.739  1.00  0.00    -0.239 A  
HETATM   17  C   UNL     1      -9.301   6.298  66.955  1.00  0.00    -0.135 A  
HETATM   18  C   UNL     1      -8.462   5.272  67.363  1.00  0.00    -0.106 A  
HETATM   19  C   UNL     1      -8.720   4.597  68.555  1.00  0.00    -0.113 A  
HETATM   20  C   UNL     1      -9.820   4.936  69.369  1.00  0.00    -0.211 A  
ENDBRANCH   2   6
TORSDOF 1
ENDMDL
MODEL      173
REMARK 921   NORMALIZED FREE ENERGY PREDICTED BY IDOCK:   -2.17 KCAL/MOL
REMARK 922        TOTAL FREE ENERGY PREDICTED BY IDOCK:   -2.21 KCAL/MOL
REMARK 923 INTER-LIGAND FREE ENERGY PREDICTED BY IDOCK:   -2.28 KCAL/MOL
REMARK 924 INTRA-LIGAND FREE ENERGY PREDICTED BY IDOCK:    0.08 KCAL/MOL
REMARK 927      BINDING AFFINITY PREDICTED BY RF-SCORE:    0.00 PKD
ROOT
HETATM    1  N   UNL     1     -10.781   8.168  70.329  1.00  0.00    -0.233 N  
HETATM    2  C   UNL     1      -9.461   7.911  70.598  1.00  0.00    -0.162 C  
HETATM    3  H1  UNL     1     -11.415   7.370  70.301  1.00  0.00     0.000 HD 
HETATM    4  H2  UNL     1     -11.115   9.118  70.164  1.00  0.00     0.000 HD 
HETATM    5  O   UNL     1      -8.697   8.873  70.632  1.00  0.00    -0.158 OA 
ENDROOT
BRANCH   2   6
HETATM    6  N   UNL     1      -9.138   6.551  70.713  1.00  0.00    -0.154 N  
HETATM    7  C   UNL     1      -8.332   5.888  69.714  1.00  0.00    -0.124 A  
HETATM    8  C   UNL     1      -7.290   6.584  69.072  1.00  0.00    -0.093 A  
HETATM    9  C   UNL     1      -6.464   5.963  68.133  1.00  0.00    -0.046 A  
HETATM   10  C   UNL     1      -6.667   4.630  67.802  1.00  0.00    -0.051 A  
HETATM   11  C   UNL     1      -7.706   3.925  68.403  1.00  0.00    -0.065 A  
HETATM   12  C   UNL     1      -8.539   4.536  69.360  1.00  0.00    -0.105 A  
HETATM   13  C   UNL     1      -9.652   3.725  69.861  1.00  0.00    -0.255 C  
HETATM   14  C   UNL     1     -10.087   3.731  71.126  1.00  0.00    -0.026 C  
HETATM   15  C   UNL     1      -9.505   4.556  72.186  1.00  0.00    -0.189 A  
HETATM   16  C   UNL     1      -9.421   3.982  73.467  1.00  0.00    -0.121 A  
HETATM   17  C   UNL     1      -8.937   4.713  74.553  1.00  0.00    -0.112 A  
HETATM   18  C   UNL     1      -8.549   6.032  74.375  1.00  0.00    -0.117 A  
HETATM   19  C   UNL     1      -8.639   6.618  73.113  1.00  0.00    -0.129 A  
HETATM   20  C   UNL     1      -9.114   5.896  71.999  1.00  0.00    -0.144 A  
ENDBRANCH   2   6
TORSDOF 1
ENDMDL
MODEL      174
REMARK 921   NORMALIZED FREE ENERGY PREDICTED BY IDOCK:   -2.15 KCAL/MOL
REMARK 922        TOTAL FREE ENERGY PREDICTED BY IDOCK:   -2.19 KCAL/MOL
REMARK 923 INTER-LIGAND FREE ENERGY PREDICTED BY IDOCK:   -2.78 KCAL/MOL
REMARK 924 INTRA-LIGAND FREE ENERGY PREDICTED BY IDOCK:    0.59 KCAL/MOL
REMARK 927      BINDING AFFINITY PREDICTED BY RF-SCORE:    0.00 PKD
ROOT
HETATM    1  N   UNL     1      -6.617   8.493  68.692  1.00  0.00    -0.054 N  
HETATM    2  C   UNL     1      -6.740   8.976  69.970  1.00  0.00    -0.044 C  
HETATM    3  H1  UNL     1      -7.187   7.685  68.442  1.00  0.00     0.000 HD 
HETATM    4  H2  UNL     1      -5.983   8.924  68.020  1.00  0.00     0.000 HD 
HETATM    5  O   UNL     1      -6.054   9.949  70.271  1.00  0.00    -0.056 OA 
ENDROOT
BRANCH   2   6
HETATM    6  N   UNL     1      -7.582   8.225  70.804  1.00  0.00    -0.069 N  
HETATM    7  C   UNL     1      -8.963   8.597  71.001  1.00  0.00    -0.196 A  
HETATM    8  C   UNL     1      -9.701   9.159  69.942  1.00  0.00    -0.206 A  
HETATM    9  C   UNL     1     -11.050   9.491  70.084  1.00  0.00    -0.294 A  
HETATM   10  C   UNL     1     -11.694   9.283  71.296  1.00  0.00    -0.416 A  
HETATM   11  C   UNL     1     -10.982   8.752  72.367  1.00  0.00    -0.229 A  
HETATM   12  C   UNL     1      -9.624   8.401  72.234  1.00  0.00    -0.374 A  
HETATM   13  C   UNL     1      -8.954   7.934  73.451  1.00  0.00    -0.339 C  
HETATM   14  C   UNL     1      -8.041   6.957  73.488  1.00  0.00    -0.115 C  
HETATM   15  C   UNL     1      -7.586   6.219  72.308  1.00  0.00    -0.095 A  
HETATM   16  C   UNL     1      -7.331   4.847  72.474  1.00  0.00    -0.088 A  
HETATM   17  C   UNL     1      -6.836   4.075  71.422  1.00  0.00    -0.031 A  
HETATM   18  C   UNL     1      -6.573   4.669  70.198  1.00  0.00    -0.036 A  
HETATM   19  C   UNL     1      -6.809   6.032  70.023  1.00  0.00    -0.057 A  
HETATM   20  C   UNL     1      -7.319   6.830  71.068  1.00  0.00    -0.078 A  
ENDBRANCH   2   6
TORSDOF 1
ENDMDL
MODEL      175
REMARK 921   NORMALIZED FREE ENERGY PREDICTED BY IDOCK:   -2.09 KCAL/MOL
REMARK 922        TOTAL FREE ENERGY PREDICTED BY IDOCK:   -2.12 KCAL/MOL
REMARK 923 INTER-LIGAND FREE ENERGY PREDICTED BY IDOCK:   -2.63 KCAL/MOL
REMARK 924 INTRA-LIGAND FREE ENERGY PREDICTED BY IDOCK:    0.50 KCAL/MOL
REMARK 927      BINDING AFFINITY PREDICTED BY RF-SCORE:    0.00 PKD
ROOT
HETATM    1  N   UNL     1      -6.163  14.970  67.228  1.00  0.00     0.133 N  
HETATM    2  C   UNL     1      -5.929  15.921  68.189  1.00  0.00    -0.124 C  
HETATM    3  H1  UNL     1      -6.684  15.262  66.401  1.00  0.00     0.000 HD 
HETATM    4  H2  UNL     1      -5.829  14.013  67.336  1.00  0.00     0.000 HD 
HETATM    5  O   UNL     1      -5.301  15.570  69.185  1.00  0.00    -0.096 OA 
ENDROOT
BRANCH   2   6
HETATM    6  N   UNL     1      -6.527  17.166  67.942  1.00  0.00    -0.145 N  
HETATM    7  C   UNL     1      -6.064  18.017  66.871  1.00  0.00    -0.153 A  
HETATM    8  C   UNL     1      -5.604  17.449  65.667  1.00  0.00     0.303 A  
HETATM    9  C   UNL     1      -5.190  18.243  64.595  1.00  0.00    -0.056 A  
HETATM   10  C   UNL     1      -5.212  19.626  64.704  1.00  0.00    -0.201 A  
HETATM   11  C   UNL     1      -5.639  20.213  65.891  1.00  0.00    -0.190 A  
HETATM   12  C   UNL     1      -6.071  19.426  66.976  1.00  0.00    -0.183 A  
HETATM   13  C   UNL     1      -6.414  20.148  68.204  1.00  0.00    -0.309 C  
HETATM   14  C   UNL     1      -7.423  19.823  69.020  1.00  0.00    -0.286 C  
HETATM   15  C   UNL     1      -8.325  18.692  68.793  1.00  0.00    -0.295 A  
HETATM   16  C   UNL     1      -9.677  18.876  69.131  1.00  0.00    -0.269 A  
HETATM   17  C   UNL     1     -10.599  17.836  69.007  1.00  0.00    -0.015 A  
HETATM   18  C   UNL     1     -10.176  16.594  68.561  1.00  0.00    -0.282 A  
HETATM   19  C   UNL     1      -8.836  16.393  68.234  1.00  0.00    -0.202 A  
HETATM   20  C   UNL     1      -7.888  17.432  68.341  1.00  0.00    -0.257 A  
ENDBRANCH   2   6
TORSDOF 1
ENDMDL
MODEL      176
REMARK 921   NORMALIZED FREE ENERGY PREDICTED BY IDOCK:   -2.08 KCAL/MOL
REMARK 922        TOTAL FREE ENERGY PREDICTED BY IDOCK:   -2.11 KCAL/MOL
REMARK 923 INTER-LIGAND FREE ENERGY PREDICTED BY IDOCK:   -2.17 KCAL/MOL
REMARK 924 INTRA-LIGAND FREE ENERGY PREDICTED BY IDOCK:    0.06 KCAL/MOL
REMARK 927      BINDING AFFINITY PREDICTED BY RF-SCORE:    0.00 PKD
ROOT
HETATM    1  N   UNL     1      -6.832  10.410  70.077  1.00  0.00    -0.141 N  
HETATM    2  C   UNL     1      -6.512   9.966  68.819  1.00  0.00    -0.045 C  
HETATM    3  H1  UNL     1      -7.680  10.037  70.502  1.00  0.00     0.000 HD 
HETATM    4  H2  UNL     1      -6.245  11.086  70.568  1.00  0.00     0.000 HD 
HETATM    5  O   UNL     1      -5.490  10.417  68.308  1.00  0.00    -0.035 OA 
ENDROOT
BRANCH   2   6
HETATM    6  N   UNL     1      -7.460   9.110  68.239  1.00  0.00    -0.082 N  
HETATM    7  C   UNL     1      -8.415   9.599  67.273  1.00  0.00    -0.132 A  
HETATM    8  C   UNL     1      -8.045  10.605  66.361  1.00  0.00    -0.148 A  
HETATM    9  C   UNL     1      -8.930  11.072  65.386  1.00  0.00    -0.192 A  
HETATM   10  C   UNL     1     -10.214  10.552  65.306  1.00  0.00    -0.352 A  
HETATM   11  C   UNL     1     -10.615   9.574  66.211  1.00  0.00    -0.018 A  
HETATM   12  C   UNL     1      -9.730   9.086  67.192  1.00  0.00    -0.237 A  
HETATM   13  C   UNL     1     -10.287   8.122  68.145  1.00  0.00    -0.251 C  
HETATM   14  C   UNL     1      -9.626   7.066  68.631  1.00  0.00    -0.138 C  
HETATM   15  C   UNL     1      -8.246   6.730  68.273  1.00  0.00    -0.115 A  
HETATM   16  C   UNL     1      -7.937   5.365  68.136  1.00  0.00    -0.095 A  
HETATM   17  C   UNL     1      -6.636   4.946  67.857  1.00  0.00    -0.050 A  
HETATM   18  C   UNL     1      -5.624   5.886  67.730  1.00  0.00    -0.009 A  
HETATM   19  C   UNL     1      -5.914   7.242  67.875  1.00  0.00    -0.034 A  
HETATM   20  C   UNL     1      -7.223   7.689  68.146  1.00  0.00    -0.093 A  
ENDBRANCH   2   6
TORSDOF 1
ENDMDL
MODEL      177
REMARK 921   NORMALIZED FREE ENERGY PREDICTED BY IDOCK:   -2.04 KCAL/MOL
REMARK 922        TOTAL FREE ENERGY PREDICTED BY IDOCK:   -2.07 KCAL/MOL
REMARK 923 INTER-LIGAND FREE ENERGY PREDICTED BY IDOCK:   -2.14 KCAL/MOL
REMARK 924 INTRA-LIGAND FREE ENERGY PREDICTED BY IDOCK:    0.07 KCAL/MOL
REMARK 927      BINDING AFFINITY PREDICTED BY RF-SCORE:    0.00 PKD
ROOT
HETATM    1  N   UNL     1      -5.387   7.832  73.198  1.00  0.00    -0.040 N  
HETATM    2  C   UNL     1      -6.312   6.823  73.295  1.00  0.00    -0.063 C  
HETATM    3  H1  UNL     1      -5.426   8.422  72.367  1.00  0.00     0.000 HD 
HETATM    4  H2  UNL     1      -4.691   7.986  73.927  1.00  0.00     0.000 HD 
HETATM    5  O   UNL     1      -6.265   6.113  74.297  1.00  0.00    -0.064 OA 
ENDROOT
BRANCH   2   6
HETATM    6  N   UNL     1      -7.145   6.680  72.175  1.00  0.00    -0.079 N  
HETATM    7  C   UNL     1      -7.025   5.539  71.298  1.00  0.00    -0.066 A  
HETATM    8  C   UNL     1      -6.692   4.276  71.823  1.00  0.00    -0.030 A  
HETATM    9  C   UNL     1      -6.610   3.144  71.010  1.00  0.00    -0.031 A  
HETATM   10  C   UNL     1      -6.846   3.248  69.646  1.00  0.00    -0.034 A  
HETATM   11  C   UNL     1      -7.153   4.489  69.097  1.00  0.00    -0.052 A  
HETATM   12  C   UNL     1      -7.251   5.637  69.906  1.00  0.00    -0.069 A  
HETATM   13  C   UNL     1      -7.493   6.902  69.208  1.00  0.00    -0.094 C  
HETATM   14  C   UNL     1      -8.275   7.886  69.667  1.00  0.00    -0.122 C  
HETATM   15  C   UNL     1      -8.999   7.828  70.939  1.00  0.00    -0.148 A  
HETATM   16  C   UNL     1     -10.283   8.399  70.968  1.00  0.00    -0.245 A  
HETATM   17  C   UNL     1     -11.023   8.446  72.149  1.00  0.00    -0.411 A  
HETATM   18  C   UNL     1     -10.482   7.938  73.320  1.00  0.00    -0.259 A  
HETATM   19  C   UNL     1      -9.204   7.380  73.309  1.00  0.00    -0.233 A  
HETATM   20  C   UNL     1      -8.441   7.312  72.124  1.00  0.00    -0.105 A  
ENDBRANCH   2   6
TORSDOF 1
ENDMDL
MODEL      178
REMARK 921   NORMALIZED FREE ENERGY PREDICTED BY IDOCK:   -2.03 KCAL/MOL
REMARK 922        TOTAL FREE ENERGY PREDICTED BY IDOCK:   -2.06 KCAL/MOL
REMARK 923 INTER-LIGAND FREE ENERGY PREDICTED BY IDOCK:   -2.55 KCAL/MOL
REMARK 924 INTRA-LIGAND FREE ENERGY PREDICTED BY IDOCK:    0.49 KCAL/MOL
REMARK 927      BINDING AFFINITY PREDICTED BY RF-SCORE:    0.00 PKD
ROOT
HETATM    1  N   UNL     1      -6.142   4.962  66.372  1.00  0.00    -0.030 N  
HETATM    2  C   UNL     1      -7.510   4.995  66.265  1.00  0.00    -0.086 C  
HETATM    3  H1  UNL     1      -5.699   5.707  66.908  1.00  0.00     0.000 HD 
HETATM    4  H2  UNL     1      -5.592   4.224  65.933  1.00  0.00     0.000 HD 
HETATM    5  O   UNL     1      -8.043   4.097  65.618  1.00  0.00    -0.100 OA 
ENDROOT
BRANCH   2   6
HETATM    6  N   UNL     1      -8.118   6.119  66.844  1.00  0.00    -0.108 N  
HETATM    7  C   UNL     1      -8.295   6.218  68.273  1.00  0.00    -0.115 A  
HETATM    8  C   UNL     1      -7.325   5.686  69.144  1.00  0.00    -0.078 A  
HETATM    9  C   UNL     1      -7.444   5.801  70.531  1.00  0.00    -0.086 A  
HETATM   10  C   UNL     1      -8.544   6.441  71.084  1.00  0.00    -0.128 A  
HETATM   11  C   UNL     1      -9.530   6.955  70.247  1.00  0.00    -0.162 A  
HETATM   12  C   UNL     1      -9.418   6.856  68.847  1.00  0.00    -0.136 A  
HETATM   13  C   UNL     1     -10.556   7.353  68.070  1.00  0.00    -0.235 C  
HETATM   14  C   UNL     1     -10.455   8.004  66.906  1.00  0.00    -0.387 C  
HETATM   15  C   UNL     1      -9.183   8.309  66.248  1.00  0.00    -0.258 A  
HETATM   16  C   UNL     1      -9.084   9.549  65.593  1.00  0.00    -0.250 A  
HETATM   17  C   UNL     1      -7.933   9.900  64.888  1.00  0.00    -0.138 A  
HETATM   18  C   UNL     1      -6.874   9.009  64.813  1.00  0.00    -0.080 A  
HETATM   19  C   UNL     1      -6.963   7.771  65.447  1.00  0.00    -0.055 A  
HETATM   20  C   UNL     1      -8.112   7.397  66.175  1.00  0.00    -0.117 A  
ENDBRANCH   2   6
TORSDOF 1
ENDMDL
MODEL      179
REMARK 921   NORMALIZED FREE ENERGY PREDICTED BY IDOCK:   -1.99 KCAL/MOL
REMARK 922        TOTAL FREE ENERGY PREDICTED BY IDOCK:   -2.02 KCAL/MOL
REMARK 923 INTER-LIGAND FREE ENERGY PREDICTED BY IDOCK:   -2.62 KCAL/MOL
REMARK 924 INTRA-LIGAND FREE ENERGY PREDICTED BY IDOCK:    0.60 KCAL/MOL
REMARK 927      BINDING AFFINITY PREDICTED BY RF-SCORE:    0.00 PKD
ROOT
HETATM    1  N   UNL     1     -11.394   7.329  69.373  1.00  0.00    -0.476 N  
HETATM    2  C   UNL     1     -10.711   6.776  68.320  1.00  0.00    -0.235 C  
HETATM    3  H1  UNL     1     -10.847   7.618  70.184  1.00  0.00     0.000 HD 
HETATM    4  H2  UNL     1     -12.407   7.447  69.346  1.00  0.00     0.000 HD 
HETATM    5  O   UNL     1     -11.371   6.428  67.343  1.00  0.00    -0.283 OA 
ENDROOT
BRANCH   2   6
HETATM    6  N   UNL     1      -9.337   6.596  68.540  1.00  0.00    -0.126 N  
HETATM    7  C   UNL     1      -8.498   7.694  68.958  1.00  0.00    -0.132 A  
HETATM    8  C   UNL     1      -9.006   8.680  69.825  1.00  0.00    -0.145 A  
HETATM    9  C   UNL     1      -8.210   9.732  70.283  1.00  0.00    -0.178 A  
HETATM   10  C   UNL     1      -6.888   9.834  69.875  1.00  0.00    -0.085 A  
HETATM   11  C   UNL     1      -6.367   8.886  68.998  1.00  0.00    -0.044 A  
HETATM   12  C   UNL     1      -7.154   7.814  68.538  1.00  0.00    -0.073 A  
HETATM   13  C   UNL     1      -6.529   6.929  67.551  1.00  0.00    -0.050 C  
HETATM   14  C   UNL     1      -6.698   5.603  67.505  1.00  0.00    -0.059 C  
HETATM   15  C   UNL     1      -7.537   4.853  68.442  1.00  0.00    -0.078 A  
HETATM   16  C   UNL     1      -7.073   3.589  68.843  1.00  0.00    -0.050 A  
HETATM   17  C   UNL     1      -7.833   2.776  69.685  1.00  0.00    -0.049 A  
HETATM   18  C   UNL     1      -9.075   3.210  70.120  1.00  0.00    -0.192 A  
HETATM   19  C   UNL     1      -9.555   4.457  69.720  1.00  0.00    -0.276 A  
HETATM   20  C   UNL     1      -8.800   5.300  68.878  1.00  0.00    -0.092 A  
ENDBRANCH   2   6
TORSDOF 1
ENDMDL
MODEL      180
REMARK 921   NORMALIZED FREE ENERGY PREDICTED BY IDOCK:   -1.98 KCAL/MOL
REMARK 922        TOTAL FREE ENERGY PREDICTED BY IDOCK:   -2.01 KCAL/MOL
REMARK 923 INTER-LIGAND FREE ENERGY PREDICTED BY IDOCK:   -2.98 KCAL/MOL
REMARK 924 INTRA-LIGAND FREE ENERGY PREDICTED BY IDOCK:    0.98 KCAL/MOL
REMARK 927      BINDING AFFINITY PREDICTED BY RF-SCORE:    0.00 PKD
ROOT
HETATM    1  N   UNL     1      -7.716   6.278  68.310  1.00  0.00    -0.102 N  
HETATM    2  C   UNL     1      -7.518   5.643  69.510  1.00  0.00    -0.071 C  
HETATM    3  H1  UNL     1      -8.435   7.001  68.279  1.00  0.00     0.000 HD 
HETATM    4  H2  UNL     1      -7.167   6.038  67.485  1.00  0.00     0.000 HD 
HETATM    5  O   UNL     1      -6.651   4.773  69.548  1.00  0.00    -0.034 OA 
ENDROOT
BRANCH   2   6
HETATM    6  N   UNL     1      -8.408   6.017  70.528  1.00  0.00    -0.126 N  
HETATM    7  C   UNL     1      -8.237   5.542  71.880  1.00  0.00    -0.119 A  
HETATM    8  C   UNL     1      -6.944   5.360  72.406  1.00  0.00    -0.081 A  
HETATM    9  C   UNL     1      -6.742   4.943  73.724  1.00  0.00    -0.069 A  
HETATM   10  C   UNL     1      -7.829   4.685  74.547  1.00  0.00    -0.095 A  
HETATM   11  C   UNL     1      -9.119   4.833  74.045  1.00  0.00    -0.111 A  
HETATM   12  C   UNL     1      -9.337   5.264  72.722  1.00  0.00    -0.150 A  
HETATM   13  C   UNL     1     -10.733   5.299  72.276  1.00  0.00    -0.282 C  
HETATM   14  C   UNL     1     -11.250   6.238  71.475  1.00  0.00    -0.344 C  
HETATM   15  C   UNL     1     -10.484   7.362  70.933  1.00  0.00    -0.225 A  
HETATM   16  C   UNL     1     -11.148   8.598  70.836  1.00  0.00    -0.310 A  
HETATM   17  C   UNL     1     -10.519   9.710  70.276  1.00  0.00    -0.338 A  
HETATM   18  C   UNL     1      -9.226   9.596  69.789  1.00  0.00    -0.237 A  
HETATM   19  C   UNL     1      -8.561   8.374  69.867  1.00  0.00    -0.131 A  
HETATM   20  C   UNL     1      -9.172   7.238  70.438  1.00  0.00    -0.158 A  
ENDBRANCH   2   6
TORSDOF 1
ENDMDL
MODEL      181
REMARK 921   NORMALIZED FREE ENERGY PREDICTED BY IDOCK:   -1.98 KCAL/MOL
REMARK 922        TOTAL FREE ENERGY PREDICTED BY IDOCK:   -2.00 KCAL/MOL
REMARK 923 INTER-LIGAND FREE ENERGY PREDICTED BY IDOCK:   -2.79 KCAL/MOL
REMARK 924 INTRA-LIGAND FREE ENERGY PREDICTED BY IDOCK:    0.79 KCAL/MOL
REMARK 927      BINDING AFFINITY PREDICTED BY RF-SCORE:    0.00 PKD
ROOT
HETATM    1  N   UNL     1     -12.140   6.786  70.069  1.00  0.00    -0.638 N  
HETATM    2  C   UNL     1     -11.067   6.554  70.892  1.00  0.00    -0.292 C  
HETATM    3  H1  UNL     1     -11.958   6.832  69.067  1.00  0.00     0.000 HD 
HETATM    4  H2  UNL     1     -13.081   6.906  70.444  1.00  0.00     0.000 HD 
HETATM    5  O   UNL     1     -11.287   6.498  72.099  1.00  0.00    -0.256 OA 
ENDROOT
BRANCH   2   6
HETATM    6  N   UNL     1      -9.826   6.500  70.239  1.00  0.00    -0.168 N  
HETATM    7  C   UNL     1      -9.684   5.843  68.961  1.00  0.00    -0.136 A  
HETATM    8  C   UNL     1     -10.729   5.898  68.019  1.00  0.00    -0.332 A  
HETATM    9  C   UNL     1     -10.608   5.311  66.757  1.00  0.00    -0.309 A  
HETATM   10  C   UNL     1      -9.443   4.642  66.409  1.00  0.00    -0.169 A  
HETATM   11  C   UNL     1      -8.404   4.552  67.330  1.00  0.00    -0.104 A  
HETATM   12  C   UNL     1      -8.507   5.149  68.601  1.00  0.00    -0.088 A  
HETATM   13  C   UNL     1      -7.388   4.915  69.519  1.00  0.00    -0.056 C  
HETATM   14  C   UNL     1      -6.903   5.824  70.372  1.00  0.00    -0.049 C  
HETATM   15  C   UNL     1      -7.429   7.184  70.503  1.00  0.00    -0.087 A  
HETATM   16  C   UNL     1      -6.495   8.210  70.730  1.00  0.00    -0.037 A  
HETATM   17  C   UNL     1      -6.908   9.528  70.929  1.00  0.00    -0.083 A  
HETATM   18  C   UNL     1      -8.260   9.833  70.922  1.00  0.00     0.400 A  
HETATM   19  C   UNL     1      -9.198   8.823  70.710  1.00  0.00    -0.242 A  
HETATM   20  C   UNL     1      -8.804   7.486  70.496  1.00  0.00    -0.147 A  
ENDBRANCH   2   6
TORSDOF 1
ENDMDL
MODEL      182
REMARK 921   NORMALIZED FREE ENERGY PREDICTED BY IDOCK:   -1.91 KCAL/MOL
REMARK 922        TOTAL FREE ENERGY PREDICTED BY IDOCK:   -1.94 KCAL/MOL
REMARK 923 INTER-LIGAND FREE ENERGY PREDICTED BY IDOCK:   -2.03 KCAL/MOL
REMARK 924 INTRA-LIGAND FREE ENERGY PREDICTED BY IDOCK:    0.09 KCAL/MOL
REMARK 927      BINDING AFFINITY PREDICTED BY RF-SCORE:    0.00 PKD
ROOT
HETATM    1  N   UNL     1      -8.960   8.111  65.361  1.00  0.00    -0.390 N  
HETATM    2  C   UNL     1      -9.364   7.363  66.438  1.00  0.00    -0.155 C  
HETATM    3  H1  UNL     1      -8.050   7.892  64.955  1.00  0.00     0.000 HD 
HETATM    4  H2  UNL     1      -9.546   8.855  64.981  1.00  0.00     0.000 HD 
HETATM    5  O   UNL     1     -10.460   7.627  66.925  1.00  0.00    -0.315 OA 
ENDROOT
BRANCH   2   6
HETATM    6  N   UNL     1      -8.414   6.440  66.901  1.00  0.00    -0.109 N  
HETATM    7  C   UNL     1      -7.828   6.567  68.214  1.00  0.00    -0.106 A  
HETATM    8  C   UNL     1      -8.599   7.054  69.287  1.00  0.00    -0.136 A  
HETATM    9  C   UNL     1      -8.077   7.150  70.579  1.00  0.00    -0.113 A  
HETATM   10  C   UNL     1      -6.765   6.774  70.829  1.00  0.00    -0.054 A  
HETATM   11  C   UNL     1      -5.973   6.312  69.781  1.00  0.00    -0.018 A  
HETATM   12  C   UNL     1      -6.490   6.199  68.477  1.00  0.00    -0.053 A  
HETATM   13  C   UNL     1      -5.541   5.786  67.439  1.00  0.00    -0.012 C  
HETATM   14  C   UNL     1      -5.838   4.973  66.418  1.00  0.00    -0.022 C  
HETATM   15  C   UNL     1      -7.161   4.384  66.201  1.00  0.00    -0.076 A  
HETATM   16  C   UNL     1      -7.200   3.066  65.714  1.00  0.00    -0.070 A  
HETATM   17  C   UNL     1      -8.414   2.444  65.419  1.00  0.00    -0.102 A  
HETATM   18  C   UNL     1      -9.602   3.138  65.590  1.00  0.00     0.001 A  
HETATM   19  C   UNL     1      -9.577   4.450  66.061  1.00  0.00    -0.190 A  
HETATM   20  C   UNL     1      -8.363   5.096  66.375  1.00  0.00    -0.108 A  
ENDBRANCH   2   6
TORSDOF 1
ENDMDL
MODEL      183
REMARK 921   NORMALIZED FREE ENERGY PREDICTED BY IDOCK:   -1.89 KCAL/MOL
REMARK 922        TOTAL FREE ENERGY PREDICTED BY IDOCK:   -1.91 KCAL/MOL
REMARK 923 INTER-LIGAND FREE ENERGY PREDICTED BY IDOCK:   -2.91 KCAL/MOL
REMARK 924 INTRA-LIGAND FREE ENERGY PREDICTED BY IDOCK:    1.00 KCAL/MOL
REMARK 927      BINDING AFFINITY PREDICTED BY RF-SCORE:    0.00 PKD
ROOT
HETATM    1  N   UNL     1     -11.696   6.932  70.634  1.00  0.00    -0.363 N  
HETATM    2  C   UNL     1     -10.564   6.183  70.436  1.00  0.00    -0.257 C  
HETATM    3  H1  UNL     1     -11.856   7.713  69.999  1.00  0.00     0.000 HD 
HETATM    4  H2  UNL     1     -12.351   6.716  71.386  1.00  0.00     0.000 HD 
HETATM    5  O   UNL     1     -10.372   5.242  71.202  1.00  0.00    -0.217 OA 
ENDROOT
BRANCH   2   6
HETATM    6  N   UNL     1      -9.717   6.655  69.422  1.00  0.00    -0.148 N  
HETATM    7  C   UNL     1      -9.766   8.032  68.990  1.00  0.00    -0.159 A  
HETATM    8  C   UNL     1     -10.031   9.055  69.920  1.00  0.00    -0.203 A  
HETATM    9  C   UNL     1     -10.043  10.400  69.545  1.00  0.00    -0.246 A  
HETATM   10  C   UNL     1      -9.804  10.757  68.225  1.00  0.00    -0.177 A  
HETATM   11  C   UNL     1      -9.564   9.764  67.280  1.00  0.00    -0.194 A  
HETATM   12  C   UNL     1      -9.536   8.405  67.646  1.00  0.00    -0.188 A  
HETATM   13  C   UNL     1      -9.362   7.443  66.554  1.00  0.00    -0.222 C  
HETATM   14  C   UNL     1      -8.639   6.321  66.638  1.00  0.00    -0.119 C  
HETATM   15  C   UNL     1      -7.921   5.900  67.843  1.00  0.00    -0.105 A  
HETATM   16  C   UNL     1      -6.672   5.283  67.659  1.00  0.00    -0.055 A  
HETATM   17  C   UNL     1      -5.944   4.793  68.743  1.00  0.00    -0.025 A  
HETATM   18  C   UNL     1      -6.464   4.898  70.024  1.00  0.00    -0.035 A  
HETATM   19  C   UNL     1      -7.708   5.497  70.221  1.00  0.00    -0.085 A  
HETATM   20  C   UNL     1      -8.457   6.008  69.141  1.00  0.00    -0.114 A  
ENDBRANCH   2   6
TORSDOF 1
ENDMDL
MODEL      184
REMARK 921   NORMALIZED FREE ENERGY PREDICTED BY IDOCK:   -1.84 KCAL/MOL
REMARK 922        TOTAL FREE ENERGY PREDICTED BY IDOCK:   -1.86 KCAL/MOL
REMARK 923 INTER-LIGAND FREE ENERGY PREDICTED BY IDOCK:   -1.92 KCAL/MOL
REMARK 924 INTRA-LIGAND FREE ENERGY PREDICTED BY IDOCK:    0.07 KCAL/MOL
REMARK 927      BINDING AFFINITY PREDICTED BY RF-SCORE:    0.00 PKD
ROOT
HETATM    1  N   UNL     1      -6.913   8.938  72.015  1.00  0.00    -0.009 N  
HETATM    2  C   UNL     1      -6.519   7.803  71.353  1.00  0.00    -0.038 C  
HETATM    3  H1  UNL     1      -7.724   8.862  72.629  1.00  0.00     0.000 HD 
HETATM    4  H2  UNL     1      -6.416   9.821  71.899  1.00  0.00     0.000 HD 
HETATM    5  O   UNL     1      -5.542   7.895  70.614  1.00  0.00    -0.029 OA 
ENDROOT
BRANCH   2   6
HETATM    6  N   UNL     1      -7.354   6.692  71.543  1.00  0.00    -0.085 N  
HETATM    7  C   UNL     1      -8.227   6.226  70.492  1.00  0.00    -0.118 A  
HETATM    8  C   UNL     1      -7.818   6.305  69.147  1.00  0.00    -0.105 A  
HETATM    9  C   UNL     1      -8.620   5.825  68.109  1.00  0.00    -0.108 A  
HETATM   10  C   UNL     1      -9.859   5.266  68.388  1.00  0.00    -0.208 A  
HETATM   11  C   UNL     1     -10.299   5.198  69.707  1.00  0.00    -0.332 A  
HETATM   12  C   UNL     1      -9.496   5.667  70.764  1.00  0.00    -0.203 A  
HETATM   13  C   UNL     1     -10.097   5.626  72.100  1.00  0.00    -0.227 C  
HETATM   14  C   UNL     1      -9.434   5.323  73.222  1.00  0.00    -0.148 C  
HETATM   15  C   UNL     1      -8.009   4.991  73.265  1.00  0.00    -0.104 A  
HETATM   16  C   UNL     1      -7.614   3.991  74.170  1.00  0.00    -0.075 A  
HETATM   17  C   UNL     1      -6.270   3.650  74.324  1.00  0.00    -0.021 A  
HETATM   18  C   UNL     1      -5.302   4.318  73.589  1.00  0.00    -0.007 A  
HETATM   19  C   UNL     1      -5.679   5.321  72.697  1.00  0.00    -0.022 A  
HETATM   20  C   UNL     1      -7.032   5.675  72.516  1.00  0.00    -0.083 A  
ENDBRANCH   2   6
TORSDOF 1
ENDMDL
MODEL      185
REMARK 921   NORMALIZED FREE ENERGY PREDICTED BY IDOCK:   -1.82 KCAL/MOL
REMARK 922        TOTAL FREE ENERGY PREDICTED BY IDOCK:   -1.84 KCAL/MOL
REMARK 923 INTER-LIGAND FREE ENERGY PREDICTED BY IDOCK:   -2.30 KCAL/MOL
REMARK 924 INTRA-LIGAND FREE ENERGY PREDICTED BY IDOCK:    0.46 KCAL/MOL
REMARK 927      BINDING AFFINITY PREDICTED BY RF-SCORE:    0.00 PKD
ROOT
HETATM    1  N   UNL     1      -9.147   3.176  68.221  1.00  0.00    -0.146 N  
HETATM    2  C   UNL     1      -9.486   4.504  68.259  1.00  0.00    -0.149 C  
HETATM    3  H1  UNL     1      -8.498   2.881  67.491  1.00  0.00     0.000 HD 
HETATM    4  H2  UNL     1      -9.528   2.510  68.894  1.00  0.00     0.000 HD 
HETATM    5  O   UNL     1     -10.268   4.859  69.138  1.00  0.00    -0.195 OA 
ENDROOT
BRANCH   2   6
HETATM    6  N   UNL     1      -8.955   5.277  67.215  1.00  0.00    -0.112 N  
HETATM    7  C   UNL     1      -9.172   4.917  65.834  1.00  0.00    -0.155 A  
HETATM    8  C   UNL     1     -10.393   4.338  65.439  1.00  0.00    -0.217 A  
HETATM    9  C   UNL     1     -10.653   4.016  64.105  1.00  0.00    -0.197 A  
HETATM   10  C   UNL     1      -9.692   4.253  63.132  1.00  0.00    -0.075 A  
HETATM   11  C   UNL     1      -8.467   4.801  63.499  1.00  0.00    -0.127 A  
HETATM   12  C   UNL     1      -8.196   5.142  64.838  1.00  0.00    -0.136 A  
HETATM   13  C   UNL     1      -6.843   5.629  65.121  1.00  0.00    -0.052 C  
HETATM   14  C   UNL     1      -6.553   6.602  65.992  1.00  0.00    -0.044 C  
HETATM   15  C   UNL     1      -7.556   7.313  66.787  1.00  0.00    -0.100 A  
HETATM   16  C   UNL     1      -7.347   8.687  66.996  1.00  0.00    -0.080 A  
HETATM   17  C   UNL     1      -8.216   9.435  67.791  1.00  0.00    -0.114 A  
HETATM   18  C   UNL     1      -9.296   8.814  68.400  1.00  0.00    -0.141 A  
HETATM   19  C   UNL     1      -9.509   7.449  68.211  1.00  0.00    -0.143 A  
HETATM   20  C   UNL     1      -8.649   6.675  67.404  1.00  0.00    -0.119 A  
ENDBRANCH   2   6
TORSDOF 1
ENDMDL
MODEL      186
REMARK 921   NORMALIZED FREE ENERGY PREDICTED BY IDOCK:   -1.81 KCAL/MOL
REMARK 922        TOTAL FREE ENERGY PREDICTED BY IDOCK:   -1.82 KCAL/MOL
REMARK 923 INTER-LIGAND FREE ENERGY PREDICTED BY IDOCK:   -2.33 KCAL/MOL
REMARK 924 INTRA-LIGAND FREE ENERGY PREDICTED BY IDOCK:    0.51 KCAL/MOL
REMARK 927      BINDING AFFINITY PREDICTED BY RF-SCORE:    0.00 PKD
ROOT
HETATM    1  N   UNL     1      -7.512   4.100  69.616  1.00  0.00    -0.053 N  
HETATM    2  C   UNL     1      -6.934   5.333  69.445  1.00  0.00    -0.055 C  
HETATM    3  H1  UNL     1      -8.443   4.076  70.031  1.00  0.00     0.000 HD 
HETATM    4  H2  UNL     1      -7.031   3.245  69.340  1.00  0.00     0.000 HD 
HETATM    5  O   UNL     1      -5.812   5.362  68.945  1.00  0.00    -0.017 OA 
ENDROOT
BRANCH   2   6
HETATM    6  N   UNL     1      -7.678   6.407  69.955  1.00  0.00    -0.106 N  
HETATM    7  C   UNL     1      -8.725   7.026  69.177  1.00  0.00    -0.132 A  
HETATM    8  C   UNL     1      -9.522   6.244  68.318  1.00  0.00    -0.117 A  
HETATM    9  C   UNL     1     -10.571   6.802  67.583  1.00  0.00    -0.323 A  
HETATM   10  C   UNL     1     -10.842   8.160  67.678  1.00  0.00    -0.093 A  
HETATM   11  C   UNL     1     -10.054   8.960  68.500  1.00  0.00    -0.209 A  
HETATM   12  C   UNL     1      -9.001   8.409  69.256  1.00  0.00    -0.150 A  
HETATM   13  C   UNL     1      -8.185   9.359  70.017  1.00  0.00    -0.171 C  
HETATM   14  C   UNL     1      -7.684   9.124  71.235  1.00  0.00    -0.065 C  
HETATM   15  C   UNL     1      -7.886   7.877  71.975  1.00  0.00    -0.123 A  
HETATM   16  C   UNL     1      -8.063   7.982  73.366  1.00  0.00    -0.247 A  
HETATM   17  C   UNL     1      -8.202   6.845  74.161  1.00  0.00    -0.153 A  
HETATM   18  C   UNL     1      -8.145   5.588  73.579  1.00  0.00    -0.113 A  
HETATM   19  C   UNL     1      -7.957   5.468  72.203  1.00  0.00    -0.107 A  
HETATM   20  C   UNL     1      -7.825   6.604  71.377  1.00  0.00    -0.099 A  
ENDBRANCH   2   6
TORSDOF 1
ENDMDL
MODEL      187
REMARK 921   NORMALIZED FREE ENERGY PREDICTED BY IDOCK:   -1.72 KCAL/MOL
REMARK 922        TOTAL FREE ENERGY PREDICTED BY IDOCK:   -1.73 KCAL/MOL
REMARK 923 INTER-LIGAND FREE ENERGY PREDICTED BY IDOCK:   -1.90 KCAL/MOL
REMARK 924 INTRA-LIGAND FREE ENERGY PREDICTED BY IDOCK:    0.17 KCAL/MOL
REMARK 927      BINDING AFFINITY PREDICTED BY RF-SCORE:    0.00 PKD
ROOT
HETATM    1  N   UNL     1      -8.189   4.536  66.784  1.00  0.00    -0.102 N  
HETATM    2  C   UNL     1      -8.840   5.743  66.759  1.00  0.00    -0.117 C  
HETATM    3  H1  UNL     1      -7.250   4.521  67.184  1.00  0.00     0.000 HD 
HETATM    4  H2  UNL     1      -8.624   3.689  66.419  1.00  0.00     0.000 HD 
HETATM    5  O   UNL     1      -9.970   5.761  66.278  1.00  0.00    -0.150 OA 
ENDROOT
BRANCH   2   6
HETATM    6  N   UNL     1      -8.080   6.831  67.213  1.00  0.00    -0.116 N  
HETATM    7  C   UNL     1      -7.915   8.016  66.405  1.00  0.00    -0.102 A  
HETATM    8  C   UNL     1      -8.970   8.465  65.588  1.00  0.00    -0.183 A  
HETATM    9  C   UNL     1      -8.860   9.630  64.825  1.00  0.00    -0.242 A  
HETATM   10  C   UNL     1      -7.686  10.370  64.850  1.00  0.00    -0.084 A  
HETATM   11  C   UNL     1      -6.619   9.935  65.630  1.00  0.00    -0.093 A  
HETATM   12  C   UNL     1      -6.719   8.769  66.413  1.00  0.00    -0.070 A  
HETATM   13  C   UNL     1      -5.505   8.360  67.124  1.00  0.00    -0.038 C  
HETATM   14  C   UNL     1      -5.486   7.831  68.352  1.00  0.00    -0.028 C  
HETATM   15  C   UNL     1      -6.686   7.587  69.156  1.00  0.00    -0.048 A  
HETATM   16  C   UNL     1      -6.585   7.816  70.539  1.00  0.00    -0.038 A  
HETATM   17  C   UNL     1      -7.657   7.554  71.392  1.00  0.00    -0.081 A  
HETATM   18  C   UNL     1      -8.837   7.041  70.876  1.00  0.00    -0.148 A  
HETATM   19  C   UNL     1      -8.947   6.797  69.507  1.00  0.00    -0.139 A  
HETATM   20  C   UNL     1      -7.881   7.065  68.624  1.00  0.00    -0.119 A  
ENDBRANCH   2   6
TORSDOF 1
ENDMDL
MODEL      188
REMARK 921   NORMALIZED FREE ENERGY PREDICTED BY IDOCK:   -1.68 KCAL/MOL
REMARK 922        TOTAL FREE ENERGY PREDICTED BY IDOCK:   -1.69 KCAL/MOL
REMARK 923 INTER-LIGAND FREE ENERGY PREDICTED BY IDOCK:   -2.86 KCAL/MOL
REMARK 924 INTRA-LIGAND FREE ENERGY PREDICTED BY IDOCK:    1.17 KCAL/MOL
REMARK 927      BINDING AFFINITY PREDICTED BY RF-SCORE:    0.00 PKD
ROOT
HETATM    1  N   UNL     1      -7.935   9.507  70.330  1.00  0.00    -0.170 N  
HETATM    2  C   UNL     1      -7.509   9.540  69.026  1.00  0.00    -0.074 C  
HETATM    3  H1  UNL     1      -8.624   8.798  70.578  1.00  0.00     0.000 HD 
HETATM    4  H2  UNL     1      -7.577  10.165  71.023  1.00  0.00     0.000 HD 
HETATM    5  O   UNL     1      -6.678  10.395  68.729  1.00  0.00    -0.052 OA 
ENDROOT
BRANCH   2   6
HETATM    6  N   UNL     1      -8.157   8.635  68.173  1.00  0.00    -0.114 N  
HETATM    7  C   UNL     1      -9.127   7.694  68.681  1.00  0.00    -0.135 A  
HETATM    8  C   UNL     1      -9.979   8.061  69.740  1.00  0.00    -0.191 A  
HETATM    9  C   UNL     1     -10.957   7.192  70.228  1.00  0.00    -0.288 A  
HETATM   10  C   UNL     1     -11.101   5.926  69.678  1.00  0.00    -0.414 A  
HETATM   11  C   UNL     1     -10.255   5.528  68.646  1.00  0.00    -0.261 A  
HETATM   12  C   UNL     1      -9.273   6.398  68.136  1.00  0.00    -0.111 A  
HETATM   13  C   UNL     1      -8.384   5.842  67.113  1.00  0.00    -0.105 C  
HETATM   14  C   UNL     1      -7.929   6.520  66.053  1.00  0.00    -0.112 C  
HETATM   15  C   UNL     1      -8.260   7.918  65.773  1.00  0.00    -0.130 A  
HETATM   16  C   UNL     1      -8.452   8.271  64.425  1.00  0.00    -0.022 A  
HETATM   17  C   UNL     1      -8.711   9.591  64.057  1.00  0.00    -0.239 A  
HETATM   18  C   UNL     1      -8.763  10.578  65.029  1.00  0.00    -0.193 A  
HETATM   19  C   UNL     1      -8.563  10.245  66.368  1.00  0.00    -0.138 A  
HETATM   20  C   UNL     1      -8.310   8.916  66.765  1.00  0.00    -0.111 A  
ENDBRANCH   2   6
TORSDOF 1
ENDMDL
MODEL      189
REMARK 921   NORMALIZED FREE ENERGY PREDICTED BY IDOCK:   -1.58 KCAL/MOL
REMARK 922        TOTAL FREE ENERGY PREDICTED BY IDOCK:   -1.59 KCAL/MOL
REMARK 923 INTER-LIGAND FREE ENERGY PREDICTED BY IDOCK:   -1.77 KCAL/MOL
REMARK 924 INTRA-LIGAND FREE ENERGY PREDICTED BY IDOCK:    0.19 KCAL/MOL
REMARK 927      BINDING AFFINITY PREDICTED BY RF-SCORE:    0.00 PKD
ROOT
HETATM    1  N   UNL     1      -9.194  14.842  66.607  1.00  0.00    -0.262 N  
HETATM    2  C   UNL     1      -9.421  13.551  67.011  1.00  0.00    -0.251 C  
HETATM    3  H1  UNL     1      -9.127  15.011  65.603  1.00  0.00     0.000 HD 
HETATM    4  H2  UNL     1      -9.097  15.601  67.281  1.00  0.00     0.000 HD 
HETATM    5  O   UNL     1      -9.502  13.347  68.220  1.00  0.00    -0.210 OA 
ENDROOT
BRANCH   2   6
HETATM    6  N   UNL     1      -9.441  12.605  65.974  1.00  0.00    -0.189 N  
HETATM    7  C   UNL     1      -8.633  11.411  66.038  1.00  0.00    -0.094 A  
HETATM    8  C   UNL     1      -8.408  10.775  67.274  1.00  0.00    -0.124 A  
HETATM    9  C   UNL     1      -7.667   9.595  67.366  1.00  0.00    -0.095 A  
HETATM   10  C   UNL     1      -7.119   9.026  66.224  1.00  0.00    -0.086 A  
HETATM   11  C   UNL     1      -7.305   9.647  64.993  1.00  0.00    -0.117 A  
HETATM   12  C   UNL     1      -8.060  10.831  64.884  1.00  0.00     0.066 A  
HETATM   13  C   UNL     1      -8.115  11.443  63.553  1.00  0.00     0.860 C  
HETATM   14  C   UNL     1      -9.194  12.039  63.035  1.00  0.00     0.523 C  
HETATM   15  C   UNL     1     -10.475  12.160  63.734  1.00  0.00    -0.470 A  
HETATM   16  C   UNL     1     -11.640  12.025  62.959  1.00  0.00    -0.067 A  
HETATM   17  C   UNL     1     -12.905  12.186  63.527  1.00  0.00    -0.453 A  
HETATM   18  C   UNL     1     -13.020  12.501  64.872  1.00  0.00    -0.022 A  
HETATM   19  C   UNL     1     -11.872  12.649  65.650  1.00  0.00    -0.488 A  
HETATM   20  C   UNL     1     -10.584  12.481  65.101  1.00  0.00    -0.293 A  
ENDBRANCH   2   6
TORSDOF 1
ENDMDL
MODEL      190
REMARK 921   NORMALIZED FREE ENERGY PREDICTED BY IDOCK:   -1.49 KCAL/MOL
REMARK 922        TOTAL FREE ENERGY PREDICTED BY IDOCK:   -1.48 KCAL/MOL
REMARK 923 INTER-LIGAND FREE ENERGY PREDICTED BY IDOCK:   -1.98 KCAL/MOL
REMARK 924 INTRA-LIGAND FREE ENERGY PREDICTED BY IDOCK:    0.49 KCAL/MOL
REMARK 927      BINDING AFFINITY PREDICTED BY RF-SCORE:    0.00 PKD
ROOT
HETATM    1  N   UNL     1     -11.139  15.281  64.360  1.00  0.00    -0.685 N  
HETATM    2  C   UNL     1     -10.147  14.386  64.673  1.00  0.00     0.094 C  
HETATM    3  H1  UNL     1     -11.332  16.018  65.038  1.00  0.00     0.000 HD 
HETATM    4  H2  UNL     1     -11.661  15.212  63.487  1.00  0.00     0.000 HD 
HETATM    5  O   UNL     1      -9.915  13.498  63.856  1.00  0.00     0.067 OA 
ENDROOT
BRANCH   2   6
HETATM    6  N   UNL     1      -9.582  14.555  65.946  1.00  0.00    -0.284 N  
HETATM    7  C   UNL     1      -8.612  15.593  66.200  1.00  0.00    -0.115 A  
HETATM    8  C   UNL     1      -8.719  16.835  65.545  1.00  0.00     0.795 A  
HETATM    9  C   UNL     1      -7.823  17.876  65.799  1.00  0.00     0.035 A  
HETATM   10  C   UNL     1      -6.787  17.698  66.705  1.00  0.00    -0.234 A  
HETATM   11  C   UNL     1      -6.644  16.472  67.348  1.00  0.00    -0.195 A  
HETATM   12  C   UNL     1      -7.546  15.418  67.111  1.00  0.00    -0.238 A  
HETATM   13  C   UNL     1      -7.246  14.146  67.776  1.00  0.00    -0.187 C  
HETATM   14  C   UNL     1      -8.166  13.323  68.290  1.00  0.00    -0.156 C  
HETATM   15  C   UNL     1      -9.606  13.583  68.257  1.00  0.00    -0.218 A  
HETATM   16  C   UNL     1     -10.350  13.202  69.387  1.00  0.00     0.409 A  
HETATM   17  C   UNL     1     -11.736  13.355  69.421  1.00  0.00    -0.382 A  
HETATM   18  C   UNL     1     -12.398  13.874  68.319  1.00  0.00     0.003 A  
HETATM   19  C   UNL     1     -11.675  14.244  67.187  1.00  0.00    -0.430 A  
HETATM   20  C   UNL     1     -10.272  14.109  67.133  1.00  0.00    -0.258 A  
ENDBRANCH   2   6
TORSDOF 1
ENDMDL
MODEL      191
REMARK 921   NORMALIZED FREE ENERGY PREDICTED BY IDOCK:   -1.48 KCAL/MOL
REMARK 922        TOTAL FREE ENERGY PREDICTED BY IDOCK:   -1.48 KCAL/MOL
REMARK 923 INTER-LIGAND FREE ENERGY PREDICTED BY IDOCK:   -1.97 KCAL/MOL
REMARK 924 INTRA-LIGAND FREE ENERGY PREDICTED BY IDOCK:    0.49 KCAL/MOL
REMARK 927      BINDING AFFINITY PREDICTED BY RF-SCORE:    0.00 PKD
ROOT
HETATM    1  N   UNL     1      -8.380   8.844  70.973  1.00  0.00    -0.177 N  
HETATM    2  C   UNL     1      -7.367   8.095  70.430  1.00  0.00    -0.062 C  
HETATM    3  H1  UNL     1      -9.273   8.376  71.130  1.00  0.00     0.000 HD 
HETATM    4  H2  UNL     1      -8.246   9.827  71.211  1.00  0.00     0.000 HD 
HETATM    5  O   UNL     1      -6.292   8.659  70.242  1.00  0.00    -0.036 OA 
ENDROOT
BRANCH   2   6
HETATM    6  N   UNL     1      -7.728   6.787  70.074  1.00  0.00    -0.100 N  
HETATM    7  C   UNL     1      -7.909   5.764  71.076  1.00  0.00    -0.106 A  
HETATM    8  C   UNL     1      -8.450   6.094  72.333  1.00  0.00    -0.115 A  
HETATM    9  C   UNL     1      -8.678   5.122  73.310  1.00  0.00    -0.115 A  
HETATM   10  C   UNL     1      -8.357   3.795  73.059  1.00  0.00    -0.091 A  
HETATM   11  C   UNL     1      -7.798   3.445  71.834  1.00  0.00    -0.058 A  
HETATM   12  C   UNL     1      -7.574   4.412  70.835  1.00  0.00    -0.052 A  
HETATM   13  C   UNL     1      -6.900   3.944  69.621  1.00  0.00    -0.041 C  
HETATM   14  C   UNL     1      -7.187   4.364  68.384  1.00  0.00    -0.060 C  
HETATM   15  C   UNL     1      -8.221   5.355  68.076  1.00  0.00    -0.099 A  
HETATM   16  C   UNL     1      -8.971   5.152  66.904  1.00  0.00    -0.109 A  
HETATM   17  C   UNL     1      -9.935   6.074  66.498  1.00  0.00    -0.189 A  
HETATM   18  C   UNL     1     -10.149   7.221  67.248  1.00  0.00    -0.291 A  
HETATM   19  C   UNL     1      -9.403   7.441  68.406  1.00  0.00    -0.144 A  
HETATM   20  C   UNL     1      -8.431   6.518  68.842  1.00  0.00    -0.122 A  
ENDBRANCH   2   6
TORSDOF 1
ENDMDL
MODEL      192
REMARK 921   NORMALIZED FREE ENERGY PREDICTED BY IDOCK:   -1.36 KCAL/MOL
REMARK 922        TOTAL FREE ENERGY PREDICTED BY IDOCK:   -1.35 KCAL/MOL
REMARK 923 INTER-LIGAND FREE ENERGY PREDICTED BY IDOCK:   -1.48 KCAL/MOL
REMARK 924 INTRA-LIGAND FREE ENERGY PREDICTED BY IDOCK:    0.13 KCAL/MOL
REMARK 927      BINDING AFFINITY PREDICTED BY RF-SCORE:    0.00 PKD
ROOT
HETATM    1  N   UNL     1      -9.098   6.792  71.916  1.00  0.00    -0.143 N  
HETATM    2  C   UNL     1      -7.959   6.338  71.301  1.00  0.00    -0.116 C  
HETATM    3  H1  UNL     1      -9.829   6.107  72.108  1.00  0.00     0.000 HD 
HETATM    4  H2  UNL     1      -9.208   7.773  72.172  1.00  0.00     0.000 HD 
HETATM    5  O   UNL     1      -7.078   7.163  71.070  1.00  0.00    -0.066 OA 
ENDROOT
BRANCH   2   6
HETATM    6  N   UNL     1      -7.990   4.985  70.930  1.00  0.00    -0.090 N  
HETATM    7  C   UNL     1      -7.803   4.583  69.556  1.00  0.00    -0.058 A  
HETATM    8  C   UNL     1      -6.916   5.296  68.727  1.00  0.00    -0.060 A  
HETATM    9  C   UNL     1      -6.678   4.909  67.406  1.00  0.00    -0.055 A  
HETATM   10  C   UNL     1      -7.333   3.806  66.875  1.00  0.00    -0.071 A  
HETATM   11  C   UNL     1      -8.234   3.099  67.665  1.00  0.00    -0.086 A  
HETATM   12  C   UNL     1      -8.474   3.470  69.002  1.00  0.00    -0.099 A  
HETATM   13  C   UNL     1      -9.506   2.707  69.710  1.00  0.00    -0.145 C  
HETATM   14  C   UNL     1      -9.441   2.356  70.999  1.00  0.00    -0.219 C  
HETATM   15  C   UNL     1      -8.320   2.689  71.881  1.00  0.00    -0.067 A  
HETATM   16  C   UNL     1      -7.938   1.717  72.822  1.00  0.00    -0.048 A  
HETATM   17  C   UNL     1      -6.922   1.968  73.744  1.00  0.00    -0.024 A  
HETATM   18  C   UNL     1      -6.288   3.201  73.749  1.00  0.00    -0.024 A  
HETATM   19  C   UNL     1      -6.665   4.179  72.830  1.00  0.00    -0.046 A  
HETATM   20  C   UNL     1      -7.682   3.944  71.881  1.00  0.00    -0.066 A  
ENDBRANCH   2   6
TORSDOF 1
ENDMDL
MODEL      193
REMARK 921   NORMALIZED FREE ENERGY PREDICTED BY IDOCK:   -0.93 KCAL/MOL
REMARK 922        TOTAL FREE ENERGY PREDICTED BY IDOCK:   -0.89 KCAL/MOL
REMARK 923 INTER-LIGAND FREE ENERGY PREDICTED BY IDOCK:   -1.97 KCAL/MOL
REMARK 924 INTRA-LIGAND FREE ENERGY PREDICTED BY IDOCK:    1.08 KCAL/MOL
REMARK 927      BINDING AFFINITY PREDICTED BY RF-SCORE:    0.00 PKD
ROOT
HETATM    1  N   UNL     1      -6.576  10.758  70.239  1.00  0.00    -0.178 N  
HETATM    2  C   UNL     1      -6.371   9.667  69.433  1.00  0.00    -0.040 C  
HETATM    3  H1  UNL     1      -7.370  11.359  70.016  1.00  0.00     0.000 HD 
HETATM    4  H2  UNL     1      -5.961  10.960  71.027  1.00  0.00     0.000 HD 
HETATM    5  O   UNL     1      -5.415   8.943  69.701  1.00  0.00    -0.033 OA 
ENDROOT
BRANCH   2   6
HETATM    6  N   UNL     1      -7.243   9.572  68.338  1.00  0.00    -0.075 N  
HETATM    7  C   UNL     1      -7.803   8.303  67.938  1.00  0.00    -0.114 A  
HETATM    8  C   UNL     1      -8.134   7.339  68.910  1.00  0.00    -0.128 A  
HETATM    9  C   UNL     1      -8.716   6.118  68.562  1.00  0.00    -0.111 A  
HETATM   10  C   UNL     1      -8.972   5.824  67.230  1.00  0.00    -0.112 A  
HETATM   11  C   UNL     1      -8.632   6.748  66.247  1.00  0.00    -0.141 A  
HETATM   12  C   UNL     1      -8.055   7.988  66.584  1.00  0.00    -0.103 A  
HETATM   13  C   UNL     1      -7.659   8.844  65.463  1.00  0.00    -0.087 C  
HETATM   14  C   UNL     1      -7.778  10.176  65.445  1.00  0.00    -0.143 C  
HETATM   15  C   UNL     1      -8.324  10.962  66.554  1.00  0.00    -0.155 A  
HETATM   16  C   UNL     1      -9.117  12.073  66.218  1.00  0.00    -0.165 A  
HETATM   17  C   UNL     1      -9.629  12.916  67.204  1.00  0.00    -0.225 A  
HETATM   18  C   UNL     1      -9.339  12.670  68.537  1.00  0.00    -0.082 A  
HETATM   19  C   UNL     1      -8.542  11.579  68.884  1.00  0.00     0.024 A  
HETATM   20  C   UNL     1      -8.022  10.707  67.905  1.00  0.00    -0.106 A  
ENDBRANCH   2   6
TORSDOF 1
ENDMDL
MODEL      194
REMARK 921   NORMALIZED FREE ENERGY PREDICTED BY IDOCK:   -0.13 KCAL/MOL
REMARK 922        TOTAL FREE ENERGY PREDICTED BY IDOCK:   -0.05 KCAL/MOL
REMARK 923 INTER-LIGAND FREE ENERGY PREDICTED BY IDOCK:   -0.54 KCAL/MOL
REMARK 924 INTRA-LIGAND FREE ENERGY PREDICTED BY IDOCK:    0.49 KCAL/MOL
REMARK 927      BINDING AFFINITY PREDICTED BY RF-SCORE:    0.00 PKD
ROOT
HETATM    1  N   UNL     1      -8.887  15.670  65.269  1.00  0.00     0.698 N  
HETATM    2  C   UNL     1      -9.759  16.487  65.943  1.00  0.00    -0.270 C  
HETATM    3  H1  UNL     1      -8.259  15.094  65.829  1.00  0.00     0.000 HD 
HETATM    4  H2  UNL     1      -8.869  15.639  64.250  1.00  0.00     0.000 HD 
HETATM    5  O   UNL     1     -10.515  17.181  65.267  1.00  0.00    -0.655 OA 
ENDROOT
BRANCH   2   6
HETATM    6  N   UNL     1      -9.604  16.488  67.338  1.00  0.00    -0.236 N  
HETATM    7  C   UNL     1     -10.091  15.392  68.143  1.00  0.00    -0.222 A  
HETATM    8  C   UNL     1     -10.041  14.076  67.647  1.00  0.00    -0.241 A  
HETATM    9  C   UNL     1     -10.462  12.988  68.414  1.00  0.00    -0.261 A  
HETATM   10  C   UNL     1     -10.959  13.190  69.695  1.00  0.00     0.119 A  
HETATM   11  C   UNL     1     -11.042  14.484  70.200  1.00  0.00    -0.129 A  
HETATM   12  C   UNL     1     -10.609  15.589  69.442  1.00  0.00    -0.250 A  
HETATM   13  C   UNL     1     -10.826  16.909  70.040  1.00  0.00     0.085 C  
HETATM   14  C   UNL     1      -9.974  17.936  69.943  1.00  0.00     0.758 C  
HETATM   15  C   UNL     1      -8.702  17.877  69.220  1.00  0.00     0.279 A  
HETATM   16  C   UNL     1      -7.615  18.567  69.784  1.00  0.00     0.648 A  
HETATM   17  C   UNL     1      -6.381  18.619  69.136  1.00  0.00    -0.274 A  
HETATM   18  C   UNL     1      -6.224  17.996  67.907  1.00  0.00    -0.169 A  
HETATM   19  C   UNL     1      -7.297  17.319  67.330  1.00  0.00    -0.189 A  
HETATM   20  C   UNL     1      -8.551  17.244  67.971  1.00  0.00    -0.234 A  
ENDBRANCH   2   6
TORSDOF 1
ENDMDL
MODEL      195
REMARK 921   NORMALIZED FREE ENERGY PREDICTED BY IDOCK:   10.11 KCAL/MOL
REMARK 922        TOTAL FREE ENERGY PREDICTED BY IDOCK:   10.79 KCAL/MOL
REMARK 923 INTER-LIGAND FREE ENERGY PREDICTED BY IDOCK:   10.72 KCAL/MOL
REMARK 924 INTRA-LIGAND FREE ENERGY PREDICTED BY IDOCK:    0.07 KCAL/MOL
REMARK 927      BINDING AFFINITY PREDICTED BY RF-SCORE:    0.00 PKD
ROOT
HETATM    1  N   UNL     1      -8.706  13.886  66.300  1.00  0.00    -0.364 N  
HETATM    2  C   UNL     1      -8.881  14.735  67.364  1.00  0.00    -0.193 C  
HETATM    3  H1  UNL     1      -8.537  12.903  66.512  1.00  0.00     0.000 HD 
HETATM    4  H2  UNL     1      -8.743  14.224  65.339  1.00  0.00     0.000 HD 
HETATM    5  O   UNL     1      -9.085  15.919  67.109  1.00  0.00    -0.200 OA 
ENDROOT
BRANCH   2   6
HETATM    6  N   UNL     1      -8.712  14.142  68.624  1.00  0.00    -0.160 N  
HETATM    7  C   UNL     1      -7.560  14.440  69.441  1.00  0.00     0.015 A  
HETATM    8  C   UNL     1      -7.004  15.733  69.433  1.00  0.00    -0.202 A  
HETATM    9  C   UNL     1      -5.916  16.068  70.242  1.00  0.00    -0.077 A  
HETATM   10  C   UNL     1      -5.346  15.113  71.072  1.00  0.00    -0.109 A  
HETATM   11  C   UNL     1      -5.860  13.820  71.081  1.00  0.00    -0.172 A  
HETATM   12  C   UNL     1      -6.964  13.471  70.280  1.00  0.00     0.738 A  
HETATM   13  C   UNL     1      -7.363  12.061  70.305  1.00  0.00     1.963 C  
HETATM   14  C   UNL     1      -8.629  11.629  70.268  1.00  0.00     3.584 C  
HETATM   15  C   UNL     1      -9.792  12.515  70.196  1.00  0.00     3.299 A  
HETATM   16  C   UNL     1     -10.931  12.132  70.926  1.00  0.00     2.853 A  
HETATM   17  C   UNL     1     -12.107  12.881  70.870  1.00  0.00    -0.162 A  
HETATM   18  C   UNL     1     -12.165  14.011  70.069  1.00  0.00    -0.414 A  
HETATM   19  C   UNL     1     -11.047  14.396  69.330  1.00  0.00    -0.294 A  
HETATM   20  C   UNL     1      -9.844  13.661  69.379  1.00  0.00     0.611 A  
ENDBRANCH   2   6
TORSDOF 1
ENDMDL
MODEL      196
REMARK 921   NORMALIZED FREE ENERGY PREDICTED BY IDOCK:   15.51 KCAL/MOL
REMARK 922        TOTAL FREE ENERGY PREDICTED BY IDOCK:   16.51 KCAL/MOL
REMARK 923 INTER-LIGAND FREE ENERGY PREDICTED BY IDOCK:   15.42 KCAL/MOL
REMARK 924 INTRA-LIGAND FREE ENERGY PREDICTED BY IDOCK:    1.09 KCAL/MOL
REMARK 927      BINDING AFFINITY PREDICTED BY RF-SCORE:    0.00 PKD
ROOT
HETATM    1  N   UNL     1      -6.400  15.926  65.034  1.00  0.00     7.885 N  
HETATM    2  C   UNL     1      -6.948  15.344  66.150  1.00  0.00     2.942 C  
HETATM    3  H1  UNL     1      -6.145  16.911  65.100  1.00  0.00     0.000 HD 
HETATM    4  H2  UNL     1      -6.254  15.395  64.176  1.00  0.00     0.000 HD 
HETATM    5  O   UNL     1      -7.255  14.157  66.070  1.00  0.00     2.726 OA 
ENDROOT
BRANCH   2   6
HETATM    6  N   UNL     1      -7.171  16.222  67.221  1.00  0.00    -0.168 N  
HETATM    7  C   UNL     1      -6.928  15.813  68.584  1.00  0.00    -0.124 A  
HETATM    8  C   UNL     1      -5.863  14.941  68.881  1.00  0.00    -0.086 A  
HETATM    9  C   UNL     1      -5.573  14.558  70.192  1.00  0.00    -0.119 A  
HETATM   10  C   UNL     1      -6.351  15.027  71.242  1.00  0.00     0.535 A  
HETATM   11  C   UNL     1      -7.426  15.870  70.974  1.00  0.00     2.973 A  
HETATM   12  C   UNL     1      -7.722  16.274  69.658  1.00  0.00     0.196 A  
HETATM   13  C   UNL     1      -8.927  17.090  69.487  1.00  0.00     0.457 C  
HETATM   14  C   UNL     1      -9.040  18.107  68.627  1.00  0.00    -0.290 C  
HETATM   15  C   UNL     1      -7.965  18.544  67.733  1.00  0.00    -0.263 A  
HETATM   16  C   UNL     1      -7.838  19.928  67.517  1.00  0.00    -0.325 A  
HETATM   17  C   UNL     1      -6.883  20.434  66.635  1.00  0.00    -0.294 A  
HETATM   18  C   UNL     1      -6.055  19.562  65.944  1.00  0.00    -0.202 A  
HETATM   19  C   UNL     1      -6.178  18.187  66.140  1.00  0.00    -0.250 A  
HETATM   20  C   UNL     1      -7.129  17.653  67.034  1.00  0.00    -0.179 A  
ENDBRANCH   2   6
TORSDOF 1
ENDMDL
