MODEL        1
REMARK 921   NORMALIZED FREE ENERGY PREDICTED BY IDOCK:   -4.71 KCAL/MOL
REMARK 922        TOTAL FREE ENERGY PREDICTED BY IDOCK:   -5.35 KCAL/MOL
REMARK 923 INTER-LIGAND FREE ENERGY PREDICTED BY IDOCK:   -5.26 KCAL/MOL
REMARK 924 INTRA-LIGAND FREE ENERGY PREDICTED BY IDOCK:   -0.09 KCAL/MOL
REMARK 927      BINDING AFFINITY PREDICTED BY RF-SCORE:    0.00 PKD
ROOT
HETATM    1  C   UNL     1      -9.102  19.017  66.359  1.00  0.00    -0.339 C  
HETATM    2  C   UNL     1     -10.377  18.234  66.081  1.00  0.00    -0.398 C  
ENDROOT
BRANCH   2   3
HETATM    3  O   UNL     1     -10.030  16.931  65.597  1.00  0.00    -0.552 OA 
BRANCH   3   4
HETATM    4  C   UNL     1     -11.013  16.288  64.910  1.00  0.00    -0.307 C  
HETATM    5  O   UNL     1     -11.480  16.705  63.852  1.00  0.00    -1.186 OA 
HETATM    6  N   UNL     1     -11.334  15.046  65.465  1.00  0.00    -0.338 N  
HETATM    7  C   UNL     1     -11.962  14.075  64.693  1.00  0.00    -0.430 C  
HETATM    8  C   UNL     1     -12.092  12.942  65.390  1.00  0.00    -0.454 C  
HETATM    9  N   UNL     1     -11.584  13.130  66.656  1.00  0.00    -0.338 N  
HETATM   10  C   UNL     1     -11.101  14.471  66.778  1.00  0.00    -0.325 C  
HETATM   11  C   UNL     1     -11.603  12.120  67.691  1.00  0.00    -0.343 C  
HETATM   12  S   UNL     1     -10.467  15.171  68.147  1.00  0.00    -0.249 S  
ENDBRANCH   3   4
ENDBRANCH   2   3
TORSDOF 2
ENDMDL
MODEL        2
REMARK 921   NORMALIZED FREE ENERGY PREDICTED BY IDOCK:   -4.35 KCAL/MOL
REMARK 922        TOTAL FREE ENERGY PREDICTED BY IDOCK:   -4.96 KCAL/MOL
REMARK 923 INTER-LIGAND FREE ENERGY PREDICTED BY IDOCK:   -4.79 KCAL/MOL
REMARK 924 INTRA-LIGAND FREE ENERGY PREDICTED BY IDOCK:   -0.16 KCAL/MOL
REMARK 927      BINDING AFFINITY PREDICTED BY RF-SCORE:    0.00 PKD
ROOT
HETATM    1  C   UNL     1     -12.104  13.913  66.989  1.00  0.00    -0.451 C  
HETATM    2  C   UNL     1     -12.234  14.200  65.500  1.00  0.00    -0.432 C  
ENDROOT
BRANCH   2   3
HETATM    3  O   UNL     1     -10.995  14.730  65.015  1.00  0.00    -0.365 OA 
BRANCH   3   4
HETATM    4  C   UNL     1     -10.985  16.073  64.798  1.00  0.00    -0.356 C  
HETATM    5  O   UNL     1     -11.620  16.616  63.895  1.00  0.00    -1.204 OA 
HETATM    6  N   UNL     1     -10.288  16.773  65.786  1.00  0.00    -0.342 N  
HETATM    7  C   UNL     1     -10.531  18.127  65.990  1.00  0.00    -0.335 C  
HETATM    8  C   UNL     1      -9.829  18.572  67.036  1.00  0.00    -0.325 C  
HETATM    9  N   UNL     1      -9.072  17.540  67.544  1.00  0.00    -0.233 N  
HETATM   10  C   UNL     1      -9.303  16.359  66.770  1.00  0.00    -0.245 C  
HETATM   11  C   UNL     1      -8.158  17.680  68.654  1.00  0.00    -0.269 C  
HETATM   12  S   UNL     1      -8.556  14.886  66.969  1.00  0.00    -0.237 S  
ENDBRANCH   3   4
ENDBRANCH   2   3
TORSDOF 2
ENDMDL
MODEL        3
REMARK 921   NORMALIZED FREE ENERGY PREDICTED BY IDOCK:   -4.33 KCAL/MOL
REMARK 922        TOTAL FREE ENERGY PREDICTED BY IDOCK:   -4.93 KCAL/MOL
REMARK 923 INTER-LIGAND FREE ENERGY PREDICTED BY IDOCK:   -4.78 KCAL/MOL
REMARK 924 INTRA-LIGAND FREE ENERGY PREDICTED BY IDOCK:   -0.15 KCAL/MOL
REMARK 927      BINDING AFFINITY PREDICTED BY RF-SCORE:    0.00 PKD
ROOT
HETATM    1  C   UNL     1     -10.605  18.923  67.417  1.00  0.00    -0.534 C  
HETATM    2  C   UNL     1     -10.583  18.727  65.908  1.00  0.00    -0.352 C  
ENDROOT
BRANCH   2   3
HETATM    3  O   UNL     1      -9.984  17.460  65.610  1.00  0.00    -0.559 OA 
BRANCH   3   4
HETATM    4  C   UNL     1     -10.815  16.547  65.039  1.00  0.00    -0.229 C  
HETATM    5  O   UNL     1     -11.645  16.834  64.178  1.00  0.00    -1.106 OA 
HETATM    6  N   UNL     1     -10.531  15.238  65.437  1.00  0.00    -0.366 N  
HETATM    7  C   UNL     1     -10.947  14.162  64.659  1.00  0.00    -0.382 C  
HETATM    8  C   UNL     1     -10.493  13.015  65.174  1.00  0.00    -0.320 C  
HETATM    9  N   UNL     1      -9.788  13.285  66.325  1.00  0.00    -0.282 N  
HETATM   10  C   UNL     1      -9.794  14.695  66.564  1.00  0.00    -0.275 C  
HETATM   11  C   UNL     1      -9.194  12.268  67.164  1.00  0.00    -0.196 C  
HETATM   12  S   UNL     1      -9.128  15.477  67.873  1.00  0.00    -0.175 S  
ENDBRANCH   3   4
ENDBRANCH   2   3
TORSDOF 2
ENDMDL
MODEL        4
REMARK 921   NORMALIZED FREE ENERGY PREDICTED BY IDOCK:   -4.31 KCAL/MOL
REMARK 922        TOTAL FREE ENERGY PREDICTED BY IDOCK:   -4.90 KCAL/MOL
REMARK 923 INTER-LIGAND FREE ENERGY PREDICTED BY IDOCK:   -4.70 KCAL/MOL
REMARK 924 INTRA-LIGAND FREE ENERGY PREDICTED BY IDOCK:   -0.20 KCAL/MOL
REMARK 927      BINDING AFFINITY PREDICTED BY RF-SCORE:    0.00 PKD
ROOT
HETATM    1  C   UNL     1     -12.385  16.133  72.968  1.00  0.00    -0.625 C  
HETATM    2  C   UNL     1     -13.793  15.658  72.639  1.00  0.00    -0.564 C  
ENDROOT
BRANCH   2   3
HETATM    3  O   UNL     1     -13.741  14.798  71.494  1.00  0.00    -0.377 OA 
BRANCH   3   4
HETATM    4  C   UNL     1     -13.294  13.536  71.737  1.00  0.00    -0.397 C  
HETATM    5  O   UNL     1     -13.674  12.857  72.689  1.00  0.00    -0.573 OA 
HETATM    6  N   UNL     1     -12.466  13.054  70.720  1.00  0.00    -0.339 N  
HETATM    7  C   UNL     1     -12.277  11.685  70.560  1.00  0.00    -0.361 C  
HETATM    8  C   UNL     1     -11.528  11.444  69.480  1.00  0.00    -0.312 C  
HETATM    9  N   UNL     1     -11.168  12.641  68.904  1.00  0.00    -0.266 N  
HETATM   10  C   UNL     1     -11.719  13.718  69.667  1.00  0.00    -0.318 C  
HETATM   11  C   UNL     1     -10.318  12.753  67.739  1.00  0.00    -0.221 C  
HETATM   12  S   UNL     1     -11.490  15.342  69.390  1.00  0.00    -0.350 S  
ENDBRANCH   3   4
ENDBRANCH   2   3
TORSDOF 2
ENDMDL
MODEL        5
REMARK 921   NORMALIZED FREE ENERGY PREDICTED BY IDOCK:   -4.26 KCAL/MOL
REMARK 922        TOTAL FREE ENERGY PREDICTED BY IDOCK:   -4.86 KCAL/MOL
REMARK 923 INTER-LIGAND FREE ENERGY PREDICTED BY IDOCK:   -4.66 KCAL/MOL
REMARK 924 INTRA-LIGAND FREE ENERGY PREDICTED BY IDOCK:   -0.19 KCAL/MOL
REMARK 927      BINDING AFFINITY PREDICTED BY RF-SCORE:    0.00 PKD
ROOT
HETATM    1  C   UNL     1     -11.860  15.915  71.700  1.00  0.00    -0.565 C  
HETATM    2  C   UNL     1     -13.321  15.575  71.444  1.00  0.00    -0.511 C  
ENDROOT
BRANCH   2   3
HETATM    3  O   UNL     1     -13.400  14.278  70.839  1.00  0.00    -0.330 OA 
BRANCH   3   4
HETATM    4  C   UNL     1     -13.363  13.232  71.707  1.00  0.00    -0.393 C  
HETATM    5  O   UNL     1     -13.918  13.243  72.804  1.00  0.00    -0.701 OA 
HETATM    6  N   UNL     1     -12.744  12.103  71.162  1.00  0.00    -0.322 N  
HETATM    7  C   UNL     1     -12.993  10.842  71.693  1.00  0.00    -0.476 C  
HETATM    8  C   UNL     1     -12.375   9.904  70.968  1.00  0.00    -0.357 C  
HETATM    9  N   UNL     1     -11.671  10.510  69.952  1.00  0.00    -0.280 N  
HETATM   10  C   UNL     1     -11.847  11.927  70.034  1.00  0.00    -0.328 C  
HETATM   11  C   UNL     1     -10.849   9.794  69.002  1.00  0.00    -0.199 C  
HETATM   12  S   UNL     1     -11.129  13.068  69.059  1.00  0.00    -0.199 S  
ENDBRANCH   3   4
ENDBRANCH   2   3
TORSDOF 2
ENDMDL
MODEL        6
REMARK 921   NORMALIZED FREE ENERGY PREDICTED BY IDOCK:   -4.25 KCAL/MOL
REMARK 922        TOTAL FREE ENERGY PREDICTED BY IDOCK:   -4.84 KCAL/MOL
REMARK 923 INTER-LIGAND FREE ENERGY PREDICTED BY IDOCK:   -4.76 KCAL/MOL
REMARK 924 INTRA-LIGAND FREE ENERGY PREDICTED BY IDOCK:   -0.08 KCAL/MOL
REMARK 927      BINDING AFFINITY PREDICTED BY RF-SCORE:    0.00 PKD
ROOT
HETATM    1  C   UNL     1     -12.100   9.553  71.308  1.00  0.00    -0.443 C  
HETATM    2  C   UNL     1     -13.046  10.623  71.835  1.00  0.00    -0.458 C  
ENDROOT
BRANCH   2   3
HETATM    3  O   UNL     1     -12.824  11.841  71.114  1.00  0.00    -0.350 OA 
BRANCH   3   4
HETATM    4  C   UNL     1     -13.236  12.972  71.746  1.00  0.00    -0.392 C  
HETATM    5  O   UNL     1     -14.021  12.969  72.693  1.00  0.00    -0.657 OA 
HETATM    6  N   UNL     1     -12.571  14.115  71.293  1.00  0.00    -0.343 N  
HETATM    7  C   UNL     1     -12.520  15.257  72.086  1.00  0.00    -0.357 C  
HETATM    8  C   UNL     1     -11.763  16.191  71.502  1.00  0.00    -0.464 C  
HETATM    9  N   UNL     1     -11.312  15.717  70.291  1.00  0.00    -0.311 N  
HETATM   10  C   UNL     1     -11.816  14.394  70.085  1.00  0.00    -0.314 C  
HETATM   11  C   UNL     1     -10.501  16.486  69.375  1.00  0.00    -0.320 C  
HETATM   12  S   UNL     1     -11.591  13.453  68.732  1.00  0.00    -0.348 S  
ENDBRANCH   3   4
ENDBRANCH   2   3
TORSDOF 2
ENDMDL
MODEL        7
REMARK 921   NORMALIZED FREE ENERGY PREDICTED BY IDOCK:   -4.23 KCAL/MOL
REMARK 922        TOTAL FREE ENERGY PREDICTED BY IDOCK:   -4.82 KCAL/MOL
REMARK 923 INTER-LIGAND FREE ENERGY PREDICTED BY IDOCK:   -4.70 KCAL/MOL
REMARK 924 INTRA-LIGAND FREE ENERGY PREDICTED BY IDOCK:   -0.12 KCAL/MOL
REMARK 927      BINDING AFFINITY PREDICTED BY RF-SCORE:    0.00 PKD
ROOT
HETATM    1  C   UNL     1     -12.683  12.741  64.746  1.00  0.00    -0.469 C  
HETATM    2  C   UNL     1     -12.481  14.177  65.210  1.00  0.00    -0.461 C  
ENDROOT
BRANCH   2   3
HETATM    3  O   UNL     1     -11.210  14.646  64.742  1.00  0.00    -0.379 OA 
BRANCH   3   4
HETATM    4  C   UNL     1     -10.975  15.971  64.938  1.00  0.00    -0.384 C  
HETATM    5  O   UNL     1     -11.395  16.850  64.188  1.00  0.00    -1.208 OA 
HETATM    6  N   UNL     1     -10.323  16.228  66.148  1.00  0.00    -0.328 N  
HETATM    7  C   UNL     1     -10.390  17.492  66.725  1.00  0.00    -0.314 C  
HETATM    8  C   UNL     1      -9.778  17.491  67.913  1.00  0.00    -0.278 C  
HETATM    9  N   UNL     1      -9.258  16.239  68.152  1.00  0.00    -0.196 N  
HETATM   10  C   UNL     1      -9.553  15.385  67.044  1.00  0.00    -0.218 C  
HETATM   11  C   UNL     1      -8.492  15.895  69.329  1.00  0.00    -0.242 C  
HETATM   12  S   UNL     1      -9.064  13.806  66.858  1.00  0.00    -0.219 S  
ENDBRANCH   3   4
ENDBRANCH   2   3
TORSDOF 2
ENDMDL
MODEL        8
REMARK 921   NORMALIZED FREE ENERGY PREDICTED BY IDOCK:   -4.20 KCAL/MOL
REMARK 922        TOTAL FREE ENERGY PREDICTED BY IDOCK:   -4.79 KCAL/MOL
REMARK 923 INTER-LIGAND FREE ENERGY PREDICTED BY IDOCK:   -4.67 KCAL/MOL
REMARK 924 INTRA-LIGAND FREE ENERGY PREDICTED BY IDOCK:   -0.12 KCAL/MOL
REMARK 927      BINDING AFFINITY PREDICTED BY RF-SCORE:    0.00 PKD
ROOT
HETATM    1  C   UNL     1     -12.932  15.879  72.981  1.00  0.00    -0.630 C  
HETATM    2  C   UNL     1     -11.797  15.840  71.968  1.00  0.00    -0.490 C  
ENDROOT
BRANCH   2   3
HETATM    3  O   UNL     1     -12.350  15.770  70.647  1.00  0.00    -0.408 OA 
BRANCH   3   4
HETATM    4  C   UNL     1     -12.200  14.573  70.020  1.00  0.00    -0.342 C  
HETATM    5  O   UNL     1     -12.531  13.500  70.521  1.00  0.00    -0.332 OA 
HETATM    6  N   UNL     1     -11.755  14.709  68.701  1.00  0.00    -0.322 N  
HETATM    7  C   UNL     1     -11.961  13.684  67.783  1.00  0.00    -0.352 C  
HETATM    8  C   UNL     1     -11.542  14.059  66.570  1.00  0.00    -0.374 C  
HETATM    9  N   UNL     1     -11.017  15.329  66.646  1.00  0.00    -0.313 N  
HETATM   10  C   UNL     1     -11.102  15.796  67.995  1.00  0.00    -0.337 C  
HETATM   11  C   UNL     1     -10.431  16.028  65.524  1.00  0.00    -0.405 C  
HETATM   12  S   UNL     1     -10.529  17.246  68.575  1.00  0.00    -0.364 S  
ENDBRANCH   3   4
ENDBRANCH   2   3
TORSDOF 2
ENDMDL
MODEL        9
REMARK 921   NORMALIZED FREE ENERGY PREDICTED BY IDOCK:   -4.19 KCAL/MOL
REMARK 922        TOTAL FREE ENERGY PREDICTED BY IDOCK:   -4.77 KCAL/MOL
REMARK 923 INTER-LIGAND FREE ENERGY PREDICTED BY IDOCK:   -4.57 KCAL/MOL
REMARK 924 INTRA-LIGAND FREE ENERGY PREDICTED BY IDOCK:   -0.20 KCAL/MOL
REMARK 927      BINDING AFFINITY PREDICTED BY RF-SCORE:    0.00 PKD
ROOT
HETATM    1  C   UNL     1      -9.137  15.903  66.201  1.00  0.00    -0.385 C  
HETATM    2  C   UNL     1     -10.525  16.172  65.639  1.00  0.00    -0.383 C  
ENDROOT
BRANCH   2   3
HETATM    3  O   UNL     1     -11.367  15.046  65.913  1.00  0.00    -0.338 OA 
BRANCH   3   4
HETATM    4  C   UNL     1     -11.859  14.410  64.816  1.00  0.00    -0.433 C  
HETATM    5  O   UNL     1     -12.578  14.958  63.983  1.00  0.00    -0.832 OA 
HETATM    6  N   UNL     1     -11.351  13.115  64.672  1.00  0.00    -0.319 N  
HETATM    7  C   UNL     1     -11.372  12.488  63.431  1.00  0.00    -0.422 C  
HETATM    8  C   UNL     1     -10.759  11.303  63.501  1.00  0.00    -0.335 C  
HETATM    9  N   UNL     1     -10.336  11.088  64.793  1.00  0.00    -0.313 N  
HETATM   10  C   UNL     1     -10.707  12.207  65.604  1.00  0.00    -0.275 C  
HETATM   11  C   UNL     1      -9.672   9.883  65.235  1.00  0.00    -0.313 C  
HETATM   12  S   UNL     1     -10.467  12.360  67.243  1.00  0.00    -0.224 S  
ENDBRANCH   3   4
ENDBRANCH   2   3
TORSDOF 2
ENDMDL
MODEL       10
REMARK 921   NORMALIZED FREE ENERGY PREDICTED BY IDOCK:   -4.16 KCAL/MOL
REMARK 922        TOTAL FREE ENERGY PREDICTED BY IDOCK:   -4.74 KCAL/MOL
REMARK 923 INTER-LIGAND FREE ENERGY PREDICTED BY IDOCK:   -4.56 KCAL/MOL
REMARK 924 INTRA-LIGAND FREE ENERGY PREDICTED BY IDOCK:   -0.18 KCAL/MOL
REMARK 927      BINDING AFFINITY PREDICTED BY RF-SCORE:    0.00 PKD
ROOT
HETATM    1  C   UNL     1     -12.159  12.852  63.419  1.00  0.00    -0.610 C  
HETATM    2  C   UNL     1     -11.415  11.926  64.369  1.00  0.00    -0.320 C  
ENDROOT
BRANCH   2   3
HETATM    3  O   UNL     1     -10.816  12.707  65.411  1.00  0.00    -0.276 OA 
BRANCH   3   4
HETATM    4  C   UNL     1     -11.546  12.805  66.554  1.00  0.00    -0.376 C  
HETATM    5  O   UNL     1     -12.150  11.857  67.053  1.00  0.00    -0.600 OA 
HETATM    6  N   UNL     1     -11.424  14.056  67.165  1.00  0.00    -0.333 N  
HETATM    7  C   UNL     1     -11.713  14.208  68.517  1.00  0.00    -0.345 C  
HETATM    8  C   UNL     1     -11.443  15.456  68.911  1.00  0.00    -0.342 C  
HETATM    9  N   UNL     1     -10.997  16.184  67.831  1.00  0.00    -0.334 N  
HETATM   10  C   UNL     1     -10.983  15.348  66.670  1.00  0.00    -0.275 C  
HETATM   11  C   UNL     1     -10.656  17.587  67.890  1.00  0.00    -0.390 C  
HETATM   12  S   UNL     1     -10.584  15.814  65.124  1.00  0.00    -0.360 S  
ENDBRANCH   3   4
ENDBRANCH   2   3
TORSDOF 2
ENDMDL
MODEL       11
REMARK 921   NORMALIZED FREE ENERGY PREDICTED BY IDOCK:   -4.12 KCAL/MOL
REMARK 922        TOTAL FREE ENERGY PREDICTED BY IDOCK:   -4.70 KCAL/MOL
REMARK 923 INTER-LIGAND FREE ENERGY PREDICTED BY IDOCK:   -4.55 KCAL/MOL
REMARK 924 INTRA-LIGAND FREE ENERGY PREDICTED BY IDOCK:   -0.15 KCAL/MOL
REMARK 927      BINDING AFFINITY PREDICTED BY RF-SCORE:    0.00 PKD
ROOT
HETATM    1  C   UNL     1     -11.264  14.796  68.956  1.00  0.00    -0.286 C  
HETATM    2  C   UNL     1     -11.499  14.791  67.453  1.00  0.00    -0.363 C  
ENDROOT
BRANCH   2   3
HETATM    3  O   UNL     1     -12.254  13.625  67.101  1.00  0.00    -0.372 OA 
BRANCH   3   4
HETATM    4  C   UNL     1     -12.490  13.468  65.771  1.00  0.00    -0.462 C  
HETATM    5  O   UNL     1     -13.280  14.166  65.137  1.00  0.00    -0.743 OA 
HETATM    6  N   UNL     1     -11.644  12.523  65.182  1.00  0.00    -0.338 N  
HETATM    7  C   UNL     1     -11.422  12.540  63.809  1.00  0.00    -0.469 C  
HETATM    8  C   UNL     1     -10.516  11.616  63.475  1.00  0.00    -0.443 C  
HETATM    9  N   UNL     1     -10.128  10.934  64.606  1.00  0.00    -0.303 N  
HETATM   10  C   UNL     1     -10.834  11.453  65.737  1.00  0.00    -0.230 C  
HETATM   11  C   UNL     1      -9.190   9.834  64.604  1.00  0.00    -0.255 C  
HETATM   12  S   UNL     1     -10.742  10.893  67.301  1.00  0.00    -0.282 S  
ENDBRANCH   3   4
ENDBRANCH   2   3
TORSDOF 2
ENDMDL
MODEL       12
REMARK 921   NORMALIZED FREE ENERGY PREDICTED BY IDOCK:   -4.11 KCAL/MOL
REMARK 922        TOTAL FREE ENERGY PREDICTED BY IDOCK:   -4.69 KCAL/MOL
REMARK 923 INTER-LIGAND FREE ENERGY PREDICTED BY IDOCK:   -4.53 KCAL/MOL
REMARK 924 INTRA-LIGAND FREE ENERGY PREDICTED BY IDOCK:   -0.15 KCAL/MOL
REMARK 927      BINDING AFFINITY PREDICTED BY RF-SCORE:    0.00 PKD
ROOT
HETATM    1  C   UNL     1     -11.351  11.772  63.386  1.00  0.00    -0.437 C  
HETATM    2  C   UNL     1     -12.638  12.230  64.056  1.00  0.00    -0.420 C  
ENDROOT
BRANCH   2   3
HETATM    3  O   UNL     1     -12.319  13.170  65.091  1.00  0.00    -0.421 OA 
BRANCH   3   4
HETATM    4  C   UNL     1     -11.918  14.395  64.656  1.00  0.00    -0.464 C  
HETATM    5  O   UNL     1     -12.547  15.059  63.834  1.00  0.00    -0.813 OA 
HETATM    6  N   UNL     1     -10.795  14.868  65.341  1.00  0.00    -0.344 N  
HETATM    7  C   UNL     1     -10.510  16.229  65.365  1.00  0.00    -0.343 C  
HETATM    8  C   UNL     1      -9.453  16.467  66.146  1.00  0.00    -0.315 C  
HETATM    9  N   UNL     1      -8.981  15.274  66.644  1.00  0.00    -0.271 N  
HETATM   10  C   UNL     1      -9.786  14.202  66.145  1.00  0.00    -0.290 C  
HETATM   11  C   UNL     1      -7.816  15.158  67.493  1.00  0.00    -0.181 C  
HETATM   12  S   UNL     1      -9.549  12.579  66.422  1.00  0.00    -0.238 S  
ENDBRANCH   3   4
ENDBRANCH   2   3
TORSDOF 2
ENDMDL
MODEL       13
REMARK 921   NORMALIZED FREE ENERGY PREDICTED BY IDOCK:   -4.08 KCAL/MOL
REMARK 922        TOTAL FREE ENERGY PREDICTED BY IDOCK:   -4.65 KCAL/MOL
REMARK 923 INTER-LIGAND FREE ENERGY PREDICTED BY IDOCK:   -4.51 KCAL/MOL
REMARK 924 INTRA-LIGAND FREE ENERGY PREDICTED BY IDOCK:   -0.14 KCAL/MOL
REMARK 927      BINDING AFFINITY PREDICTED BY RF-SCORE:    0.00 PKD
ROOT
HETATM    1  C   UNL     1     -12.213  12.825  63.503  1.00  0.00    -0.613 C  
HETATM    2  C   UNL     1     -12.043  14.138  64.253  1.00  0.00    -0.444 C  
ENDROOT
BRANCH   2   3
HETATM    3  O   UNL     1     -10.784  14.126  64.938  1.00  0.00    -0.382 OA 
BRANCH   3   4
HETATM    4  C   UNL     1     -10.538  15.214  65.716  1.00  0.00    -0.351 C  
HETATM    5  O   UNL     1     -10.104  16.276  65.274  1.00  0.00    -0.528 OA 
HETATM    6  N   UNL     1     -10.956  15.036  67.038  1.00  0.00    -0.313 N  
HETATM    7  C   UNL     1     -11.200  16.138  67.850  1.00  0.00    -0.245 C  
HETATM    8  C   UNL     1     -11.675  15.744  69.036  1.00  0.00    -0.396 C  
HETATM    9  N   UNL     1     -11.733  14.368  69.063  1.00  0.00    -0.292 N  
HETATM   10  C   UNL     1     -11.263  13.849  67.816  1.00  0.00    -0.293 C  
HETATM   11  C   UNL     1     -12.160  13.602  70.213  1.00  0.00    -0.357 C  
HETATM   12  S   UNL     1     -11.087  12.244  67.419  1.00  0.00    -0.301 S  
ENDBRANCH   3   4
ENDBRANCH   2   3
TORSDOF 2
ENDMDL
MODEL       14
REMARK 921   NORMALIZED FREE ENERGY PREDICTED BY IDOCK:   -4.05 KCAL/MOL
REMARK 922        TOTAL FREE ENERGY PREDICTED BY IDOCK:   -4.62 KCAL/MOL
REMARK 923 INTER-LIGAND FREE ENERGY PREDICTED BY IDOCK:   -4.53 KCAL/MOL
REMARK 924 INTRA-LIGAND FREE ENERGY PREDICTED BY IDOCK:   -0.09 KCAL/MOL
REMARK 927      BINDING AFFINITY PREDICTED BY RF-SCORE:    0.00 PKD
ROOT
HETATM    1  C   UNL     1     -10.021  19.910  66.285  1.00  0.00    -0.596 C  
HETATM    2  C   UNL     1     -10.726  19.224  67.446  1.00  0.00    -0.486 C  
ENDROOT
BRANCH   2   3
HETATM    3  O   UNL     1     -10.865  17.829  67.151  1.00  0.00    -0.267 OA 
BRANCH   3   4
HETATM    4  C   UNL     1     -10.737  16.996  68.218  1.00  0.00    -0.372 C  
HETATM    5  O   UNL     1     -10.467  17.387  69.352  1.00  0.00    -0.303 OA 
HETATM    6  N   UNL     1     -11.075  15.674  67.913  1.00  0.00    -0.322 N  
HETATM    7  C   UNL     1     -11.432  14.790  68.926  1.00  0.00    -0.297 C  
HETATM    8  C   UNL     1     -11.802  13.616  68.406  1.00  0.00    -0.372 C  
HETATM    9  N   UNL     1     -11.675  13.668  67.037  1.00  0.00    -0.362 N  
HETATM   10  C   UNL     1     -11.188  14.958  66.655  1.00  0.00    -0.340 C  
HETATM   11  C   UNL     1     -11.949  12.553  66.158  1.00  0.00    -0.366 C  
HETATM   12  S   UNL     1     -10.815  15.455  65.113  1.00  0.00    -0.444 S  
ENDBRANCH   3   4
ENDBRANCH   2   3
TORSDOF 2
ENDMDL
MODEL       15
REMARK 921   NORMALIZED FREE ENERGY PREDICTED BY IDOCK:   -4.02 KCAL/MOL
REMARK 922        TOTAL FREE ENERGY PREDICTED BY IDOCK:   -4.58 KCAL/MOL
REMARK 923 INTER-LIGAND FREE ENERGY PREDICTED BY IDOCK:   -4.46 KCAL/MOL
REMARK 924 INTRA-LIGAND FREE ENERGY PREDICTED BY IDOCK:   -0.12 KCAL/MOL
REMARK 927      BINDING AFFINITY PREDICTED BY RF-SCORE:    0.00 PKD
ROOT
HETATM    1  C   UNL     1     -12.703  15.221  73.945  1.00  0.00    -0.662 C  
HETATM    2  C   UNL     1     -13.349  14.346  72.881  1.00  0.00    -0.478 C  
ENDROOT
BRANCH   2   3
HETATM    3  O   UNL     1     -12.384  14.061  71.860  1.00  0.00    -0.266 OA 
BRANCH   3   4
HETATM    4  C   UNL     1     -12.630  14.641  70.654  1.00  0.00    -0.357 C  
HETATM    5  O   UNL     1     -13.023  15.799  70.529  1.00  0.00    -0.454 OA 
HETATM    6  N   UNL     1     -12.262  13.826  69.580  1.00  0.00    -0.329 N  
HETATM    7  C   UNL     1     -12.019  14.382  68.329  1.00  0.00    -0.288 C  
HETATM    8  C   UNL     1     -11.595  13.442  67.479  1.00  0.00    -0.344 C  
HETATM    9  N   UNL     1     -11.570  12.227  68.125  1.00  0.00    -0.320 N  
HETATM   10  C   UNL     1     -12.010  12.400  69.475  1.00  0.00    -0.261 C  
HETATM   11  C   UNL     1     -11.201  10.982  67.488  1.00  0.00    -0.302 C  
HETATM   12  S   UNL     1     -12.210  11.199  70.609  1.00  0.00    -0.400 S  
ENDBRANCH   3   4
ENDBRANCH   2   3
TORSDOF 2
ENDMDL
MODEL       16
REMARK 921   NORMALIZED FREE ENERGY PREDICTED BY IDOCK:   -4.00 KCAL/MOL
REMARK 922        TOTAL FREE ENERGY PREDICTED BY IDOCK:   -4.56 KCAL/MOL
REMARK 923 INTER-LIGAND FREE ENERGY PREDICTED BY IDOCK:   -4.42 KCAL/MOL
REMARK 924 INTRA-LIGAND FREE ENERGY PREDICTED BY IDOCK:   -0.14 KCAL/MOL
REMARK 927      BINDING AFFINITY PREDICTED BY RF-SCORE:    0.00 PKD
ROOT
HETATM    1  C   UNL     1     -12.532  12.606  64.746  1.00  0.00    -0.555 C  
HETATM    2  C   UNL     1     -12.445  13.863  65.600  1.00  0.00    -0.505 C  
ENDROOT
BRANCH   2   3
HETATM    3  O   UNL     1     -11.362  13.723  66.529  1.00  0.00    -0.309 OA 
BRANCH   3   4
HETATM    4  C   UNL     1     -11.141  14.802  67.327  1.00  0.00    -0.332 C  
HETATM    5  O   UNL     1     -10.663  15.858  66.917  1.00  0.00    -0.321 OA 
HETATM    6  N   UNL     1     -11.637  14.625  68.621  1.00  0.00    -0.298 N  
HETATM    7  C   UNL     1     -11.907  15.727  69.426  1.00  0.00    -0.349 C  
HETATM    8  C   UNL     1     -12.456  15.334  70.579  1.00  0.00    -0.405 C  
HETATM    9  N   UNL     1     -12.542  13.961  70.595  1.00  0.00    -0.343 N  
HETATM   10  C   UNL     1     -12.010  13.440  69.373  1.00  0.00    -0.315 C  
HETATM   11  C   UNL     1     -13.047  13.196  71.713  1.00  0.00    -0.383 C  
HETATM   12  S   UNL     1     -11.842  11.833  68.976  1.00  0.00    -0.300 S  
ENDBRANCH   3   4
ENDBRANCH   2   3
TORSDOF 2
ENDMDL
MODEL       17
REMARK 921   NORMALIZED FREE ENERGY PREDICTED BY IDOCK:   -4.00 KCAL/MOL
REMARK 922        TOTAL FREE ENERGY PREDICTED BY IDOCK:   -4.56 KCAL/MOL
REMARK 923 INTER-LIGAND FREE ENERGY PREDICTED BY IDOCK:   -4.47 KCAL/MOL
REMARK 924 INTRA-LIGAND FREE ENERGY PREDICTED BY IDOCK:   -0.09 KCAL/MOL
REMARK 927      BINDING AFFINITY PREDICTED BY RF-SCORE:    0.00 PKD
ROOT
HETATM    1  C   UNL     1      -9.469   9.245  70.927  1.00  0.00    -0.330 C  
HETATM    2  C   UNL     1     -10.933   9.199  71.338  1.00  0.00    -0.344 C  
ENDROOT
BRANCH   2   3
HETATM    3  O   UNL     1     -11.607  10.343  70.797  1.00  0.00    -0.327 OA 
BRANCH   3   4
HETATM    4  C   UNL     1     -12.716  10.737  71.477  1.00  0.00    -0.431 C  
HETATM    5  O   UNL     1     -13.410   9.968  72.141  1.00  0.00    -0.444 OA 
HETATM    6  N   UNL     1     -12.902  12.122  71.449  1.00  0.00    -0.342 N  
HETATM    7  C   UNL     1     -13.684  12.744  72.416  1.00  0.00    -0.360 C  
HETATM    8  C   UNL     1     -13.651  14.071  72.254  1.00  0.00    -0.525 C  
HETATM    9  N   UNL     1     -12.873  14.373  71.160  1.00  0.00    -0.329 N  
HETATM   10  C   UNL     1     -12.379  13.162  70.581  1.00  0.00    -0.326 C  
HETATM   11  C   UNL     1     -12.656  15.716  70.670  1.00  0.00    -0.414 C  
HETATM   12  S   UNL     1     -11.456  13.031  69.203  1.00  0.00    -0.299 S  
ENDBRANCH   3   4
ENDBRANCH   2   3
TORSDOF 2
ENDMDL
MODEL       18
REMARK 921   NORMALIZED FREE ENERGY PREDICTED BY IDOCK:   -3.93 KCAL/MOL
REMARK 922        TOTAL FREE ENERGY PREDICTED BY IDOCK:   -4.48 KCAL/MOL
REMARK 923 INTER-LIGAND FREE ENERGY PREDICTED BY IDOCK:   -4.39 KCAL/MOL
REMARK 924 INTRA-LIGAND FREE ENERGY PREDICTED BY IDOCK:   -0.09 KCAL/MOL
REMARK 927      BINDING AFFINITY PREDICTED BY RF-SCORE:    0.00 PKD
ROOT
HETATM    1  C   UNL     1     -11.638   6.554  70.232  1.00  0.00    -0.473 C  
HETATM    2  C   UNL     1     -12.275   7.375  71.344  1.00  0.00    -0.342 C  
ENDROOT
BRANCH   2   3
HETATM    3  O   UNL     1     -12.027   8.765  71.101  1.00  0.00    -0.290 OA 
BRANCH   3   4
HETATM    4  C   UNL     1     -12.948   9.618  71.624  1.00  0.00    -0.407 C  
HETATM    5  O   UNL     1     -13.789   9.278  72.454  1.00  0.00    -0.470 OA 
HETATM    6  N   UNL     1     -12.748  10.941  71.219  1.00  0.00    -0.412 N  
HETATM    7  C   UNL     1     -13.276  11.990  71.964  1.00  0.00    -0.375 C  
HETATM    8  C   UNL     1     -12.890  13.162  71.451  1.00  0.00    -0.311 C  
HETATM    9  N   UNL     1     -12.119  12.935  70.334  1.00  0.00    -0.353 N  
HETATM   10  C   UNL     1     -12.008  11.526  70.115  1.00  0.00    -0.369 C  
HETATM   11  C   UNL     1     -11.570  13.985  69.505  1.00  0.00    -0.295 C  
HETATM   12  S   UNL     1     -11.231  10.783  68.845  1.00  0.00    -0.290 S  
ENDBRANCH   3   4
ENDBRANCH   2   3
TORSDOF 2
ENDMDL
MODEL       19
REMARK 921   NORMALIZED FREE ENERGY PREDICTED BY IDOCK:   -3.93 KCAL/MOL
REMARK 922        TOTAL FREE ENERGY PREDICTED BY IDOCK:   -4.48 KCAL/MOL
REMARK 923 INTER-LIGAND FREE ENERGY PREDICTED BY IDOCK:   -4.35 KCAL/MOL
REMARK 924 INTRA-LIGAND FREE ENERGY PREDICTED BY IDOCK:   -0.13 KCAL/MOL
REMARK 927      BINDING AFFINITY PREDICTED BY RF-SCORE:    0.00 PKD
ROOT
HETATM    1  C   UNL     1     -14.297   8.170  71.716  1.00  0.00    -0.582 C  
HETATM    2  C   UNL     1     -13.142   9.124  71.982  1.00  0.00    -0.429 C  
ENDROOT
BRANCH   2   3
HETATM    3  O   UNL     1     -13.293  10.284  71.155  1.00  0.00    -0.361 OA 
BRANCH   3   4
HETATM    4  C   UNL     1     -12.202  10.612  70.411  1.00  0.00    -0.345 C  
HETATM    5  O   UNL     1     -11.474   9.778  69.877  1.00  0.00    -0.222 OA 
HETATM    6  N   UNL     1     -12.081  11.990  70.212  1.00  0.00    -0.340 N  
HETATM    7  C   UNL     1     -11.327  12.481  69.152  1.00  0.00    -0.274 C  
HETATM    8  C   UNL     1     -11.420  13.813  69.095  1.00  0.00    -0.298 C  
HETATM    9  N   UNL     1     -12.212  14.255  70.131  1.00  0.00    -0.327 N  
HETATM   10  C   UNL     1     -12.651  13.133  70.903  1.00  0.00    -0.295 C  
HETATM   11  C   UNL     1     -12.490  15.649  70.396  1.00  0.00    -0.371 C  
HETATM   12  S   UNL     1     -13.568  13.187  72.289  1.00  0.00    -0.508 S  
ENDBRANCH   3   4
ENDBRANCH   2   3
TORSDOF 2
ENDMDL
MODEL       20
REMARK 921   NORMALIZED FREE ENERGY PREDICTED BY IDOCK:   -3.89 KCAL/MOL
REMARK 922        TOTAL FREE ENERGY PREDICTED BY IDOCK:   -4.44 KCAL/MOL
REMARK 923 INTER-LIGAND FREE ENERGY PREDICTED BY IDOCK:   -4.35 KCAL/MOL
REMARK 924 INTRA-LIGAND FREE ENERGY PREDICTED BY IDOCK:   -0.10 KCAL/MOL
REMARK 927      BINDING AFFINITY PREDICTED BY RF-SCORE:    0.00 PKD
ROOT
HETATM    1  C   UNL     1     -12.198  12.239  63.570  1.00  0.00    -0.669 C  
HETATM    2  C   UNL     1     -12.653  12.942  64.841  1.00  0.00    -0.458 C  
ENDROOT
BRANCH   2   3
HETATM    3  O   UNL     1     -11.777  12.580  65.915  1.00  0.00    -0.385 OA 
BRANCH   3   4
HETATM    4  C   UNL     1     -11.738  13.460  66.951  1.00  0.00    -0.389 C  
HETATM    5  O   UNL     1     -11.774  14.680  66.803  1.00  0.00    -0.373 OA 
HETATM    6  N   UNL     1     -11.787  12.827  68.197  1.00  0.00    -0.341 N  
HETATM    7  C   UNL     1     -12.196  13.531  69.325  1.00  0.00    -0.211 C  
HETATM    8  C   UNL     1     -12.256  12.716  70.382  1.00  0.00    -0.288 C  
HETATM    9  N   UNL     1     -11.860  11.453  70.002  1.00  0.00    -0.333 N  
HETATM   10  C   UNL     1     -11.521  11.462  68.613  1.00  0.00    -0.296 C  
HETATM   11  C   UNL     1     -11.763  10.331  70.909  1.00  0.00    -0.379 C  
HETATM   12  S   UNL     1     -10.925  10.181  67.735  1.00  0.00    -0.221 S  
ENDBRANCH   3   4
ENDBRANCH   2   3
TORSDOF 2
ENDMDL
MODEL       21
REMARK 921   NORMALIZED FREE ENERGY PREDICTED BY IDOCK:   -3.86 KCAL/MOL
REMARK 922        TOTAL FREE ENERGY PREDICTED BY IDOCK:   -4.41 KCAL/MOL
REMARK 923 INTER-LIGAND FREE ENERGY PREDICTED BY IDOCK:   -4.29 KCAL/MOL
REMARK 924 INTRA-LIGAND FREE ENERGY PREDICTED BY IDOCK:   -0.12 KCAL/MOL
REMARK 927      BINDING AFFINITY PREDICTED BY RF-SCORE:    0.00 PKD
ROOT
HETATM    1  C   UNL     1     -12.384   9.393  71.353  1.00  0.00    -0.439 C  
HETATM    2  C   UNL     1     -13.025  10.724  71.717  1.00  0.00    -0.463 C  
ENDROOT
BRANCH   2   3
HETATM    3  O   UNL     1     -12.199  11.790  71.230  1.00  0.00    -0.212 OA 
BRANCH   3   4
HETATM    4  C   UNL     1     -12.713  13.039  71.390  1.00  0.00    -0.281 C  
HETATM    5  O   UNL     1     -13.336  13.391  72.389  1.00  0.00    -0.508 OA 
HETATM    6  N   UNL     1     -12.341  13.909  70.360  1.00  0.00    -0.352 N  
HETATM    7  C   UNL     1     -12.381  15.285  70.557  1.00  0.00    -0.387 C  
HETATM    8  C   UNL     1     -11.901  15.921  69.484  1.00  0.00    -0.301 C  
HETATM    9  N   UNL     1     -11.554  14.993  68.528  1.00  0.00    -0.316 N  
HETATM   10  C   UNL     1     -11.834  13.679  69.019  1.00  0.00    -0.352 C  
HETATM   11  C   UNL     1     -11.040  15.336  67.221  1.00  0.00    -0.325 C  
HETATM   12  S   UNL     1     -11.643  12.253  68.186  1.00  0.00    -0.353 S  
ENDBRANCH   3   4
ENDBRANCH   2   3
TORSDOF 2
ENDMDL
MODEL       22
REMARK 921   NORMALIZED FREE ENERGY PREDICTED BY IDOCK:   -3.86 KCAL/MOL
REMARK 922        TOTAL FREE ENERGY PREDICTED BY IDOCK:   -4.40 KCAL/MOL
REMARK 923 INTER-LIGAND FREE ENERGY PREDICTED BY IDOCK:   -4.27 KCAL/MOL
REMARK 924 INTRA-LIGAND FREE ENERGY PREDICTED BY IDOCK:   -0.13 KCAL/MOL
REMARK 927      BINDING AFFINITY PREDICTED BY RF-SCORE:    0.00 PKD
ROOT
HETATM    1  C   UNL     1     -10.431  14.665  65.140  1.00  0.00    -0.440 C  
HETATM    2  C   UNL     1     -10.831  13.386  65.860  1.00  0.00    -0.274 C  
ENDROOT
BRANCH   2   3
HETATM    3  O   UNL     1     -10.676  13.576  67.273  1.00  0.00    -0.264 OA 
BRANCH   3   4
HETATM    4  C   UNL     1     -11.582  12.922  68.047  1.00  0.00    -0.342 C  
HETATM    5  O   UNL     1     -12.037  11.815  67.766  1.00  0.00    -0.595 OA 
HETATM    6  N   UNL     1     -11.834  13.581  69.254  1.00  0.00    -0.323 N  
HETATM    7  C   UNL     1     -12.360  12.885  70.337  1.00  0.00    -0.258 C  
HETATM    8  C   UNL     1     -12.435  13.682  71.408  1.00  0.00    -0.285 C  
HETATM    9  N   UNL     1     -11.991  14.939  71.066  1.00  0.00    -0.300 N  
HETATM   10  C   UNL     1     -11.612  14.949  69.687  1.00  0.00    -0.303 C  
HETATM   11  C   UNL     1     -11.977  16.064  71.975  1.00  0.00    -0.537 C  
HETATM   12  S   UNL     1     -11.084  16.266  68.819  1.00  0.00    -0.348 S  
ENDBRANCH   3   4
ENDBRANCH   2   3
TORSDOF 2
ENDMDL
MODEL       23
REMARK 921   NORMALIZED FREE ENERGY PREDICTED BY IDOCK:   -3.84 KCAL/MOL
REMARK 922        TOTAL FREE ENERGY PREDICTED BY IDOCK:   -4.39 KCAL/MOL
REMARK 923 INTER-LIGAND FREE ENERGY PREDICTED BY IDOCK:   -4.30 KCAL/MOL
REMARK 924 INTRA-LIGAND FREE ENERGY PREDICTED BY IDOCK:   -0.09 KCAL/MOL
REMARK 927      BINDING AFFINITY PREDICTED BY RF-SCORE:    0.00 PKD
ROOT
HETATM    1  C   UNL     1     -11.813  13.950  69.054  1.00  0.00    -0.397 C  
HETATM    2  C   UNL     1     -12.081  13.437  70.460  1.00  0.00    -0.323 C  
ENDROOT
BRANCH   2   3
HETATM    3  O   UNL     1     -12.065  12.003  70.447  1.00  0.00    -0.351 OA 
BRANCH   3   4
HETATM    4  C   UNL     1     -12.756  11.407  71.454  1.00  0.00    -0.384 C  
HETATM    5  O   UNL     1     -13.525  12.014  72.198  1.00  0.00    -0.476 OA 
HETATM    6  N   UNL     1     -12.601  10.018  71.464  1.00  0.00    -0.391 N  
HETATM    7  C   UNL     1     -13.539   9.212  72.102  1.00  0.00    -0.474 C  
HETATM    8  C   UNL     1     -13.246   7.922  71.911  1.00  0.00    -0.285 C  
HETATM    9  N   UNL     1     -12.091   7.825  71.169  1.00  0.00    -0.304 N  
HETATM   10  C   UNL     1     -11.611   9.139  70.869  1.00  0.00    -0.291 C  
HETATM   11  C   UNL     1     -11.462   6.573  70.815  1.00  0.00    -0.360 C  
HETATM   12  S   UNL     1     -10.209   9.515  70.055  1.00  0.00    -0.263 S  
ENDBRANCH   3   4
ENDBRANCH   2   3
TORSDOF 2
ENDMDL
MODEL       24
REMARK 921   NORMALIZED FREE ENERGY PREDICTED BY IDOCK:   -3.83 KCAL/MOL
REMARK 922        TOTAL FREE ENERGY PREDICTED BY IDOCK:   -4.37 KCAL/MOL
REMARK 923 INTER-LIGAND FREE ENERGY PREDICTED BY IDOCK:   -4.26 KCAL/MOL
REMARK 924 INTRA-LIGAND FREE ENERGY PREDICTED BY IDOCK:   -0.11 KCAL/MOL
REMARK 927      BINDING AFFINITY PREDICTED BY RF-SCORE:    0.00 PKD
ROOT
HETATM    1  C   UNL     1     -10.033  14.196  66.559  1.00  0.00    -0.289 C  
HETATM    2  C   UNL     1     -11.053  14.990  67.361  1.00  0.00    -0.324 C  
ENDROOT
BRANCH   2   3
HETATM    3  O   UNL     1     -11.767  14.096  68.225  1.00  0.00    -0.310 OA 
BRANCH   3   4
HETATM    4  C   UNL     1     -11.994  14.565  69.482  1.00  0.00    -0.319 C  
HETATM    5  O   UNL     1     -11.977  15.760  69.771  1.00  0.00    -0.352 OA 
HETATM    6  N   UNL     1     -12.380  13.557  70.370  1.00  0.00    -0.341 N  
HETATM    7  C   UNL     1     -13.066  13.875  71.537  1.00  0.00    -0.365 C  
HETATM    8  C   UNL     1     -13.414  12.761  72.188  1.00  0.00    -0.492 C  
HETATM    9  N   UNL     1     -12.945  11.668  71.496  1.00  0.00    -0.415 N  
HETATM   10  C   UNL     1     -12.249  12.111  70.327  1.00  0.00    -0.264 C  
HETATM   11  C   UNL     1     -13.105  10.302  71.941  1.00  0.00    -0.463 C  
HETATM   12  S   UNL     1     -11.455  11.149  69.227  1.00  0.00    -0.325 S  
ENDBRANCH   3   4
ENDBRANCH   2   3
TORSDOF 2
ENDMDL
MODEL       25
REMARK 921   NORMALIZED FREE ENERGY PREDICTED BY IDOCK:   -3.82 KCAL/MOL
REMARK 922        TOTAL FREE ENERGY PREDICTED BY IDOCK:   -4.36 KCAL/MOL
REMARK 923 INTER-LIGAND FREE ENERGY PREDICTED BY IDOCK:   -4.27 KCAL/MOL
REMARK 924 INTRA-LIGAND FREE ENERGY PREDICTED BY IDOCK:   -0.09 KCAL/MOL
REMARK 927      BINDING AFFINITY PREDICTED BY RF-SCORE:    0.00 PKD
ROOT
HETATM    1  C   UNL     1     -13.305  13.260  71.861  1.00  0.00    -0.540 C  
HETATM    2  C   UNL     1     -12.601  12.218  71.005  1.00  0.00    -0.257 C  
ENDROOT
BRANCH   2   3
HETATM    3  O   UNL     1     -11.832  12.884  69.995  1.00  0.00    -0.326 OA 
BRANCH   3   4
HETATM    4  C   UNL     1     -11.874  12.310  68.763  1.00  0.00    -0.306 C  
HETATM    5  O   UNL     1     -12.218  11.145  68.572  1.00  0.00    -0.600 OA 
HETATM    6  N   UNL     1     -11.613  13.221  67.735  1.00  0.00    -0.320 N  
HETATM    7  C   UNL     1     -12.033  12.951  66.437  1.00  0.00    -0.395 C  
HETATM    8  C   UNL     1     -11.764  13.989  65.639  1.00  0.00    -0.354 C  
HETATM    9  N   UNL     1     -11.129  14.968  66.369  1.00  0.00    -0.337 N  
HETATM   10  C   UNL     1     -10.980  14.527  67.722  1.00  0.00    -0.275 C  
HETATM   11  C   UNL     1     -10.654  16.213  65.809  1.00  0.00    -0.334 C  
HETATM   12  S   UNL     1     -10.211  15.347  68.948  1.00  0.00    -0.229 S  
ENDBRANCH   3   4
ENDBRANCH   2   3
TORSDOF 2
ENDMDL
MODEL       26
REMARK 921   NORMALIZED FREE ENERGY PREDICTED BY IDOCK:   -3.82 KCAL/MOL
REMARK 922        TOTAL FREE ENERGY PREDICTED BY IDOCK:   -4.36 KCAL/MOL
REMARK 923 INTER-LIGAND FREE ENERGY PREDICTED BY IDOCK:   -4.18 KCAL/MOL
REMARK 924 INTRA-LIGAND FREE ENERGY PREDICTED BY IDOCK:   -0.18 KCAL/MOL
REMARK 927      BINDING AFFINITY PREDICTED BY RF-SCORE:    0.00 PKD
ROOT
HETATM    1  C   UNL     1     -11.629  12.177  66.909  1.00  0.00    -0.408 C  
HETATM    2  C   UNL     1     -11.172  11.151  67.936  1.00  0.00    -0.302 C  
ENDROOT
BRANCH   2   3
HETATM    3  O   UNL     1     -11.112  11.774  69.226  1.00  0.00    -0.242 OA 
BRANCH   3   4
HETATM    4  C   UNL     1     -12.192  11.559  70.023  1.00  0.00    -0.278 C  
HETATM    5  O   UNL     1     -12.783  10.482  70.085  1.00  0.00    -0.287 OA 
HETATM    6  N   UNL     1     -12.471  12.646  70.857  1.00  0.00    -0.343 N  
HETATM    7  C   UNL     1     -13.220  12.467  72.016  1.00  0.00    -0.409 C  
HETATM    8  C   UNL     1     -13.287  13.610  72.704  1.00  0.00    -0.480 C  
HETATM    9  N   UNL     1     -12.614  14.593  72.015  1.00  0.00    -0.326 N  
HETATM   10  C   UNL     1     -12.084  14.044  70.805  1.00  0.00    -0.345 C  
HETATM   11  C   UNL     1     -12.524  15.968  72.453  1.00  0.00    -0.469 C  
HETATM   12  S   UNL     1     -11.259  14.874  69.623  1.00  0.00    -0.287 S  
ENDBRANCH   3   4
ENDBRANCH   2   3
TORSDOF 2
ENDMDL
MODEL       27
REMARK 921   NORMALIZED FREE ENERGY PREDICTED BY IDOCK:   -3.79 KCAL/MOL
REMARK 922        TOTAL FREE ENERGY PREDICTED BY IDOCK:   -4.33 KCAL/MOL
REMARK 923 INTER-LIGAND FREE ENERGY PREDICTED BY IDOCK:   -4.21 KCAL/MOL
REMARK 924 INTRA-LIGAND FREE ENERGY PREDICTED BY IDOCK:   -0.12 KCAL/MOL
REMARK 927      BINDING AFFINITY PREDICTED BY RF-SCORE:    0.00 PKD
ROOT
HETATM    1  C   UNL     1     -10.531   9.028  67.411  1.00  0.00    -0.338 C  
HETATM    2  C   UNL     1     -10.385  10.520  67.671  1.00  0.00    -0.217 C  
ENDROOT
BRANCH   2   3
HETATM    3  O   UNL     1     -11.686  11.122  67.682  1.00  0.00    -0.573 OA 
BRANCH   3   4
HETATM    4  C   UNL     1     -11.780  12.284  68.383  1.00  0.00    -0.337 C  
HETATM    5  O   UNL     1     -11.919  12.326  69.604  1.00  0.00    -0.306 OA 
HETATM    6  N   UNL     1     -11.568  13.412  67.586  1.00  0.00    -0.319 N  
HETATM    7  C   UNL     1     -11.188  14.619  68.165  1.00  0.00    -0.289 C  
HETATM    8  C   UNL     1     -10.952  15.533  67.220  1.00  0.00    -0.303 C  
HETATM    9  N   UNL     1     -11.195  14.977  65.984  1.00  0.00    -0.336 N  
HETATM   10  C   UNL     1     -11.618  13.621  66.150  1.00  0.00    -0.347 C  
HETATM   11  C   UNL     1     -11.081  15.701  64.737  1.00  0.00    -0.412 C  
HETATM   12  S   UNL     1     -12.088  12.578  64.942  1.00  0.00    -0.434 S  
ENDBRANCH   3   4
ENDBRANCH   2   3
TORSDOF 2
ENDMDL
MODEL       28
REMARK 921   NORMALIZED FREE ENERGY PREDICTED BY IDOCK:   -3.78 KCAL/MOL
REMARK 922        TOTAL FREE ENERGY PREDICTED BY IDOCK:   -4.32 KCAL/MOL
REMARK 923 INTER-LIGAND FREE ENERGY PREDICTED BY IDOCK:   -4.27 KCAL/MOL
REMARK 924 INTRA-LIGAND FREE ENERGY PREDICTED BY IDOCK:   -0.05 KCAL/MOL
REMARK 927      BINDING AFFINITY PREDICTED BY RF-SCORE:    0.00 PKD
ROOT
HETATM    1  C   UNL     1     -12.300  15.693  73.590  1.00  0.00    -0.692 C  
HETATM    2  C   UNL     1     -11.755  15.831  72.176  1.00  0.00    -0.475 C  
ENDROOT
BRANCH   2   3
HETATM    3  O   UNL     1     -12.799  15.533  71.240  1.00  0.00    -0.415 OA 
BRANCH   3   4
HETATM    4  C   UNL     1     -12.378  15.114  70.017  1.00  0.00    -0.315 C  
HETATM    5  O   UNL     1     -12.118  15.881  69.092  1.00  0.00    -0.339 OA 
HETATM    6  N   UNL     1     -12.148  13.736  69.971  1.00  0.00    -0.333 N  
HETATM    7  C   UNL     1     -11.319  13.196  68.993  1.00  0.00    -0.282 C  
HETATM    8  C   UNL     1     -11.166  11.883  69.189  1.00  0.00    -0.255 C  
HETATM    9  N   UNL     1     -11.911  11.500  70.281  1.00  0.00    -0.350 N  
HETATM   10  C   UNL     1     -12.586  12.641  70.817  1.00  0.00    -0.217 C  
HETATM   11  C   UNL     1     -12.011  10.136  70.751  1.00  0.00    -0.348 C  
HETATM   12  S   UNL     1     -13.652  12.647  72.095  1.00  0.00    -0.244 S  
ENDBRANCH   3   4
ENDBRANCH   2   3
TORSDOF 2
ENDMDL
MODEL       29
REMARK 921   NORMALIZED FREE ENERGY PREDICTED BY IDOCK:   -3.76 KCAL/MOL
REMARK 922        TOTAL FREE ENERGY PREDICTED BY IDOCK:   -4.30 KCAL/MOL
REMARK 923 INTER-LIGAND FREE ENERGY PREDICTED BY IDOCK:   -4.20 KCAL/MOL
REMARK 924 INTRA-LIGAND FREE ENERGY PREDICTED BY IDOCK:   -0.09 KCAL/MOL
REMARK 927      BINDING AFFINITY PREDICTED BY RF-SCORE:    0.00 PKD
ROOT
HETATM    1  C   UNL     1     -12.286   8.512  72.315  1.00  0.00    -0.454 C  
HETATM    2  C   UNL     1     -13.150   9.724  71.998  1.00  0.00    -0.452 C  
ENDROOT
BRANCH   2   3
HETATM    3  O   UNL     1     -12.359  10.693  71.297  1.00  0.00    -0.360 OA 
BRANCH   3   4
HETATM    4  C   UNL     1     -12.817  11.971  71.364  1.00  0.00    -0.288 C  
HETATM    5  O   UNL     1     -13.561  12.377  72.256  1.00  0.00    -0.504 OA 
HETATM    6  N   UNL     1     -12.247  12.799  70.393  1.00  0.00    -0.338 N  
HETATM    7  C   UNL     1     -12.237  14.179  70.566  1.00  0.00    -0.361 C  
HETATM    8  C   UNL     1     -11.566  14.765  69.570  1.00  0.00    -0.304 C  
HETATM    9  N   UNL     1     -11.136  13.801  68.686  1.00  0.00    -0.256 N  
HETATM   10  C   UNL     1     -11.561  12.515  69.145  1.00  0.00    -0.320 C  
HETATM   11  C   UNL     1     -10.414  14.089  67.467  1.00  0.00    -0.252 C  
HETATM   12  S   UNL     1     -11.331  11.064  68.366  1.00  0.00    -0.311 S  
ENDBRANCH   3   4
ENDBRANCH   2   3
TORSDOF 2
ENDMDL
MODEL       30
REMARK 921   NORMALIZED FREE ENERGY PREDICTED BY IDOCK:   -3.76 KCAL/MOL
REMARK 922        TOTAL FREE ENERGY PREDICTED BY IDOCK:   -4.29 KCAL/MOL
REMARK 923 INTER-LIGAND FREE ENERGY PREDICTED BY IDOCK:   -4.17 KCAL/MOL
REMARK 924 INTRA-LIGAND FREE ENERGY PREDICTED BY IDOCK:   -0.12 KCAL/MOL
REMARK 927      BINDING AFFINITY PREDICTED BY RF-SCORE:    0.00 PKD
ROOT
HETATM    1  C   UNL     1     -10.560  11.253  66.573  1.00  0.00    -0.315 C  
HETATM    2  C   UNL     1     -11.582  12.360  66.360  1.00  0.00    -0.384 C  
ENDROOT
BRANCH   2   3
HETATM    3  O   UNL     1     -12.044  12.822  67.635  1.00  0.00    -0.330 OA 
BRANCH   3   4
HETATM    4  C   UNL     1     -11.601  14.056  67.999  1.00  0.00    -0.337 C  
HETATM    5  O   UNL     1     -11.076  14.843  67.214  1.00  0.00    -0.317 OA 
HETATM    6  N   UNL     1     -11.928  14.377  69.319  1.00  0.00    -0.322 N  
HETATM    7  C   UNL     1     -11.965  15.706  69.729  1.00  0.00    -0.354 C  
HETATM    8  C   UNL     1     -12.386  15.789  70.995  1.00  0.00    -0.415 C  
HETATM    9  N   UNL     1     -12.614  14.520  71.479  1.00  0.00    -0.329 N  
HETATM   10  C   UNL     1     -12.315  13.563  70.458  1.00  0.00    -0.342 C  
HETATM   11  C   UNL     1     -13.037  14.237  72.832  1.00  0.00    -0.491 C  
HETATM   12  S   UNL     1     -12.375  11.908  70.609  1.00  0.00    -0.236 S  
ENDBRANCH   3   4
ENDBRANCH   2   3
TORSDOF 2
ENDMDL
MODEL       31
REMARK 921   NORMALIZED FREE ENERGY PREDICTED BY IDOCK:   -3.75 KCAL/MOL
REMARK 922        TOTAL FREE ENERGY PREDICTED BY IDOCK:   -4.28 KCAL/MOL
REMARK 923 INTER-LIGAND FREE ENERGY PREDICTED BY IDOCK:   -4.37 KCAL/MOL
REMARK 924 INTRA-LIGAND FREE ENERGY PREDICTED BY IDOCK:    0.09 KCAL/MOL
REMARK 927      BINDING AFFINITY PREDICTED BY RF-SCORE:    0.00 PKD
ROOT
HETATM    1  C   UNL     1     -10.377  19.946  66.666  1.00  0.00    -0.608 C  
HETATM    2  C   UNL     1     -10.832  18.762  67.506  1.00  0.00    -0.331 C  
ENDROOT
BRANCH   2   3
HETATM    3  O   UNL     1     -10.014  17.626  67.196  1.00  0.00    -0.294 OA 
BRANCH   3   4
HETATM    4  C   UNL     1     -10.510  16.800  66.236  1.00  0.00    -0.261 C  
HETATM    5  O   UNL     1     -10.542  17.094  65.042  1.00  0.00    -0.704 OA 
HETATM    6  N   UNL     1     -10.853  15.540  66.735  1.00  0.00    -0.310 N  
HETATM    7  C   UNL     1     -10.949  14.449  65.877  1.00  0.00    -0.312 C  
HETATM    8  C   UNL     1     -11.196  13.335  66.572  1.00  0.00    -0.304 C  
HETATM    9  N   UNL     1     -11.304  13.650  67.908  1.00  0.00    -0.280 N  
HETATM   10  C   UNL     1     -11.117  15.058  68.079  1.00  0.00    -0.300 C  
HETATM   11  C   UNL     1     -11.612  12.687  68.941  1.00  0.00    -0.317 C  
HETATM   12  S   UNL     1     -11.228  15.902  69.507  1.00  0.00    -0.348 S  
ENDBRANCH   3   4
ENDBRANCH   2   3
TORSDOF 2
ENDMDL
MODEL       32
REMARK 921   NORMALIZED FREE ENERGY PREDICTED BY IDOCK:   -3.73 KCAL/MOL
REMARK 922        TOTAL FREE ENERGY PREDICTED BY IDOCK:   -4.26 KCAL/MOL
REMARK 923 INTER-LIGAND FREE ENERGY PREDICTED BY IDOCK:   -4.16 KCAL/MOL
REMARK 924 INTRA-LIGAND FREE ENERGY PREDICTED BY IDOCK:   -0.11 KCAL/MOL
REMARK 927      BINDING AFFINITY PREDICTED BY RF-SCORE:    0.00 PKD
ROOT
HETATM    1  C   UNL     1      -7.006  17.552  66.503  1.00  0.00    -0.288 C  
HETATM    2  C   UNL     1      -7.982  16.419  66.222  1.00  0.00    -0.229 C  
ENDROOT
BRANCH   2   3
HETATM    3  O   UNL     1      -9.276  16.973  65.953  1.00  0.00    -0.504 OA 
BRANCH   3   4
HETATM    4  C   UNL     1     -10.292  16.070  65.900  1.00  0.00    -0.368 C  
HETATM    5  O   UNL     1     -10.603  15.461  64.878  1.00  0.00    -0.416 OA 
HETATM    6  N   UNL     1     -10.851  15.816  67.156  1.00  0.00    -0.315 N  
HETATM    7  C   UNL     1     -11.565  14.643  67.381  1.00  0.00    -0.389 C  
HETATM    8  C   UNL     1     -11.928  14.562  68.665  1.00  0.00    -0.285 C  
HETATM    9  N   UNL     1     -11.497  15.688  69.329  1.00  0.00    -0.336 N  
HETATM   10  C   UNL     1     -10.817  16.547  68.410  1.00  0.00    -0.348 C  
HETATM   11  C   UNL     1     -11.758  15.950  70.726  1.00  0.00    -0.401 C  
HETATM   12  S   UNL     1     -10.187  18.050  68.745  1.00  0.00    -0.278 S  
ENDBRANCH   3   4
ENDBRANCH   2   3
TORSDOF 2
ENDMDL
MODEL       33
REMARK 921   NORMALIZED FREE ENERGY PREDICTED BY IDOCK:   -3.73 KCAL/MOL
REMARK 922        TOTAL FREE ENERGY PREDICTED BY IDOCK:   -4.26 KCAL/MOL
REMARK 923 INTER-LIGAND FREE ENERGY PREDICTED BY IDOCK:   -4.11 KCAL/MOL
REMARK 924 INTRA-LIGAND FREE ENERGY PREDICTED BY IDOCK:   -0.15 KCAL/MOL
REMARK 927      BINDING AFFINITY PREDICTED BY RF-SCORE:    0.00 PKD
ROOT
HETATM    1  C   UNL     1      -7.774  19.200  68.815  1.00  0.00    -0.390 C  
HETATM    2  C   UNL     1      -8.204  17.863  68.230  1.00  0.00    -0.290 C  
ENDROOT
BRANCH   2   3
HETATM    3  O   UNL     1      -9.620  17.882  68.009  1.00  0.00    -0.272 OA 
BRANCH   3   4
HETATM    4  C   UNL     1     -10.005  17.776  66.709  1.00  0.00    -0.333 C  
HETATM    5  O   UNL     1      -9.741  18.620  65.855  1.00  0.00    -0.498 OA 
HETATM    6  N   UNL     1     -10.611  16.549  66.426  1.00  0.00    -0.266 N  
HETATM    7  C   UNL     1     -10.666  16.079  65.117  1.00  0.00    -0.409 C  
HETATM    8  C   UNL     1     -11.202  14.856  65.087  1.00  0.00    -0.386 C  
HETATM    9  N   UNL     1     -11.550  14.483  66.365  1.00  0.00    -0.365 N  
HETATM   10  C   UNL     1     -11.218  15.538  67.273  1.00  0.00    -0.226 C  
HETATM   11  C   UNL     1     -12.198  13.232  66.693  1.00  0.00    -0.298 C  
HETATM   12  S   UNL     1     -11.519  15.564  68.908  1.00  0.00    -0.372 S  
ENDBRANCH   3   4
ENDBRANCH   2   3
TORSDOF 2
ENDMDL
MODEL       34
REMARK 921   NORMALIZED FREE ENERGY PREDICTED BY IDOCK:   -3.69 KCAL/MOL
REMARK 922        TOTAL FREE ENERGY PREDICTED BY IDOCK:   -4.21 KCAL/MOL
REMARK 923 INTER-LIGAND FREE ENERGY PREDICTED BY IDOCK:   -4.06 KCAL/MOL
REMARK 924 INTRA-LIGAND FREE ENERGY PREDICTED BY IDOCK:   -0.15 KCAL/MOL
REMARK 927      BINDING AFFINITY PREDICTED BY RF-SCORE:    0.00 PKD
ROOT
HETATM    1  C   UNL     1      -9.649  10.111  64.629  1.00  0.00    -0.379 C  
HETATM    2  C   UNL     1     -10.304  11.368  64.073  1.00  0.00    -0.362 C  
ENDROOT
BRANCH   2   3
HETATM    3  O   UNL     1     -11.137  11.948  65.085  1.00  0.00    -0.305 OA 
BRANCH   3   4
HETATM    4  C   UNL     1     -10.844  13.237  65.406  1.00  0.00    -0.291 C  
HETATM    5  O   UNL     1     -10.449  14.064  64.587  1.00  0.00    -0.434 OA 
HETATM    6  N   UNL     1     -11.169  13.549  66.729  1.00  0.00    -0.303 N  
HETATM    7  C   UNL     1     -11.363  14.872  67.111  1.00  0.00    -0.343 C  
HETATM    8  C   UNL     1     -11.751  14.934  68.388  1.00  0.00    -0.309 C  
HETATM    9  N   UNL     1     -11.799  13.660  68.907  1.00  0.00    -0.346 N  
HETATM   10  C   UNL     1     -11.413  12.722  67.898  1.00  0.00    -0.317 C  
HETATM   11  C   UNL     1     -12.140  13.361  70.280  1.00  0.00    -0.349 C  
HETATM   12  S   UNL     1     -11.255  11.077  68.088  1.00  0.00    -0.320 S  
ENDBRANCH   3   4
ENDBRANCH   2   3
TORSDOF 2
ENDMDL
MODEL       35
REMARK 921   NORMALIZED FREE ENERGY PREDICTED BY IDOCK:   -3.66 KCAL/MOL
REMARK 922        TOTAL FREE ENERGY PREDICTED BY IDOCK:   -4.18 KCAL/MOL
REMARK 923 INTER-LIGAND FREE ENERGY PREDICTED BY IDOCK:   -4.03 KCAL/MOL
REMARK 924 INTRA-LIGAND FREE ENERGY PREDICTED BY IDOCK:   -0.15 KCAL/MOL
REMARK 927      BINDING AFFINITY PREDICTED BY RF-SCORE:    0.00 PKD
ROOT
HETATM    1  C   UNL     1     -12.207  14.157  71.005  1.00  0.00    -0.432 C  
HETATM    2  C   UNL     1     -11.291  15.306  70.609  1.00  0.00    -0.313 C  
ENDROOT
BRANCH   2   3
HETATM    3  O   UNL     1     -10.642  14.982  69.373  1.00  0.00    -0.241 OA 
BRANCH   3   4
HETATM    4  C   UNL     1     -10.816  15.888  68.373  1.00  0.00    -0.316 C  
HETATM    5  O   UNL     1     -10.825  17.104  68.557  1.00  0.00    -0.349 OA 
HETATM    6  N   UNL     1     -10.848  15.293  67.108  1.00  0.00    -0.318 N  
HETATM    7  C   UNL     1     -10.575  16.048  65.972  1.00  0.00    -0.316 C  
HETATM    8  C   UNL     1     -10.572  15.267  64.888  1.00  0.00    -0.351 C  
HETATM    9  N   UNL     1     -10.871  13.976  65.260  1.00  0.00    -0.327 N  
HETATM   10  C   UNL     1     -11.084  13.928  66.674  1.00  0.00    -0.306 C  
HETATM   11  C   UNL     1     -10.995  12.876  64.330  1.00  0.00    -0.388 C  
HETATM   12  S   UNL     1     -11.537  12.595  67.559  1.00  0.00    -0.368 S  
ENDBRANCH   3   4
ENDBRANCH   2   3
TORSDOF 2
ENDMDL
MODEL       36
REMARK 921   NORMALIZED FREE ENERGY PREDICTED BY IDOCK:   -3.63 KCAL/MOL
REMARK 922        TOTAL FREE ENERGY PREDICTED BY IDOCK:   -4.15 KCAL/MOL
REMARK 923 INTER-LIGAND FREE ENERGY PREDICTED BY IDOCK:   -4.05 KCAL/MOL
REMARK 924 INTRA-LIGAND FREE ENERGY PREDICTED BY IDOCK:   -0.10 KCAL/MOL
REMARK 927      BINDING AFFINITY PREDICTED BY RF-SCORE:    0.00 PKD
ROOT
HETATM    1  C   UNL     1     -12.425  10.009  70.969  1.00  0.00    -0.460 C  
HETATM    2  C   UNL     1     -11.550  10.968  70.176  1.00  0.00    -0.334 C  
ENDROOT
BRANCH   2   3
HETATM    3  O   UNL     1     -12.098  11.125  68.861  1.00  0.00    -0.475 OA 
BRANCH   3   4
HETATM    4  C   UNL     1     -11.272  10.765  67.843  1.00  0.00    -0.318 C  
HETATM    5  O   UNL     1     -10.874   9.614  67.671  1.00  0.00    -0.282 OA 
HETATM    6  N   UNL     1     -11.037  11.810  66.945  1.00  0.00    -0.292 N  
HETATM    7  C   UNL     1     -10.607  11.539  65.651  1.00  0.00    -0.274 C  
HETATM    8  C   UNL     1     -10.534  12.669  64.941  1.00  0.00    -0.309 C  
HETATM    9  N   UNL     1     -10.882  13.731  65.745  1.00  0.00    -0.275 N  
HETATM   10  C   UNL     1     -11.194  13.249  67.056  1.00  0.00    -0.292 C  
HETATM   11  C   UNL     1     -10.870  15.110  65.311  1.00  0.00    -0.400 C  
HETATM   12  S   UNL     1     -11.599  14.175  68.377  1.00  0.00    -0.338 S  
ENDBRANCH   3   4
ENDBRANCH   2   3
TORSDOF 2
ENDMDL
MODEL       37
REMARK 921   NORMALIZED FREE ENERGY PREDICTED BY IDOCK:   -3.61 KCAL/MOL
REMARK 922        TOTAL FREE ENERGY PREDICTED BY IDOCK:   -4.12 KCAL/MOL
REMARK 923 INTER-LIGAND FREE ENERGY PREDICTED BY IDOCK:   -3.99 KCAL/MOL
REMARK 924 INTRA-LIGAND FREE ENERGY PREDICTED BY IDOCK:   -0.13 KCAL/MOL
REMARK 927      BINDING AFFINITY PREDICTED BY RF-SCORE:    0.00 PKD
ROOT
HETATM    1  C   UNL     1     -11.454  10.925  69.161  1.00  0.00    -0.373 C  
HETATM    2  C   UNL     1     -11.479  11.007  67.642  1.00  0.00    -0.224 C  
ENDROOT
BRANCH   2   3
HETATM    3  O   UNL     1     -11.889  12.324  67.251  1.00  0.00    -0.500 OA 
BRANCH   3   4
HETATM    4  C   UNL     1     -11.164  12.880  66.243  1.00  0.00    -0.301 C  
HETATM    5  O   UNL     1     -10.861  12.277  65.216  1.00  0.00    -0.276 OA 
HETATM    6  N   UNL     1     -10.919  14.242  66.445  1.00  0.00    -0.307 N  
HETATM    7  C   UNL     1     -10.602  15.064  65.369  1.00  0.00    -0.380 C  
HETATM    8  C   UNL     1     -10.499  16.334  65.771  1.00  0.00    -0.364 C  
HETATM    9  N   UNL     1     -10.714  16.397  67.129  1.00  0.00    -0.279 N  
HETATM   10  C   UNL     1     -10.967  15.081  67.629  1.00  0.00    -0.305 C  
HETATM   11  C   UNL     1     -10.635  17.615  67.903  1.00  0.00    -0.387 C  
HETATM   12  S   UNL     1     -11.211  14.659  69.220  1.00  0.00    -0.295 S  
ENDBRANCH   3   4
ENDBRANCH   2   3
TORSDOF 2
ENDMDL
MODEL       38
REMARK 921   NORMALIZED FREE ENERGY PREDICTED BY IDOCK:   -3.59 KCAL/MOL
REMARK 922        TOTAL FREE ENERGY PREDICTED BY IDOCK:   -4.11 KCAL/MOL
REMARK 923 INTER-LIGAND FREE ENERGY PREDICTED BY IDOCK:   -3.90 KCAL/MOL
REMARK 924 INTRA-LIGAND FREE ENERGY PREDICTED BY IDOCK:   -0.21 KCAL/MOL
REMARK 927      BINDING AFFINITY PREDICTED BY RF-SCORE:    0.00 PKD
ROOT
HETATM    1  C   UNL     1     -11.333  15.977  68.916  1.00  0.00    -0.370 C  
HETATM    2  C   UNL     1     -11.177  15.463  67.492  1.00  0.00    -0.302 C  
ENDROOT
BRANCH   2   3
HETATM    3  O   UNL     1      -9.909  15.887  66.977  1.00  0.00    -0.226 OA 
BRANCH   3   4
HETATM    4  C   UNL     1      -9.932  17.044  66.262  1.00  0.00    -0.310 C  
HETATM    5  O   UNL     1     -10.643  17.213  65.273  1.00  0.00    -0.662 OA 
HETATM    6  N   UNL     1      -9.165  18.055  66.848  1.00  0.00    -0.262 N  
HETATM    7  C   UNL     1      -9.406  19.388  66.536  1.00  0.00    -0.359 C  
HETATM    8  C   UNL     1      -8.626  20.185  67.273  1.00  0.00    -0.343 C  
HETATM    9  N   UNL     1      -7.820  19.410  68.076  1.00  0.00    -0.293 N  
HETATM   10  C   UNL     1      -8.100  18.028  67.835  1.00  0.00    -0.243 C  
HETATM   11  C   UNL     1      -6.821  19.946  68.973  1.00  0.00    -0.308 C  
HETATM   12  S   UNL     1      -7.323  16.729  68.525  1.00  0.00    -0.217 S  
ENDBRANCH   3   4
ENDBRANCH   2   3
TORSDOF 2
ENDMDL
MODEL       39
REMARK 921   NORMALIZED FREE ENERGY PREDICTED BY IDOCK:   -3.53 KCAL/MOL
REMARK 922        TOTAL FREE ENERGY PREDICTED BY IDOCK:   -4.03 KCAL/MOL
REMARK 923 INTER-LIGAND FREE ENERGY PREDICTED BY IDOCK:   -3.88 KCAL/MOL
REMARK 924 INTRA-LIGAND FREE ENERGY PREDICTED BY IDOCK:   -0.15 KCAL/MOL
REMARK 927      BINDING AFFINITY PREDICTED BY RF-SCORE:    0.00 PKD
ROOT
HETATM    1  C   UNL     1     -10.562  17.169  67.760  1.00  0.00    -0.360 C  
HETATM    2  C   UNL     1      -9.907  15.820  67.501  1.00  0.00    -0.229 C  
ENDROOT
BRANCH   2   3
HETATM    3  O   UNL     1     -10.093  14.981  68.647  1.00  0.00    -0.219 OA 
BRANCH   3   4
HETATM    4  C   UNL     1     -10.580  13.739  68.382  1.00  0.00    -0.253 C  
HETATM    5  O   UNL     1     -10.226  13.066  67.415  1.00  0.00    -0.228 OA 
HETATM    6  N   UNL     1     -11.418  13.262  69.394  1.00  0.00    -0.273 N  
HETATM    7  C   UNL     1     -11.647  11.896  69.529  1.00  0.00    -0.327 C  
HETATM    8  C   UNL     1     -12.399  11.658  70.608  1.00  0.00    -0.344 C  
HETATM    9  N   UNL     1     -12.719  12.854  71.209  1.00  0.00    -0.340 N  
HETATM   10  C   UNL     1     -12.139  13.928  70.464  1.00  0.00    -0.356 C  
HETATM   11  C   UNL     1     -13.560  12.969  72.379  1.00  0.00    -0.529 C  
HETATM   12  S   UNL     1     -12.317  15.553  70.773  1.00  0.00    -0.426 S  
ENDBRANCH   3   4
ENDBRANCH   2   3
TORSDOF 2
ENDMDL
MODEL       40
REMARK 921   NORMALIZED FREE ENERGY PREDICTED BY IDOCK:   -3.52 KCAL/MOL
REMARK 922        TOTAL FREE ENERGY PREDICTED BY IDOCK:   -4.03 KCAL/MOL
REMARK 923 INTER-LIGAND FREE ENERGY PREDICTED BY IDOCK:   -3.87 KCAL/MOL
REMARK 924 INTRA-LIGAND FREE ENERGY PREDICTED BY IDOCK:   -0.16 KCAL/MOL
REMARK 927      BINDING AFFINITY PREDICTED BY RF-SCORE:    0.00 PKD
ROOT
HETATM    1  C   UNL     1     -10.202  12.705  65.305  1.00  0.00    -0.302 C  
HETATM    2  C   UNL     1     -11.463  13.137  66.039  1.00  0.00    -0.335 C  
ENDROOT
BRANCH   2   3
HETATM    3  O   UNL     1     -11.874  12.086  66.922  1.00  0.00    -0.580 OA 
BRANCH   3   4
HETATM    4  C   UNL     1     -11.844  12.397  68.246  1.00  0.00    -0.309 C  
HETATM    5  O   UNL     1     -12.127  13.510  68.685  1.00  0.00    -0.352 OA 
HETATM    6  N   UNL     1     -11.590  11.285  69.054  1.00  0.00    -0.289 N  
HETATM    7  C   UNL     1     -11.950  11.298  70.398  1.00  0.00    -0.380 C  
HETATM    8  C   UNL     1     -11.700  10.110  70.955  1.00  0.00    -0.382 C  
HETATM    9  N   UNL     1     -11.139   9.278  70.013  1.00  0.00    -0.229 N  
HETATM   10  C   UNL     1     -11.018   9.980  68.773  1.00  0.00    -0.202 C  
HETATM   11  C   UNL     1     -10.702   7.927  70.287  1.00  0.00    -0.236 C  
HETATM   12  S   UNL     1     -10.333   9.400  67.373  1.00  0.00    -0.272 S  
ENDBRANCH   3   4
ENDBRANCH   2   3
TORSDOF 2
ENDMDL
MODEL       41
REMARK 921   NORMALIZED FREE ENERGY PREDICTED BY IDOCK:   -3.52 KCAL/MOL
REMARK 922        TOTAL FREE ENERGY PREDICTED BY IDOCK:   -4.02 KCAL/MOL
REMARK 923 INTER-LIGAND FREE ENERGY PREDICTED BY IDOCK:   -3.91 KCAL/MOL
REMARK 924 INTRA-LIGAND FREE ENERGY PREDICTED BY IDOCK:   -0.11 KCAL/MOL
REMARK 927      BINDING AFFINITY PREDICTED BY RF-SCORE:    0.00 PKD
ROOT
HETATM    1  C   UNL     1     -11.627  15.581  71.413  1.00  0.00    -0.481 C  
HETATM    2  C   UNL     1     -12.719  14.708  70.811  1.00  0.00    -0.359 C  
ENDROOT
BRANCH   2   3
HETATM    3  O   UNL     1     -12.332  14.323  69.486  1.00  0.00    -0.318 OA 
BRANCH   3   4
HETATM    4  C   UNL     1     -11.854  13.055  69.368  1.00  0.00    -0.322 C  
HETATM    5  O   UNL     1     -11.914  12.223  70.271  1.00  0.00    -0.344 OA 
HETATM    6  N   UNL     1     -11.414  12.765  68.073  1.00  0.00    -0.296 N  
HETATM    7  C   UNL     1     -11.314  11.445  67.646  1.00  0.00    -0.290 C  
HETATM    8  C   UNL     1     -10.964  11.401  66.357  1.00  0.00    -0.260 C  
HETATM    9  N   UNL     1     -10.790  12.684  65.892  1.00  0.00    -0.265 N  
HETATM   10  C   UNL     1     -11.041  13.610  66.953  1.00  0.00    -0.304 C  
HETATM   11  C   UNL     1     -10.366  13.005  64.547  1.00  0.00    -0.364 C  
HETATM   12  S   UNL     1     -10.885  15.264  66.877  1.00  0.00    -0.309 S  
ENDBRANCH   3   4
ENDBRANCH   2   3
TORSDOF 2
ENDMDL
MODEL       42
REMARK 921   NORMALIZED FREE ENERGY PREDICTED BY IDOCK:   -3.52 KCAL/MOL
REMARK 922        TOTAL FREE ENERGY PREDICTED BY IDOCK:   -4.02 KCAL/MOL
REMARK 923 INTER-LIGAND FREE ENERGY PREDICTED BY IDOCK:   -3.88 KCAL/MOL
REMARK 924 INTRA-LIGAND FREE ENERGY PREDICTED BY IDOCK:   -0.14 KCAL/MOL
REMARK 927      BINDING AFFINITY PREDICTED BY RF-SCORE:    0.00 PKD
ROOT
HETATM    1  C   UNL     1     -13.727  13.368  72.270  1.00  0.00    -0.705 C  
HETATM    2  C   UNL     1     -12.955  14.209  71.263  1.00  0.00    -0.356 C  
ENDROOT
BRANCH   2   3
HETATM    3  O   UNL     1     -11.962  13.389  70.633  1.00  0.00    -0.316 OA 
BRANCH   3   4
HETATM    4  C   UNL     1     -11.920  13.472  69.276  1.00  0.00    -0.330 C  
HETATM    5  O   UNL     1     -12.126  14.514  68.656  1.00  0.00    -0.296 OA 
HETATM    6  N   UNL     1     -11.488  12.285  68.678  1.00  0.00    -0.281 N  
HETATM    7  C   UNL     1     -10.963  12.300  67.389  1.00  0.00    -0.253 C  
HETATM    8  C   UNL     1     -10.532  11.081  67.051  1.00  0.00    -0.240 C  
HETATM    9  N   UNL     1     -10.781  10.210  68.088  1.00  0.00    -0.226 N  
HETATM   10  C   UNL     1     -11.417  10.916  69.157  1.00  0.00    -0.303 C  
HETATM   11  C   UNL     1     -10.481   8.796  68.044  1.00  0.00    -0.204 C  
HETATM   12  S   UNL     1     -11.967  10.261  70.583  1.00  0.00    -0.367 S  
ENDBRANCH   3   4
ENDBRANCH   2   3
TORSDOF 2
ENDMDL
MODEL       43
REMARK 921   NORMALIZED FREE ENERGY PREDICTED BY IDOCK:   -3.51 KCAL/MOL
REMARK 922        TOTAL FREE ENERGY PREDICTED BY IDOCK:   -4.01 KCAL/MOL
REMARK 923 INTER-LIGAND FREE ENERGY PREDICTED BY IDOCK:   -3.86 KCAL/MOL
REMARK 924 INTRA-LIGAND FREE ENERGY PREDICTED BY IDOCK:   -0.16 KCAL/MOL
REMARK 927      BINDING AFFINITY PREDICTED BY RF-SCORE:    0.00 PKD
ROOT
HETATM    1  C   UNL     1     -11.735  12.445  63.432  1.00  0.00    -0.554 C  
HETATM    2  C   UNL     1     -10.568  11.604  63.929  1.00  0.00    -0.391 C  
ENDROOT
BRANCH   2   3
HETATM    3  O   UNL     1     -10.311  11.925  65.301  1.00  0.00    -0.255 OA 
BRANCH   3   4
HETATM    4  C   UNL     1     -10.626  10.948  66.194  1.00  0.00    -0.206 C  
HETATM    5  O   UNL     1     -10.400   9.755  65.998  1.00  0.00    -0.221 OA 
HETATM    6  N   UNL     1     -11.109  11.459  67.402  1.00  0.00    -0.272 N  
HETATM    7  C   UNL     1     -11.064  10.686  68.558  1.00  0.00    -0.263 C  
HETATM    8  C   UNL     1     -11.488  11.396  69.607  1.00  0.00    -0.309 C  
HETATM    9  N   UNL     1     -11.858  12.652  69.182  1.00  0.00    -0.307 N  
HETATM   10  C   UNL     1     -11.661  12.751  67.768  1.00  0.00    -0.359 C  
HETATM   11  C   UNL     1     -12.407  13.669  70.051  1.00  0.00    -0.278 C  
HETATM   12  S   UNL     1     -12.036  14.056  66.808  1.00  0.00    -0.445 S  
ENDBRANCH   3   4
ENDBRANCH   2   3
TORSDOF 2
ENDMDL
MODEL       44
REMARK 921   NORMALIZED FREE ENERGY PREDICTED BY IDOCK:   -3.50 KCAL/MOL
REMARK 922        TOTAL FREE ENERGY PREDICTED BY IDOCK:   -4.01 KCAL/MOL
REMARK 923 INTER-LIGAND FREE ENERGY PREDICTED BY IDOCK:   -3.86 KCAL/MOL
REMARK 924 INTRA-LIGAND FREE ENERGY PREDICTED BY IDOCK:   -0.15 KCAL/MOL
REMARK 927      BINDING AFFINITY PREDICTED BY RF-SCORE:    0.00 PKD
ROOT
HETATM    1  C   UNL     1     -11.089  10.448  69.836  1.00  0.00    -0.367 C  
HETATM    2  C   UNL     1     -11.782  11.505  68.990  1.00  0.00    -0.335 C  
ENDROOT
BRANCH   2   3
HETATM    3  O   UNL     1     -10.877  11.959  67.975  1.00  0.00    -0.198 OA 
BRANCH   3   4
HETATM    4  C   UNL     1     -11.462  12.578  66.914  1.00  0.00    -0.353 C  
HETATM    5  O   UNL     1     -12.221  13.538  67.026  1.00  0.00    -0.372 OA 
HETATM    6  N   UNL     1     -11.002  12.091  65.687  1.00  0.00    -0.288 N  
HETATM    7  C   UNL     1     -11.127  12.861  64.535  1.00  0.00    -0.342 C  
HETATM    8  C   UNL     1     -10.544  12.247  63.502  1.00  0.00    -0.448 C  
HETATM    9  N   UNL     1     -10.039  11.038  63.921  1.00  0.00    -0.326 N  
HETATM   10  C   UNL     1     -10.320  10.865  65.313  1.00  0.00    -0.268 C  
HETATM   11  C   UNL     1      -9.379  10.092  63.049  1.00  0.00    -0.299 C  
HETATM   12  S   UNL     1      -9.963   9.526  66.233  1.00  0.00    -0.259 S  
ENDBRANCH   3   4
ENDBRANCH   2   3
TORSDOF 2
ENDMDL
MODEL       45
REMARK 921   NORMALIZED FREE ENERGY PREDICTED BY IDOCK:   -3.50 KCAL/MOL
REMARK 922        TOTAL FREE ENERGY PREDICTED BY IDOCK:   -4.00 KCAL/MOL
REMARK 923 INTER-LIGAND FREE ENERGY PREDICTED BY IDOCK:   -3.87 KCAL/MOL
REMARK 924 INTRA-LIGAND FREE ENERGY PREDICTED BY IDOCK:   -0.13 KCAL/MOL
REMARK 927      BINDING AFFINITY PREDICTED BY RF-SCORE:    0.00 PKD
ROOT
HETATM    1  C   UNL     1     -10.489  10.466  66.625  1.00  0.00    -0.279 C  
HETATM    2  C   UNL     1     -11.038  11.657  67.396  1.00  0.00    -0.281 C  
ENDROOT
BRANCH   2   3
HETATM    3  O   UNL     1     -10.634  11.554  68.767  1.00  0.00    -0.200 OA 
BRANCH   3   4
HETATM    4  C   UNL     1     -11.589  11.883  69.678  1.00  0.00    -0.317 C  
HETATM    5  O   UNL     1     -12.250  12.918  69.621  1.00  0.00    -0.245 OA 
HETATM    6  N   UNL     1     -11.825  10.860  70.602  1.00  0.00    -0.347 N  
HETATM    7  C   UNL     1     -13.024  10.816  71.306  1.00  0.00    -0.402 C  
HETATM    8  C   UNL     1     -13.077   9.714  72.061  1.00  0.00    -0.445 C  
HETATM    9  N   UNL     1     -11.906   9.006  71.908  1.00  0.00    -0.365 N  
HETATM   10  C   UNL     1     -11.047   9.701  71.000  1.00  0.00    -0.368 C  
HETATM   11  C   UNL     1     -11.607   7.781  72.615  1.00  0.00    -0.344 C  
HETATM   12  S   UNL     1      -9.503   9.259  70.568  1.00  0.00    -0.274 S  
ENDBRANCH   3   4
ENDBRANCH   2   3
TORSDOF 2
ENDMDL
MODEL       46
REMARK 921   NORMALIZED FREE ENERGY PREDICTED BY IDOCK:   -3.50 KCAL/MOL
REMARK 922        TOTAL FREE ENERGY PREDICTED BY IDOCK:   -4.00 KCAL/MOL
REMARK 923 INTER-LIGAND FREE ENERGY PREDICTED BY IDOCK:   -3.82 KCAL/MOL
REMARK 924 INTRA-LIGAND FREE ENERGY PREDICTED BY IDOCK:   -0.18 KCAL/MOL
REMARK 927      BINDING AFFINITY PREDICTED BY RF-SCORE:    0.00 PKD
ROOT
HETATM    1  C   UNL     1     -12.318  12.619  65.212  1.00  0.00    -0.528 C  
HETATM    2  C   UNL     1     -10.940  12.083  65.571  1.00  0.00    -0.298 C  
ENDROOT
BRANCH   2   3
HETATM    3  O   UNL     1     -10.190  13.116  66.221  1.00  0.00    -0.280 OA 
BRANCH   3   4
HETATM    4  C   UNL     1     -10.614  13.441  67.471  1.00  0.00    -0.250 C  
HETATM    5  O   UNL     1     -10.846  12.606  68.344  1.00  0.00    -0.226 OA 
HETATM    6  N   UNL     1     -10.628  14.821  67.694  1.00  0.00    -0.259 N  
HETATM    7  C   UNL     1     -10.597  15.322  68.991  1.00  0.00    -0.245 C  
HETATM    8  C   UNL     1     -10.525  16.656  68.970  1.00  0.00    -0.328 C  
HETATM    9  N   UNL     1     -10.536  17.089  67.663  1.00  0.00    -0.345 N  
HETATM   10  C   UNL     1     -10.626  15.958  66.791  1.00  0.00    -0.309 C  
HETATM   11  C   UNL     1     -10.515  18.481  67.273  1.00  0.00    -0.419 C  
HETATM   12  S   UNL     1     -10.740  15.998  65.132  1.00  0.00    -0.333 S  
ENDBRANCH   3   4
ENDBRANCH   2   3
TORSDOF 2
ENDMDL
MODEL       47
REMARK 921   NORMALIZED FREE ENERGY PREDICTED BY IDOCK:   -3.47 KCAL/MOL
REMARK 922        TOTAL FREE ENERGY PREDICTED BY IDOCK:   -3.97 KCAL/MOL
REMARK 923 INTER-LIGAND FREE ENERGY PREDICTED BY IDOCK:   -3.86 KCAL/MOL
REMARK 924 INTRA-LIGAND FREE ENERGY PREDICTED BY IDOCK:   -0.11 KCAL/MOL
REMARK 927      BINDING AFFINITY PREDICTED BY RF-SCORE:    0.00 PKD
ROOT
HETATM    1  C   UNL     1      -9.899   5.923  69.692  1.00  0.00    -0.215 C  
HETATM    2  C   UNL     1     -11.283   6.506  69.935  1.00  0.00    -0.395 C  
ENDROOT
BRANCH   2   3
HETATM    3  O   UNL     1     -11.147   7.791  70.556  1.00  0.00    -0.254 OA 
BRANCH   3   4
HETATM    4  C   UNL     1     -12.250   8.233  71.217  1.00  0.00    -0.270 C  
HETATM    5  O   UNL     1     -12.962   7.505  71.907  1.00  0.00    -0.314 OA 
HETATM    6  N   UNL     1     -12.406   9.620  71.135  1.00  0.00    -0.323 N  
HETATM    7  C   UNL     1     -13.178  10.295  72.075  1.00  0.00    -0.411 C  
HETATM    8  C   UNL     1     -13.117  11.613  71.863  1.00  0.00    -0.385 C  
HETATM    9  N   UNL     1     -12.330  11.858  70.761  1.00  0.00    -0.366 N  
HETATM   10  C   UNL     1     -11.860  10.615  70.230  1.00  0.00    -0.342 C  
HETATM   11  C   UNL     1     -12.084  13.176  70.222  1.00  0.00    -0.328 C  
HETATM   12  S   UNL     1     -10.935  10.413  68.862  1.00  0.00    -0.255 S  
ENDBRANCH   3   4
ENDBRANCH   2   3
TORSDOF 2
ENDMDL
MODEL       48
REMARK 921   NORMALIZED FREE ENERGY PREDICTED BY IDOCK:   -3.47 KCAL/MOL
REMARK 922        TOTAL FREE ENERGY PREDICTED BY IDOCK:   -3.97 KCAL/MOL
REMARK 923 INTER-LIGAND FREE ENERGY PREDICTED BY IDOCK:   -3.86 KCAL/MOL
REMARK 924 INTRA-LIGAND FREE ENERGY PREDICTED BY IDOCK:   -0.10 KCAL/MOL
REMARK 927      BINDING AFFINITY PREDICTED BY RF-SCORE:    0.00 PKD
ROOT
HETATM    1  C   UNL     1     -10.755  18.983  67.394  1.00  0.00    -0.559 C  
HETATM    2  C   UNL     1     -10.499  18.926  65.896  1.00  0.00    -0.391 C  
ENDROOT
BRANCH   2   3
HETATM    3  O   UNL     1     -10.201  17.574  65.523  1.00  0.00    -0.608 OA 
BRANCH   3   4
HETATM    4  C   UNL     1      -8.954  17.145  65.853  1.00  0.00     0.016 C  
HETATM    5  O   UNL     1      -7.962  17.871  65.835  1.00  0.00    -0.523 OA 
HETATM    6  N   UNL     1      -8.947  15.834  66.339  1.00  0.00    -0.303 N  
HETATM    7  C   UNL     1      -7.889  15.382  67.121  1.00  0.00    -0.214 C  
HETATM    8  C   UNL     1      -8.130  14.139  67.551  1.00  0.00    -0.187 C  
HETATM    9  N   UNL     1      -9.337  13.712  67.046  1.00  0.00    -0.239 N  
HETATM   10  C   UNL     1      -9.904  14.747  66.237  1.00  0.00    -0.296 C  
HETATM   11  C   UNL     1      -9.887  12.395  67.275  1.00  0.00    -0.207 C  
HETATM   12  S   UNL     1     -11.320  14.656  65.368  1.00  0.00    -0.353 S  
ENDBRANCH   3   4
ENDBRANCH   2   3
TORSDOF 2
ENDMDL
MODEL       49
REMARK 921   NORMALIZED FREE ENERGY PREDICTED BY IDOCK:   -3.45 KCAL/MOL
REMARK 922        TOTAL FREE ENERGY PREDICTED BY IDOCK:   -3.95 KCAL/MOL
REMARK 923 INTER-LIGAND FREE ENERGY PREDICTED BY IDOCK:   -3.81 KCAL/MOL
REMARK 924 INTRA-LIGAND FREE ENERGY PREDICTED BY IDOCK:   -0.14 KCAL/MOL
REMARK 927      BINDING AFFINITY PREDICTED BY RF-SCORE:    0.00 PKD
ROOT
HETATM    1  C   UNL     1      -9.328  12.976  66.812  1.00  0.00    -0.244 C  
HETATM    2  C   UNL     1      -9.286  14.368  67.423  1.00  0.00    -0.199 C  
ENDROOT
BRANCH   2   3
HETATM    3  O   UNL     1     -10.538  14.633  68.070  1.00  0.00    -0.236 OA 
BRANCH   3   4
HETATM    4  C   UNL     1     -10.472  15.480  69.132  1.00  0.00    -0.232 C  
HETATM    5  O   UNL     1      -9.796  16.507  69.137  1.00  0.00    -0.257 OA 
HETATM    6  N   UNL     1     -11.356  15.127  70.157  1.00  0.00    -0.253 N  
HETATM    7  C   UNL     1     -11.755  16.074  71.095  1.00  0.00    -0.439 C  
HETATM    8  C   UNL     1     -12.665  15.550  71.922  1.00  0.00    -0.417 C  
HETATM    9  N   UNL     1     -12.878  14.233  71.583  1.00  0.00    -0.331 N  
HETATM   10  C   UNL     1     -12.049  13.890  70.469  1.00  0.00    -0.356 C  
HETATM   11  C   UNL     1     -13.771  13.350  72.300  1.00  0.00    -0.607 C  
HETATM   12  S   UNL     1     -11.918  12.391  69.761  1.00  0.00    -0.237 S  
ENDBRANCH   3   4
ENDBRANCH   2   3
TORSDOF 2
ENDMDL
MODEL       50
REMARK 921   NORMALIZED FREE ENERGY PREDICTED BY IDOCK:   -3.43 KCAL/MOL
REMARK 922        TOTAL FREE ENERGY PREDICTED BY IDOCK:   -3.93 KCAL/MOL
REMARK 923 INTER-LIGAND FREE ENERGY PREDICTED BY IDOCK:   -3.75 KCAL/MOL
REMARK 924 INTRA-LIGAND FREE ENERGY PREDICTED BY IDOCK:   -0.18 KCAL/MOL
REMARK 927      BINDING AFFINITY PREDICTED BY RF-SCORE:    0.00 PKD
ROOT
HETATM    1  C   UNL     1      -8.066  15.096  67.194  1.00  0.00    -0.245 C  
HETATM    2  C   UNL     1      -9.006  15.883  66.294  1.00  0.00    -0.346 C  
ENDROOT
BRANCH   2   3
HETATM    3  O   UNL     1     -10.347  15.420  66.497  1.00  0.00    -0.273 OA 
BRANCH   3   4
HETATM    4  C   UNL     1     -10.649  14.238  65.896  1.00  0.00    -0.302 C  
HETATM    5  O   UNL     1     -10.499  14.035  64.693  1.00  0.00    -0.434 OA 
HETATM    6  N   UNL     1     -11.017  13.247  66.811  1.00  0.00    -0.284 N  
HETATM    7  C   UNL     1     -10.929  11.904  66.463  1.00  0.00    -0.292 C  
HETATM    8  C   UNL     1     -11.240  11.133  67.509  1.00  0.00    -0.301 C  
HETATM    9  N   UNL     1     -11.574  11.934  68.577  1.00  0.00    -0.294 N  
HETATM   10  C   UNL     1     -11.474  13.307  68.188  1.00  0.00    -0.312 C  
HETATM   11  C   UNL     1     -12.006  11.429  69.861  1.00  0.00    -0.359 C  
HETATM   12  S   UNL     1     -11.847  14.629  69.127  1.00  0.00    -0.304 S  
ENDBRANCH   3   4
ENDBRANCH   2   3
TORSDOF 2
ENDMDL
MODEL       51
REMARK 921   NORMALIZED FREE ENERGY PREDICTED BY IDOCK:   -3.43 KCAL/MOL
REMARK 922        TOTAL FREE ENERGY PREDICTED BY IDOCK:   -3.92 KCAL/MOL
REMARK 923 INTER-LIGAND FREE ENERGY PREDICTED BY IDOCK:   -4.08 KCAL/MOL
REMARK 924 INTRA-LIGAND FREE ENERGY PREDICTED BY IDOCK:    0.16 KCAL/MOL
REMARK 927      BINDING AFFINITY PREDICTED BY RF-SCORE:    0.00 PKD
ROOT
HETATM    1  C   UNL     1     -13.487  13.154  72.416  1.00  0.00    -0.643 C  
HETATM    2  C   UNL     1     -12.449  13.013  71.313  1.00  0.00    -0.218 C  
ENDROOT
BRANCH   2   3
HETATM    3  O   UNL     1     -12.825  13.843  70.207  1.00  0.00    -0.245 OA 
BRANCH   3   4
HETATM    4  C   UNL     1     -12.453  15.147  70.309  1.00  0.00    -0.342 C  
HETATM    5  O   UNL     1     -12.741  15.858  71.270  1.00  0.00    -0.467 OA 
HETATM    6  N   UNL     1     -11.603  15.547  69.274  1.00  0.00    -0.334 N  
HETATM    7  C   UNL     1     -10.782  16.659  69.431  1.00  0.00    -0.331 C  
HETATM    8  C   UNL     1      -9.992  16.806  68.364  1.00  0.00    -0.268 C  
HETATM    9  N   UNL     1     -10.280  15.818  67.449  1.00  0.00    -0.265 N  
HETATM   10  C   UNL     1     -11.325  14.987  67.963  1.00  0.00    -0.327 C  
HETATM   11  C   UNL     1      -9.641  15.703  66.157  1.00  0.00    -0.330 C  
HETATM   12  S   UNL     1     -12.048  13.711  67.179  1.00  0.00    -0.313 S  
ENDBRANCH   3   4
ENDBRANCH   2   3
TORSDOF 2
ENDMDL
MODEL       52
REMARK 921   NORMALIZED FREE ENERGY PREDICTED BY IDOCK:   -3.41 KCAL/MOL
REMARK 922        TOTAL FREE ENERGY PREDICTED BY IDOCK:   -3.90 KCAL/MOL
REMARK 923 INTER-LIGAND FREE ENERGY PREDICTED BY IDOCK:   -3.74 KCAL/MOL
REMARK 924 INTRA-LIGAND FREE ENERGY PREDICTED BY IDOCK:   -0.17 KCAL/MOL
REMARK 927      BINDING AFFINITY PREDICTED BY RF-SCORE:    0.00 PKD
ROOT
HETATM    1  C   UNL     1     -12.592   7.295  71.451  1.00  0.00    -0.423 C  
HETATM    2  C   UNL     1     -11.797   8.143  72.432  1.00  0.00    -0.388 C  
ENDROOT
BRANCH   2   3
HETATM    3  O   UNL     1     -11.151   9.204  71.718  1.00  0.00    -0.351 OA 
BRANCH   3   4
HETATM    4  C   UNL     1     -11.986  10.138  71.189  1.00  0.00    -0.386 C  
HETATM    5  O   UNL     1     -12.867  10.701  71.836  1.00  0.00    -0.445 OA 
HETATM    6  N   UNL     1     -11.647  10.482  69.877  1.00  0.00    -0.283 N  
HETATM    7  C   UNL     1     -12.075  11.690  69.336  1.00  0.00    -0.263 C  
HETATM    8  C   UNL     1     -11.565  11.855  68.111  1.00  0.00    -0.334 C  
HETATM    9  N   UNL     1     -10.808  10.752  67.785  1.00  0.00    -0.247 N  
HETATM   10  C   UNL     1     -10.839   9.819  68.869  1.00  0.00    -0.192 C  
HETATM   11  C   UNL     1     -10.145  10.577  66.512  1.00  0.00    -0.225 C  
HETATM   12  S   UNL     1     -10.127   8.316  68.898  1.00  0.00    -0.202 S  
ENDBRANCH   3   4
ENDBRANCH   2   3
TORSDOF 2
ENDMDL
MODEL       53
REMARK 921   NORMALIZED FREE ENERGY PREDICTED BY IDOCK:   -3.39 KCAL/MOL
REMARK 922        TOTAL FREE ENERGY PREDICTED BY IDOCK:   -3.88 KCAL/MOL
REMARK 923 INTER-LIGAND FREE ENERGY PREDICTED BY IDOCK:   -3.76 KCAL/MOL
REMARK 924 INTRA-LIGAND FREE ENERGY PREDICTED BY IDOCK:   -0.13 KCAL/MOL
REMARK 927      BINDING AFFINITY PREDICTED BY RF-SCORE:    0.00 PKD
ROOT
HETATM    1  C   UNL     1      -7.677  18.422  68.621  1.00  0.00    -0.321 C  
HETATM    2  C   UNL     1      -8.403  17.105  68.384  1.00  0.00    -0.251 C  
ENDROOT
BRANCH   2   3
HETATM    3  O   UNL     1      -9.812  17.355  68.304  1.00  0.00    -0.280 OA 
BRANCH   3   4
HETATM    4  C   UNL     1     -10.480  16.612  67.382  1.00  0.00    -0.314 C  
HETATM    5  O   UNL     1     -10.510  16.888  66.184  1.00  0.00    -0.320 OA 
HETATM    6  N   UNL     1     -11.013  15.437  67.922  1.00  0.00    -0.300 N  
HETATM    7  C   UNL     1     -11.328  14.365  67.093  1.00  0.00    -0.343 C  
HETATM    8  C   UNL     1     -11.734  13.321  67.822  1.00  0.00    -0.358 C  
HETATM    9  N   UNL     1     -11.731  13.671  69.153  1.00  0.00    -0.307 N  
HETATM   10  C   UNL     1     -11.300  15.028  69.285  1.00  0.00    -0.296 C  
HETATM   11  C   UNL     1     -12.157  12.792  70.219  1.00  0.00    -0.297 C  
HETATM   12  S   UNL     1     -11.207  15.902  70.698  1.00  0.00    -0.370 S  
ENDBRANCH   3   4
ENDBRANCH   2   3
TORSDOF 2
ENDMDL
MODEL       54
REMARK 921   NORMALIZED FREE ENERGY PREDICTED BY IDOCK:   -3.39 KCAL/MOL
REMARK 922        TOTAL FREE ENERGY PREDICTED BY IDOCK:   -3.88 KCAL/MOL
REMARK 923 INTER-LIGAND FREE ENERGY PREDICTED BY IDOCK:   -3.84 KCAL/MOL
REMARK 924 INTRA-LIGAND FREE ENERGY PREDICTED BY IDOCK:   -0.05 KCAL/MOL
REMARK 927      BINDING AFFINITY PREDICTED BY RF-SCORE:    0.00 PKD
ROOT
HETATM    1  C   UNL     1      -7.302  18.850  65.977  1.00  0.00    -0.289 C  
HETATM    2  C   UNL     1      -7.621  17.381  66.210  1.00  0.00    -0.313 C  
ENDROOT
BRANCH   2   3
HETATM    3  O   UNL     1      -8.829  17.280  66.975  1.00  0.00    -0.216 OA 
BRANCH   3   4
HETATM    4  C   UNL     1      -9.976  17.257  66.244  1.00  0.00    -0.300 C  
HETATM    5  O   UNL     1     -10.513  18.269  65.798  1.00  0.00    -0.589 OA 
HETATM    6  N   UNL     1     -10.399  15.958  65.947  1.00  0.00    -0.344 N  
HETATM    7  C   UNL     1     -11.257  15.728  64.877  1.00  0.00    -0.350 C  
HETATM    8  C   UNL     1     -11.458  14.417  64.717  1.00  0.00    -0.402 C  
HETATM    9  N   UNL     1     -10.766  13.733  65.692  1.00  0.00    -0.282 N  
HETATM   10  C   UNL     1     -10.082  14.667  66.531  1.00  0.00    -0.279 C  
HETATM   11  C   UNL     1     -10.795  12.295  65.843  1.00  0.00    -0.271 C  
HETATM   12  S   UNL     1      -9.178  14.305  67.880  1.00  0.00    -0.201 S  
ENDBRANCH   3   4
ENDBRANCH   2   3
TORSDOF 2
ENDMDL
MODEL       55
REMARK 921   NORMALIZED FREE ENERGY PREDICTED BY IDOCK:   -3.38 KCAL/MOL
REMARK 922        TOTAL FREE ENERGY PREDICTED BY IDOCK:   -3.87 KCAL/MOL
REMARK 923 INTER-LIGAND FREE ENERGY PREDICTED BY IDOCK:   -3.67 KCAL/MOL
REMARK 924 INTRA-LIGAND FREE ENERGY PREDICTED BY IDOCK:   -0.20 KCAL/MOL
REMARK 927      BINDING AFFINITY PREDICTED BY RF-SCORE:    0.00 PKD
ROOT
HETATM    1  C   UNL     1      -9.496   8.397  72.370  1.00  0.00    -0.365 C  
HETATM    2  C   UNL     1     -10.942   8.019  72.654  1.00  0.00    -0.382 C  
ENDROOT
BRANCH   2   3
HETATM    3  O   UNL     1     -11.725   8.246  71.476  1.00  0.00    -0.271 OA 
BRANCH   3   4
HETATM    4  C   UNL     1     -12.514   9.354  71.509  1.00  0.00    -0.366 C  
HETATM    5  O   UNL     1     -13.471   9.479  72.272  1.00  0.00    -0.440 OA 
HETATM    6  N   UNL     1     -12.040  10.377  70.684  1.00  0.00    -0.319 N  
HETATM    7  C   UNL     1     -12.428  11.694  70.908  1.00  0.00    -0.341 C  
HETATM    8  C   UNL     1     -11.790  12.514  70.066  1.00  0.00    -0.289 C  
HETATM    9  N   UNL     1     -10.982  11.770  69.236  1.00  0.00    -0.210 N  
HETATM   10  C   UNL     1     -11.115  10.384  69.565  1.00  0.00    -0.264 C  
HETATM   11  C   UNL     1     -10.181  12.333  68.173  1.00  0.00    -0.212 C  
HETATM   12  S   UNL     1     -10.384   9.110  68.784  1.00  0.00    -0.211 S  
ENDBRANCH   3   4
ENDBRANCH   2   3
TORSDOF 2
ENDMDL
MODEL       56
REMARK 921   NORMALIZED FREE ENERGY PREDICTED BY IDOCK:   -3.38 KCAL/MOL
REMARK 922        TOTAL FREE ENERGY PREDICTED BY IDOCK:   -3.87 KCAL/MOL
REMARK 923 INTER-LIGAND FREE ENERGY PREDICTED BY IDOCK:   -3.69 KCAL/MOL
REMARK 924 INTRA-LIGAND FREE ENERGY PREDICTED BY IDOCK:   -0.18 KCAL/MOL
REMARK 927      BINDING AFFINITY PREDICTED BY RF-SCORE:    0.00 PKD
ROOT
HETATM    1  C   UNL     1      -7.915  10.659  66.372  1.00  0.00    -0.142 C  
HETATM    2  C   UNL     1      -8.957   9.551  66.384  1.00  0.00    -0.154 C  
ENDROOT
BRANCH   2   3
HETATM    3  O   UNL     1     -10.219  10.090  65.971  1.00  0.00    -0.252 OA 
BRANCH   3   4
HETATM    4  C   UNL     1     -10.907  10.758  66.935  1.00  0.00    -0.229 C  
HETATM    5  O   UNL     1     -11.055  10.330  68.079  1.00  0.00    -0.283 OA 
HETATM    6  N   UNL     1     -11.307  12.033  66.526  1.00  0.00    -0.342 N  
HETATM    7  C   UNL     1     -11.612  13.008  67.469  1.00  0.00    -0.356 C  
HETATM    8  C   UNL     1     -11.880  14.169  66.863  1.00  0.00    -0.431 C  
HETATM    9  N   UNL     1     -11.792  13.999  65.500  1.00  0.00    -0.351 N  
HETATM   10  C   UNL     1     -11.450  12.640  65.214  1.00  0.00    -0.331 C  
HETATM   11  C   UNL     1     -12.064  15.043  64.537  1.00  0.00    -0.363 C  
HETATM   12  S   UNL     1     -11.303  11.955  63.705  1.00  0.00    -0.461 S  
ENDBRANCH   3   4
ENDBRANCH   2   3
TORSDOF 2
ENDMDL
MODEL       57
REMARK 921   NORMALIZED FREE ENERGY PREDICTED BY IDOCK:   -3.38 KCAL/MOL
REMARK 922        TOTAL FREE ENERGY PREDICTED BY IDOCK:   -3.87 KCAL/MOL
REMARK 923 INTER-LIGAND FREE ENERGY PREDICTED BY IDOCK:   -3.68 KCAL/MOL
REMARK 924 INTRA-LIGAND FREE ENERGY PREDICTED BY IDOCK:   -0.19 KCAL/MOL
REMARK 927      BINDING AFFINITY PREDICTED BY RF-SCORE:    0.00 PKD
ROOT
HETATM    1  C   UNL     1     -14.378   7.666  71.535  1.00  0.00    -0.589 C  
HETATM    2  C   UNL     1     -12.990   7.150  71.884  1.00  0.00    -0.244 C  
ENDROOT
BRANCH   2   3
HETATM    3  O   UNL     1     -12.202   8.235  72.392  1.00  0.00    -0.361 OA 
BRANCH   3   4
HETATM    4  C   UNL     1     -10.954   8.340  71.864  1.00  0.00    -0.287 C  
HETATM    5  O   UNL     1     -10.055   7.531  72.087  1.00  0.00    -0.185 OA 
HETATM    6  N   UNL     1     -10.846   9.386  70.943  1.00  0.00    -0.293 N  
HETATM    7  C   UNL     1      -9.828   9.383  69.995  1.00  0.00    -0.221 C  
HETATM    8  C   UNL     1      -9.966  10.420  69.164  1.00  0.00    -0.223 C  
HETATM    9  N   UNL     1     -11.059  11.164  69.548  1.00  0.00    -0.254 N  
HETATM   10  C   UNL     1     -11.657  10.566  70.702  1.00  0.00    -0.352 C  
HETATM   11  C   UNL     1     -11.475  12.384  68.893  1.00  0.00    -0.307 C  
HETATM   12  S   UNL     1     -12.958  11.153  71.556  1.00  0.00    -0.368 S  
ENDBRANCH   3   4
ENDBRANCH   2   3
TORSDOF 2
ENDMDL
MODEL       58
REMARK 921   NORMALIZED FREE ENERGY PREDICTED BY IDOCK:   -3.37 KCAL/MOL
REMARK 922        TOTAL FREE ENERGY PREDICTED BY IDOCK:   -3.85 KCAL/MOL
REMARK 923 INTER-LIGAND FREE ENERGY PREDICTED BY IDOCK:   -3.70 KCAL/MOL
REMARK 924 INTRA-LIGAND FREE ENERGY PREDICTED BY IDOCK:   -0.16 KCAL/MOL
REMARK 927      BINDING AFFINITY PREDICTED BY RF-SCORE:    0.00 PKD
ROOT
HETATM    1  C   UNL     1     -10.218   9.110  68.672  1.00  0.00    -0.225 C  
HETATM    2  C   UNL     1     -10.838  10.278  67.920  1.00  0.00    -0.284 C  
ENDROOT
BRANCH   2   3
HETATM    3  O   UNL     1      -9.833  10.902  67.112  1.00  0.00    -0.179 OA 
BRANCH   3   4
HETATM    4  C   UNL     1      -9.964  10.708  65.772  1.00  0.00    -0.257 C  
HETATM    5  O   UNL     1      -9.689   9.648  65.213  1.00  0.00    -0.300 OA 
HETATM    6  N   UNL     1     -10.567  11.793  65.128  1.00  0.00    -0.273 N  
HETATM    7  C   UNL     1     -11.178  11.621  63.891  1.00  0.00    -0.397 C  
HETATM    8  C   UNL     1     -11.766  12.757  63.503  1.00  0.00    -0.530 C  
HETATM    9  N   UNL     1     -11.540  13.729  64.452  1.00  0.00    -0.393 N  
HETATM   10  C   UNL     1     -10.754  13.180  65.514  1.00  0.00    -0.283 C  
HETATM   11  C   UNL     1     -11.998  15.095  64.332  1.00  0.00    -0.310 C  
HETATM   12  S   UNL     1     -10.179  14.000  66.841  1.00  0.00    -0.263 S  
ENDBRANCH   3   4
ENDBRANCH   2   3
TORSDOF 2
ENDMDL
MODEL       59
REMARK 921   NORMALIZED FREE ENERGY PREDICTED BY IDOCK:   -3.35 KCAL/MOL
REMARK 922        TOTAL FREE ENERGY PREDICTED BY IDOCK:   -3.84 KCAL/MOL
REMARK 923 INTER-LIGAND FREE ENERGY PREDICTED BY IDOCK:   -3.63 KCAL/MOL
REMARK 924 INTRA-LIGAND FREE ENERGY PREDICTED BY IDOCK:   -0.20 KCAL/MOL
REMARK 927      BINDING AFFINITY PREDICTED BY RF-SCORE:    0.00 PKD
ROOT
HETATM    1  C   UNL     1      -7.218   9.996  65.322  1.00  0.00    -0.137 C  
HETATM    2  C   UNL     1      -8.211   9.049  64.666  1.00  0.00    -0.160 C  
ENDROOT
BRANCH   2   3
HETATM    3  O   UNL     1      -9.524   9.618  64.747  1.00  0.00    -0.267 OA 
BRANCH   3   4
HETATM    4  C   UNL     1      -9.805  10.562  63.809  1.00  0.00    -0.300 C  
HETATM    5  O   UNL     1      -9.508  10.444  62.622  1.00  0.00    -0.297 OA 
HETATM    6  N   UNL     1     -10.580  11.610  64.315  1.00  0.00    -0.313 N  
HETATM    7  C   UNL     1     -11.324  12.410  63.455  1.00  0.00    -0.476 C  
HETATM    8  C   UNL     1     -12.056  13.284  64.153  1.00  0.00    -0.432 C  
HETATM    9  N   UNL     1     -11.802  13.116  65.495  1.00  0.00    -0.358 N  
HETATM   10  C   UNL     1     -10.842  12.069  65.668  1.00  0.00    -0.282 C  
HETATM   11  C   UNL     1     -12.392  13.927  66.536  1.00  0.00    -0.404 C  
HETATM   12  S   UNL     1     -10.181  11.564  67.108  1.00  0.00    -0.209 S  
ENDBRANCH   3   4
ENDBRANCH   2   3
TORSDOF 2
ENDMDL
MODEL       60
REMARK 921   NORMALIZED FREE ENERGY PREDICTED BY IDOCK:   -3.35 KCAL/MOL
REMARK 922        TOTAL FREE ENERGY PREDICTED BY IDOCK:   -3.83 KCAL/MOL
REMARK 923 INTER-LIGAND FREE ENERGY PREDICTED BY IDOCK:   -3.71 KCAL/MOL
REMARK 924 INTRA-LIGAND FREE ENERGY PREDICTED BY IDOCK:   -0.12 KCAL/MOL
REMARK 927      BINDING AFFINITY PREDICTED BY RF-SCORE:    0.00 PKD
ROOT
HETATM    1  C   UNL     1     -13.145  15.465  71.044  1.00  0.00    -0.565 C  
HETATM    2  C   UNL     1     -12.048  14.411  71.047  1.00  0.00    -0.349 C  
ENDROOT
BRANCH   2   3
HETATM    3  O   UNL     1     -12.621  13.137  70.726  1.00  0.00    -0.324 OA 
BRANCH   3   4
HETATM    4  C   UNL     1     -12.135  12.552  69.598  1.00  0.00    -0.207 C  
HETATM    5  O   UNL     1     -11.927  13.166  68.554  1.00  0.00    -0.337 OA 
HETATM    6  N   UNL     1     -11.776  11.216  69.798  1.00  0.00    -0.312 N  
HETATM    7  C   UNL     1     -10.878  10.595  68.936  1.00  0.00    -0.231 C  
HETATM    8  C   UNL     1     -10.607   9.357  69.362  1.00  0.00    -0.221 C  
HETATM    9  N   UNL     1     -11.337   9.102  70.501  1.00  0.00    -0.264 N  
HETATM   10  C   UNL     1     -12.129  10.249  70.823  1.00  0.00    -0.353 C  
HETATM   11  C   UNL     1     -11.320   7.839  71.205  1.00  0.00    -0.269 C  
HETATM   12  S   UNL     1     -13.219  10.377  72.073  1.00  0.00    -0.277 S  
ENDBRANCH   3   4
ENDBRANCH   2   3
TORSDOF 2
ENDMDL
MODEL       61
REMARK 921   NORMALIZED FREE ENERGY PREDICTED BY IDOCK:   -3.34 KCAL/MOL
REMARK 922        TOTAL FREE ENERGY PREDICTED BY IDOCK:   -3.83 KCAL/MOL
REMARK 923 INTER-LIGAND FREE ENERGY PREDICTED BY IDOCK:   -3.62 KCAL/MOL
REMARK 924 INTRA-LIGAND FREE ENERGY PREDICTED BY IDOCK:   -0.21 KCAL/MOL
REMARK 927      BINDING AFFINITY PREDICTED BY RF-SCORE:    0.00 PKD
ROOT
HETATM    1  C   UNL     1     -11.632  15.687  68.735  1.00  0.00    -0.393 C  
HETATM    2  C   UNL     1     -10.167  15.299  68.878  1.00  0.00    -0.232 C  
ENDROOT
BRANCH   2   3
HETATM    3  O   UNL     1      -9.561  15.271  67.579  1.00  0.00    -0.206 OA 
BRANCH   3   4
HETATM    4  C   UNL     1      -9.075  14.061  67.193  1.00  0.00    -0.232 C  
HETATM    5  O   UNL     1      -8.169  13.477  67.785  1.00  0.00    -0.147 OA 
HETATM    6  N   UNL     1      -9.804  13.499  66.141  1.00  0.00    -0.291 N  
HETATM    7  C   UNL     1      -9.756  12.129  65.908  1.00  0.00    -0.239 C  
HETATM    8  C   UNL     1     -10.592  11.798  64.919  1.00  0.00    -0.294 C  
HETATM    9  N   UNL     1     -11.200  12.937  64.441  1.00  0.00    -0.331 N  
HETATM   10  C   UNL     1     -10.719  14.071  65.168  1.00  0.00    -0.382 C  
HETATM   11  C   UNL     1     -12.133  12.951  63.337  1.00  0.00    -0.530 C  
HETATM   12  S   UNL     1     -11.118  15.662  64.893  1.00  0.00    -0.345 S  
ENDBRANCH   3   4
ENDBRANCH   2   3
TORSDOF 2
ENDMDL
MODEL       62
REMARK 921   NORMALIZED FREE ENERGY PREDICTED BY IDOCK:   -3.32 KCAL/MOL
REMARK 922        TOTAL FREE ENERGY PREDICTED BY IDOCK:   -3.80 KCAL/MOL
REMARK 923 INTER-LIGAND FREE ENERGY PREDICTED BY IDOCK:   -3.62 KCAL/MOL
REMARK 924 INTRA-LIGAND FREE ENERGY PREDICTED BY IDOCK:   -0.18 KCAL/MOL
REMARK 927      BINDING AFFINITY PREDICTED BY RF-SCORE:    0.00 PKD
ROOT
HETATM    1  C   UNL     1     -10.053  19.814  67.366  1.00  0.00    -0.555 C  
HETATM    2  C   UNL     1      -8.807  19.617  66.515  1.00  0.00    -0.364 C  
ENDROOT
BRANCH   2   3
HETATM    3  O   UNL     1      -8.643  18.220  66.241  1.00  0.00    -0.393 OA 
BRANCH   3   4
HETATM    4  C   UNL     1      -8.163  17.480  67.276  1.00  0.00    -0.208 C  
HETATM    5  O   UNL     1      -7.123  17.750  67.874  1.00  0.00    -0.196 OA 
HETATM    6  N   UNL     1      -9.043  16.467  67.668  1.00  0.00    -0.198 N  
HETATM    7  C   UNL     1      -8.951  15.911  68.940  1.00  0.00    -0.228 C  
HETATM    8  C   UNL     1      -9.939  15.032  69.133  1.00  0.00    -0.237 C  
HETATM    9  N   UNL     1     -10.701  14.950  67.990  1.00  0.00    -0.248 N  
HETATM   10  C   UNL     1     -10.164  15.831  66.999  1.00  0.00    -0.280 C  
HETATM   11  C   UNL     1     -11.830  14.060  67.835  1.00  0.00    -0.376 C  
HETATM   12  S   UNL     1     -10.713  16.014  65.440  1.00  0.00    -0.341 S  
ENDBRANCH   3   4
ENDBRANCH   2   3
TORSDOF 2
ENDMDL
MODEL       63
REMARK 921   NORMALIZED FREE ENERGY PREDICTED BY IDOCK:   -3.31 KCAL/MOL
REMARK 922        TOTAL FREE ENERGY PREDICTED BY IDOCK:   -3.79 KCAL/MOL
REMARK 923 INTER-LIGAND FREE ENERGY PREDICTED BY IDOCK:   -3.69 KCAL/MOL
REMARK 924 INTRA-LIGAND FREE ENERGY PREDICTED BY IDOCK:   -0.10 KCAL/MOL
REMARK 927      BINDING AFFINITY PREDICTED BY RF-SCORE:    0.00 PKD
ROOT
HETATM    1  C   UNL     1     -11.907  13.397  67.930  1.00  0.00    -0.392 C  
HETATM    2  C   UNL     1     -11.859  13.052  69.412  1.00  0.00    -0.322 C  
ENDROOT
BRANCH   2   3
HETATM    3  O   UNL     1     -11.930  11.629  69.564  1.00  0.00    -0.307 OA 
BRANCH   3   4
HETATM    4  C   UNL     1     -12.217  11.195  70.821  1.00  0.00    -0.385 C  
HETATM    5  O   UNL     1     -12.936  11.815  71.602  1.00  0.00    -0.425 OA 
HETATM    6  N   UNL     1     -11.717   9.914  71.075  1.00  0.00    -0.351 N  
HETATM    7  C   UNL     1     -12.263   9.138  72.092  1.00  0.00    -0.338 C  
HETATM    8  C   UNL     1     -11.702   7.925  72.100  1.00  0.00    -0.333 C  
HETATM    9  N   UNL     1     -10.746   7.863  71.112  1.00  0.00    -0.225 N  
HETATM   10  C   UNL     1     -10.689   9.119  70.429  1.00  0.00    -0.238 C  
HETATM   11  C   UNL     1      -9.912   6.707  70.867  1.00  0.00    -0.187 C  
HETATM   12  S   UNL     1      -9.635   9.532  69.210  1.00  0.00    -0.186 S  
ENDBRANCH   3   4
ENDBRANCH   2   3
TORSDOF 2
ENDMDL
MODEL       64
REMARK 921   NORMALIZED FREE ENERGY PREDICTED BY IDOCK:   -3.31 KCAL/MOL
REMARK 922        TOTAL FREE ENERGY PREDICTED BY IDOCK:   -3.79 KCAL/MOL
REMARK 923 INTER-LIGAND FREE ENERGY PREDICTED BY IDOCK:   -3.66 KCAL/MOL
REMARK 924 INTRA-LIGAND FREE ENERGY PREDICTED BY IDOCK:   -0.13 KCAL/MOL
REMARK 927      BINDING AFFINITY PREDICTED BY RF-SCORE:    0.00 PKD
ROOT
HETATM    1  C   UNL     1      -8.313   9.986  69.549  1.00  0.00    -0.180 C  
HETATM    2  C   UNL     1      -9.662  10.155  68.865  1.00  0.00    -0.187 C  
ENDROOT
BRANCH   2   3
HETATM    3  O   UNL     1      -9.700  11.431  68.215  1.00  0.00    -0.187 OA 
BRANCH   3   4
HETATM    4  C   UNL     1     -10.868  12.115  68.349  1.00  0.00    -0.224 C  
HETATM    5  O   UNL     1     -11.355  12.413  69.438  1.00  0.00    -0.256 OA 
HETATM    6  N   UNL     1     -11.380  12.552  67.124  1.00  0.00    -0.304 N  
HETATM    7  C   UNL     1     -12.284  13.609  67.079  1.00  0.00    -0.329 C  
HETATM    8  C   UNL     1     -12.570  13.919  65.811  1.00  0.00    -0.494 C  
HETATM    9  N   UNL     1     -11.892  13.063  64.972  1.00  0.00    -0.342 N  
HETATM   10  C   UNL     1     -11.126  12.143  65.754  1.00  0.00    -0.319 C  
HETATM   11  C   UNL     1     -12.006  13.088  63.531  1.00  0.00    -0.545 C  
HETATM   12  S   UNL     1     -10.205  10.885  65.176  1.00  0.00    -0.293 S  
ENDBRANCH   3   4
ENDBRANCH   2   3
TORSDOF 2
ENDMDL
MODEL       65
REMARK 921   NORMALIZED FREE ENERGY PREDICTED BY IDOCK:   -3.30 KCAL/MOL
REMARK 922        TOTAL FREE ENERGY PREDICTED BY IDOCK:   -3.78 KCAL/MOL
REMARK 923 INTER-LIGAND FREE ENERGY PREDICTED BY IDOCK:   -3.58 KCAL/MOL
REMARK 924 INTRA-LIGAND FREE ENERGY PREDICTED BY IDOCK:   -0.20 KCAL/MOL
REMARK 927      BINDING AFFINITY PREDICTED BY RF-SCORE:    0.00 PKD
ROOT
HETATM    1  C   UNL     1      -8.885  15.391  69.177  1.00  0.00    -0.249 C  
HETATM    2  C   UNL     1      -9.634  14.947  67.929  1.00  0.00    -0.205 C  
ENDROOT
BRANCH   2   3
HETATM    3  O   UNL     1      -9.049  15.578  66.783  1.00  0.00    -0.217 OA 
BRANCH   3   4
HETATM    4  C   UNL     1      -9.854  16.464  66.137  1.00  0.00    -0.338 C  
HETATM    5  O   UNL     1     -10.880  16.136  65.543  1.00  0.00    -0.332 OA 
HETATM    6  N   UNL     1      -9.461  17.791  66.334  1.00  0.00    -0.281 N  
HETATM    7  C   UNL     1     -10.370  18.827  66.143  1.00  0.00    -0.448 C  
HETATM    8  C   UNL     1      -9.814  19.996  66.473  1.00  0.00    -0.459 C  
HETATM    9  N   UNL     1      -8.512  19.784  66.864  1.00  0.00    -0.306 N  
HETATM   10  C   UNL     1      -8.213  18.388  66.775  1.00  0.00    -0.253 C  
HETATM   11  C   UNL     1      -7.601  20.840  67.246  1.00  0.00    -0.305 C  
HETATM   12  S   UNL     1      -6.742  17.672  67.078  1.00  0.00    -0.184 S  
ENDBRANCH   3   4
ENDBRANCH   2   3
TORSDOF 2
ENDMDL
MODEL       66
REMARK 921   NORMALIZED FREE ENERGY PREDICTED BY IDOCK:   -3.27 KCAL/MOL
REMARK 922        TOTAL FREE ENERGY PREDICTED BY IDOCK:   -3.75 KCAL/MOL
REMARK 923 INTER-LIGAND FREE ENERGY PREDICTED BY IDOCK:   -3.61 KCAL/MOL
REMARK 924 INTRA-LIGAND FREE ENERGY PREDICTED BY IDOCK:   -0.14 KCAL/MOL
REMARK 927      BINDING AFFINITY PREDICTED BY RF-SCORE:    0.00 PKD
ROOT
HETATM    1  C   UNL     1     -13.621  14.059  72.436  1.00  0.00    -0.658 C  
HETATM    2  C   UNL     1     -12.427  14.413  71.562  1.00  0.00    -0.355 C  
ENDROOT
BRANCH   2   3
HETATM    3  O   UNL     1     -12.728  14.080  70.201  1.00  0.00    -0.302 OA 
BRANCH   3   4
HETATM    4  C   UNL     1     -11.936  14.678  69.270  1.00  0.00    -0.302 C  
HETATM    5  O   UNL     1     -12.005  15.873  68.992  1.00  0.00    -0.378 OA 
HETATM    6  N   UNL     1     -10.955  13.819  68.766  1.00  0.00    -0.257 N  
HETATM    7  C   UNL     1      -9.811  14.336  68.168  1.00  0.00    -0.226 C  
HETATM    8  C   UNL     1      -8.971  13.349  67.843  1.00  0.00    -0.201 C  
HETATM    9  N   UNL     1      -9.539  12.142  68.186  1.00  0.00    -0.204 N  
HETATM   10  C   UNL     1     -10.827  12.373  68.763  1.00  0.00    -0.226 C  
HETATM   11  C   UNL     1      -8.921  10.859  67.935  1.00  0.00    -0.141 C  
HETATM   12  S   UNL     1     -11.907  11.210  69.261  1.00  0.00    -0.362 S  
ENDBRANCH   3   4
ENDBRANCH   2   3
TORSDOF 2
ENDMDL
MODEL       67
REMARK 921   NORMALIZED FREE ENERGY PREDICTED BY IDOCK:   -3.27 KCAL/MOL
REMARK 922        TOTAL FREE ENERGY PREDICTED BY IDOCK:   -3.74 KCAL/MOL
REMARK 923 INTER-LIGAND FREE ENERGY PREDICTED BY IDOCK:   -3.54 KCAL/MOL
REMARK 924 INTRA-LIGAND FREE ENERGY PREDICTED BY IDOCK:   -0.20 KCAL/MOL
REMARK 927      BINDING AFFINITY PREDICTED BY RF-SCORE:    0.00 PKD
ROOT
HETATM    1  C   UNL     1     -11.461  13.656  69.524  1.00  0.00    -0.324 C  
HETATM    2  C   UNL     1     -12.053  12.273  69.755  1.00  0.00    -0.229 C  
ENDROOT
BRANCH   2   3
HETATM    3  O   UNL     1     -12.093  11.567  68.508  1.00  0.00    -0.522 OA 
BRANCH   3   4
HETATM    4  C   UNL     1     -10.914  11.013  68.119  1.00  0.00    -0.247 C  
HETATM    5  O   UNL     1     -10.176  10.389  68.879  1.00  0.00    -0.183 OA 
HETATM    6  N   UNL     1     -10.700  11.117  66.741  1.00  0.00    -0.267 N  
HETATM    7  C   UNL     1      -9.812  10.257  66.103  1.00  0.00    -0.225 C  
HETATM    8  C   UNL     1      -9.830  10.469  64.784  1.00  0.00    -0.323 C  
HETATM    9  N   UNL     1     -10.704  11.495  64.503  1.00  0.00    -0.315 N  
HETATM   10  C   UNL     1     -11.280  11.973  65.722  1.00  0.00    -0.334 C  
HETATM   11  C   UNL     1     -10.935  12.016  63.174  1.00  0.00    -0.195 C  
HETATM   12  S   UNL     1     -12.336  13.248  65.881  1.00  0.00    -0.376 S  
ENDBRANCH   3   4
ENDBRANCH   2   3
TORSDOF 2
ENDMDL
MODEL       68
REMARK 921   NORMALIZED FREE ENERGY PREDICTED BY IDOCK:   -3.27 KCAL/MOL
REMARK 922        TOTAL FREE ENERGY PREDICTED BY IDOCK:   -3.74 KCAL/MOL
REMARK 923 INTER-LIGAND FREE ENERGY PREDICTED BY IDOCK:   -3.73 KCAL/MOL
REMARK 924 INTRA-LIGAND FREE ENERGY PREDICTED BY IDOCK:   -0.01 KCAL/MOL
REMARK 927      BINDING AFFINITY PREDICTED BY RF-SCORE:    0.00 PKD
ROOT
HETATM    1  C   UNL     1     -13.005  12.745  64.887  1.00  0.00    -0.187 C  
HETATM    2  C   UNL     1     -11.938  12.656  65.968  1.00  0.00    -0.417 C  
ENDROOT
BRANCH   2   3
HETATM    3  O   UNL     1     -11.671  13.972  66.472  1.00  0.00    -0.355 OA 
BRANCH   3   4
HETATM    4  C   UNL     1     -10.613  14.607  65.900  1.00  0.00    -0.311 C  
HETATM    5  O   UNL     1     -10.075  14.222  64.863  1.00  0.00    -0.384 OA 
HETATM    6  N   UNL     1     -10.295  15.807  66.541  1.00  0.00    -0.286 N  
HETATM    7  C   UNL     1      -9.572  16.789  65.872  1.00  0.00    -0.178 C  
HETATM    8  C   UNL     1      -9.460  17.882  66.634  1.00  0.00    -0.298 C  
HETATM    9  N   UNL     1     -10.078  17.654  67.843  1.00  0.00    -0.327 N  
HETATM   10  C   UNL     1     -10.616  16.329  67.858  1.00  0.00    -0.318 C  
HETATM   11  C   UNL     1     -10.109  18.612  68.925  1.00  0.00    -0.311 C  
HETATM   12  S   UNL     1     -11.386  15.590  69.134  1.00  0.00    -0.354 S  
ENDBRANCH   3   4
ENDBRANCH   2   3
TORSDOF 2
ENDMDL
MODEL       69
REMARK 921   NORMALIZED FREE ENERGY PREDICTED BY IDOCK:   -3.25 KCAL/MOL
REMARK 922        TOTAL FREE ENERGY PREDICTED BY IDOCK:   -3.72 KCAL/MOL
REMARK 923 INTER-LIGAND FREE ENERGY PREDICTED BY IDOCK:   -3.53 KCAL/MOL
REMARK 924 INTRA-LIGAND FREE ENERGY PREDICTED BY IDOCK:   -0.19 KCAL/MOL
REMARK 927      BINDING AFFINITY PREDICTED BY RF-SCORE:    0.00 PKD
ROOT
HETATM    1  C   UNL     1     -12.791  10.480  70.860  1.00  0.00    -0.485 C  
HETATM    2  C   UNL     1     -13.323   9.714  72.063  1.00  0.00    -0.457 C  
ENDROOT
BRANCH   2   3
HETATM    3  O   UNL     1     -12.427   8.638  72.366  1.00  0.00    -0.382 OA 
BRANCH   3   4
HETATM    4  C   UNL     1     -12.583   7.521  71.606  1.00  0.00    -0.348 C  
HETATM    5  O   UNL     1     -13.636   6.890  71.541  1.00  0.00    -0.301 OA 
HETATM    6  N   UNL     1     -11.467   7.252  70.809  1.00  0.00    -0.291 N  
HETATM    7  C   UNL     1     -11.590   6.455  69.676  1.00  0.00    -0.282 C  
HETATM    8  C   UNL     1     -10.428   6.404  69.017  1.00  0.00    -0.224 C  
HETATM    9  N   UNL     1      -9.488   7.139  69.703  1.00  0.00    -0.152 N  
HETATM   10  C   UNL     1     -10.085   7.692  70.879  1.00  0.00    -0.191 C  
HETATM   11  C   UNL     1      -8.106   7.263  69.294  1.00  0.00    -0.124 C  
HETATM   12  S   UNL     1      -9.315   8.591  72.047  1.00  0.00    -0.297 S  
ENDBRANCH   3   4
ENDBRANCH   2   3
TORSDOF 2
ENDMDL
MODEL       70
REMARK 921   NORMALIZED FREE ENERGY PREDICTED BY IDOCK:   -3.23 KCAL/MOL
REMARK 922        TOTAL FREE ENERGY PREDICTED BY IDOCK:   -3.70 KCAL/MOL
REMARK 923 INTER-LIGAND FREE ENERGY PREDICTED BY IDOCK:   -3.53 KCAL/MOL
REMARK 924 INTRA-LIGAND FREE ENERGY PREDICTED BY IDOCK:   -0.18 KCAL/MOL
REMARK 927      BINDING AFFINITY PREDICTED BY RF-SCORE:    0.00 PKD
ROOT
HETATM    1  C   UNL     1      -7.381  15.578  67.572  1.00  0.00    -0.216 C  
HETATM    2  C   UNL     1      -8.856  15.948  67.613  1.00  0.00    -0.174 C  
ENDROOT
BRANCH   2   3
HETATM    3  O   UNL     1      -9.607  14.826  68.093  1.00  0.00    -0.200 OA 
BRANCH   3   4
HETATM    4  C   UNL     1     -10.910  14.793  67.706  1.00  0.00    -0.278 C  
HETATM    5  O   UNL     1     -11.768  15.551  68.155  1.00  0.00    -0.342 OA 
HETATM    6  N   UNL     1     -11.137  13.901  66.654  1.00  0.00    -0.302 N  
HETATM    7  C   UNL     1     -12.259  14.042  65.844  1.00  0.00    -0.456 C  
HETATM    8  C   UNL     1     -12.230  13.146  64.853  1.00  0.00    -0.428 C  
HETATM    9  N   UNL     1     -11.107  12.361  64.986  1.00  0.00    -0.295 N  
HETATM   10  C   UNL     1     -10.372  12.779  66.140  1.00  0.00    -0.269 C  
HETATM   11  C   UNL     1     -10.784  11.259  64.107  1.00  0.00    -0.369 C  
HETATM   12  S   UNL     1      -8.986  12.077  66.734  1.00  0.00    -0.196 S  
ENDBRANCH   3   4
ENDBRANCH   2   3
TORSDOF 2
ENDMDL
MODEL       71
REMARK 921   NORMALIZED FREE ENERGY PREDICTED BY IDOCK:   -3.23 KCAL/MOL
REMARK 922        TOTAL FREE ENERGY PREDICTED BY IDOCK:   -3.70 KCAL/MOL
REMARK 923 INTER-LIGAND FREE ENERGY PREDICTED BY IDOCK:   -3.49 KCAL/MOL
REMARK 924 INTRA-LIGAND FREE ENERGY PREDICTED BY IDOCK:   -0.20 KCAL/MOL
REMARK 927      BINDING AFFINITY PREDICTED BY RF-SCORE:    0.00 PKD
ROOT
HETATM    1  C   UNL     1      -6.109  21.143  67.584  1.00  0.00    -0.425 C  
HETATM    2  C   UNL     1      -5.806  20.775  69.029  1.00  0.00    -0.342 C  
ENDROOT
BRANCH   2   3
HETATM    3  O   UNL     1      -6.773  19.817  69.480  1.00  0.00    -0.340 OA 
BRANCH   3   4
HETATM    4  C   UNL     1      -6.491  18.522  69.173  1.00  0.00    -0.263 C  
HETATM    5  O   UNL     1      -5.360  18.044  69.237  1.00  0.00    -0.184 OA 
HETATM    6  N   UNL     1      -7.639  17.769  68.910  1.00  0.00    -0.259 N  
HETATM    7  C   UNL     1      -7.607  16.383  69.016  1.00  0.00    -0.232 C  
HETATM    8  C   UNL     1      -8.827  15.875  68.812  1.00  0.00    -0.213 C  
HETATM    9  N   UNL     1      -9.702  16.901  68.535  1.00  0.00    -0.253 N  
HETATM   10  C   UNL     1      -8.997  18.145  68.559  1.00  0.00    -0.296 C  
HETATM   11  C   UNL     1     -11.100  16.705  68.220  1.00  0.00    -0.295 C  
HETATM   12  S   UNL     1      -9.628  19.644  68.213  1.00  0.00    -0.392 S  
ENDBRANCH   3   4
ENDBRANCH   2   3
TORSDOF 2
ENDMDL
MODEL       72
REMARK 921   NORMALIZED FREE ENERGY PREDICTED BY IDOCK:   -3.23 KCAL/MOL
REMARK 922        TOTAL FREE ENERGY PREDICTED BY IDOCK:   -3.70 KCAL/MOL
REMARK 923 INTER-LIGAND FREE ENERGY PREDICTED BY IDOCK:   -3.65 KCAL/MOL
REMARK 924 INTRA-LIGAND FREE ENERGY PREDICTED BY IDOCK:   -0.04 KCAL/MOL
REMARK 927      BINDING AFFINITY PREDICTED BY RF-SCORE:    0.00 PKD
ROOT
HETATM    1  C   UNL     1      -5.701  20.818  68.986  1.00  0.00    -0.401 C  
HETATM    2  C   UNL     1      -6.252  19.546  69.612  1.00  0.00    -0.303 C  
ENDROOT
BRANCH   2   3
HETATM    3  O   UNL     1      -6.242  18.499  68.633  1.00  0.00    -0.201 OA 
BRANCH   3   4
HETATM    4  C   UNL     1      -7.260  17.604  68.733  1.00  0.00    -0.268 C  
HETATM    5  O   UNL     1      -7.228  16.623  69.475  1.00  0.00    -0.196 OA 
HETATM    6  N   UNL     1      -8.390  17.991  68.007  1.00  0.00    -0.253 N  
HETATM    7  C   UNL     1      -9.640  17.469  68.324  1.00  0.00    -0.299 C  
HETATM    8  C   UNL     1     -10.585  18.040  67.570  1.00  0.00    -0.388 C  
HETATM    9  N   UNL     1      -9.994  18.935  66.707  1.00  0.00    -0.337 N  
HETATM   10  C   UNL     1      -8.580  18.934  66.920  1.00  0.00    -0.291 C  
HETATM   11  C   UNL     1     -10.719  19.699  65.717  1.00  0.00    -0.392 C  
HETATM   12  S   UNL     1      -7.452  19.805  66.060  1.00  0.00    -0.324 S  
ENDBRANCH   3   4
ENDBRANCH   2   3
TORSDOF 2
ENDMDL
MODEL       73
REMARK 921   NORMALIZED FREE ENERGY PREDICTED BY IDOCK:   -3.22 KCAL/MOL
REMARK 922        TOTAL FREE ENERGY PREDICTED BY IDOCK:   -3.69 KCAL/MOL
REMARK 923 INTER-LIGAND FREE ENERGY PREDICTED BY IDOCK:   -3.54 KCAL/MOL
REMARK 924 INTRA-LIGAND FREE ENERGY PREDICTED BY IDOCK:   -0.15 KCAL/MOL
REMARK 927      BINDING AFFINITY PREDICTED BY RF-SCORE:    0.00 PKD
ROOT
HETATM    1  C   UNL     1     -12.621  11.915  63.501  1.00  0.00    -0.579 C  
HETATM    2  C   UNL     1     -11.707  12.666  64.459  1.00  0.00    -0.359 C  
ENDROOT
BRANCH   2   3
HETATM    3  O   UNL     1     -11.930  12.186  65.791  1.00  0.00    -0.536 OA 
BRANCH   3   4
HETATM    4  C   UNL     1     -10.861  11.580  66.374  1.00  0.00    -0.285 C  
HETATM    5  O   UNL     1     -10.527  10.422  66.133  1.00  0.00    -0.225 OA 
HETATM    6  N   UNL     1     -10.114  12.455  67.168  1.00  0.00    -0.212 N  
HETATM    7  C   UNL     1      -8.789  12.164  67.475  1.00  0.00    -0.175 C  
HETATM    8  C   UNL     1      -8.241  13.170  68.162  1.00  0.00    -0.160 C  
HETATM    9  N   UNL     1      -9.188  14.149  68.362  1.00  0.00    -0.202 N  
HETATM   10  C   UNL     1     -10.423  13.741  67.767  1.00  0.00    -0.240 C  
HETATM   11  C   UNL     1      -8.948  15.364  69.108  1.00  0.00    -0.245 C  
HETATM   12  S   UNL     1     -11.864  14.570  67.817  1.00  0.00    -0.320 S  
ENDBRANCH   3   4
ENDBRANCH   2   3
TORSDOF 2
ENDMDL
MODEL       74
REMARK 921   NORMALIZED FREE ENERGY PREDICTED BY IDOCK:   -3.22 KCAL/MOL
REMARK 922        TOTAL FREE ENERGY PREDICTED BY IDOCK:   -3.69 KCAL/MOL
REMARK 923 INTER-LIGAND FREE ENERGY PREDICTED BY IDOCK:   -3.58 KCAL/MOL
REMARK 924 INTRA-LIGAND FREE ENERGY PREDICTED BY IDOCK:   -0.11 KCAL/MOL
REMARK 927      BINDING AFFINITY PREDICTED BY RF-SCORE:    0.00 PKD
ROOT
HETATM    1  C   UNL     1      -8.218  17.270  66.752  1.00  0.00    -0.279 C  
HETATM    2  C   UNL     1      -9.584  17.796  66.337  1.00  0.00    -0.283 C  
ENDROOT
BRANCH   2   3
HETATM    3  O   UNL     1     -10.599  16.929  66.860  1.00  0.00    -0.297 OA 
BRANCH   3   4
HETATM    4  C   UNL     1     -10.698  16.906  68.216  1.00  0.00    -0.377 C  
HETATM    5  O   UNL     1     -10.604  17.912  68.918  1.00  0.00    -0.242 OA 
HETATM    6  N   UNL     1     -11.048  15.646  68.709  1.00  0.00    -0.287 N  
HETATM    7  C   UNL     1     -11.619  15.521  69.972  1.00  0.00    -0.341 C  
HETATM    8  C   UNL     1     -11.957  14.249  70.203  1.00  0.00    -0.326 C  
HETATM    9  N   UNL     1     -11.597  13.482  69.118  1.00  0.00    -0.289 N  
HETATM   10  C   UNL     1     -10.985  14.316  68.130  1.00  0.00    -0.246 C  
HETATM   11  C   UNL     1     -11.777  12.049  69.048  1.00  0.00    -0.325 C  
HETATM   12  S   UNL     1     -10.330  13.817  66.685  1.00  0.00    -0.283 S  
ENDBRANCH   3   4
ENDBRANCH   2   3
TORSDOF 2
ENDMDL
MODEL       75
REMARK 921   NORMALIZED FREE ENERGY PREDICTED BY IDOCK:   -3.22 KCAL/MOL
REMARK 922        TOTAL FREE ENERGY PREDICTED BY IDOCK:   -3.69 KCAL/MOL
REMARK 923 INTER-LIGAND FREE ENERGY PREDICTED BY IDOCK:   -3.53 KCAL/MOL
REMARK 924 INTRA-LIGAND FREE ENERGY PREDICTED BY IDOCK:   -0.16 KCAL/MOL
REMARK 927      BINDING AFFINITY PREDICTED BY RF-SCORE:    0.00 PKD
ROOT
HETATM    1  C   UNL     1     -12.901  15.526  70.814  1.00  0.00    -0.513 C  
HETATM    2  C   UNL     1     -12.366  14.493  69.833  1.00  0.00    -0.298 C  
ENDROOT
BRANCH   2   3
HETATM    3  O   UNL     1     -11.680  15.167  68.771  1.00  0.00    -0.329 OA 
BRANCH   3   4
HETATM    4  C   UNL     1     -10.349  14.902  68.682  1.00  0.00    -0.237 C  
HETATM    5  O   UNL     1      -9.510  15.398  69.432  1.00  0.00    -0.246 OA 
HETATM    6  N   UNL     1     -10.059  13.911  67.740  1.00  0.00    -0.237 N  
HETATM    7  C   UNL     1      -8.864  13.203  67.813  1.00  0.00    -0.191 C  
HETATM    8  C   UNL     1      -8.833  12.249  66.878  1.00  0.00    -0.207 C  
HETATM    9  N   UNL     1      -9.989  12.309  66.133  1.00  0.00    -0.238 N  
HETATM   10  C   UNL     1     -10.812  13.373  66.621  1.00  0.00    -0.282 C  
HETATM   11  C   UNL     1     -10.269  11.448  65.006  1.00  0.00    -0.281 C  
HETATM   12  S   UNL     1     -12.269  13.864  65.988  1.00  0.00    -0.468 S  
ENDBRANCH   3   4
ENDBRANCH   2   3
TORSDOF 2
ENDMDL
MODEL       76
REMARK 921   NORMALIZED FREE ENERGY PREDICTED BY IDOCK:   -3.21 KCAL/MOL
REMARK 922        TOTAL FREE ENERGY PREDICTED BY IDOCK:   -3.68 KCAL/MOL
REMARK 923 INTER-LIGAND FREE ENERGY PREDICTED BY IDOCK:   -3.60 KCAL/MOL
REMARK 924 INTRA-LIGAND FREE ENERGY PREDICTED BY IDOCK:   -0.08 KCAL/MOL
REMARK 927      BINDING AFFINITY PREDICTED BY RF-SCORE:    0.00 PKD
ROOT
HETATM    1  C   UNL     1      -8.447   9.144  63.450  1.00  0.00    -0.195 C  
HETATM    2  C   UNL     1      -9.166  10.484  63.395  1.00  0.00    -0.276 C  
ENDROOT
BRANCH   2   3
HETATM    3  O   UNL     1     -10.231  10.484  64.353  1.00  0.00    -0.346 OA 
BRANCH   3   4
HETATM    4  C   UNL     1      -9.948  11.097  65.534  1.00  0.00    -0.249 C  
HETATM    5  O   UNL     1      -9.411  10.524  66.481  1.00  0.00    -0.160 OA 
HETATM    6  N   UNL     1     -10.208  12.470  65.504  1.00  0.00    -0.273 N  
HETATM    7  C   UNL     1      -9.590  13.321  66.414  1.00  0.00    -0.254 C  
HETATM    8  C   UNL     1      -9.908  14.592  66.149  1.00  0.00    -0.318 C  
HETATM    9  N   UNL     1     -10.770  14.627  65.076  1.00  0.00    -0.404 N  
HETATM   10  C   UNL     1     -11.023  13.293  64.628  1.00  0.00    -0.370 C  
HETATM   11  C   UNL     1     -11.350  15.842  64.548  1.00  0.00    -0.316 C  
HETATM   12  S   UNL     1     -12.056  12.842  63.404  1.00  0.00    -0.436 S  
ENDBRANCH   3   4
ENDBRANCH   2   3
TORSDOF 2
ENDMDL
MODEL       77
REMARK 921   NORMALIZED FREE ENERGY PREDICTED BY IDOCK:   -3.14 KCAL/MOL
REMARK 922        TOTAL FREE ENERGY PREDICTED BY IDOCK:   -3.60 KCAL/MOL
REMARK 923 INTER-LIGAND FREE ENERGY PREDICTED BY IDOCK:   -3.48 KCAL/MOL
REMARK 924 INTRA-LIGAND FREE ENERGY PREDICTED BY IDOCK:   -0.12 KCAL/MOL
REMARK 927      BINDING AFFINITY PREDICTED BY RF-SCORE:    0.00 PKD
ROOT
HETATM    1  C   UNL     1      -7.888  11.172  69.301  1.00  0.00    -0.007 C  
HETATM    2  C   UNL     1      -8.905  11.110  68.171  1.00  0.00    -0.148 C  
ENDROOT
BRANCH   2   3
HETATM    3  O   UNL     1     -10.139  11.684  68.621  1.00  0.00    -0.211 OA 
BRANCH   3   4
HETATM    4  C   UNL     1     -11.052  10.795  69.095  1.00  0.00    -0.249 C  
HETATM    5  O   UNL     1     -11.074   9.610  68.768  1.00  0.00    -0.162 OA 
HETATM    6  N   UNL     1     -11.870  11.342  70.088  1.00  0.00    -0.339 N  
HETATM    7  C   UNL     1     -12.537  10.511  70.983  1.00  0.00    -0.400 C  
HETATM    8  C   UNL     1     -13.184  11.241  71.897  1.00  0.00    -0.386 C  
HETATM    9  N   UNL     1     -12.996  12.577  71.624  1.00  0.00    -0.357 N  
HETATM   10  C   UNL     1     -12.179  12.711  70.458  1.00  0.00    -0.299 C  
HETATM   11  C   UNL     1     -13.593  13.648  72.390  1.00  0.00    -0.602 C  
HETATM   12  S   UNL     1     -11.747  14.135  69.714  1.00  0.00    -0.320 S  
ENDBRANCH   3   4
ENDBRANCH   2   3
TORSDOF 2
ENDMDL
MODEL       78
REMARK 921   NORMALIZED FREE ENERGY PREDICTED BY IDOCK:   -3.14 KCAL/MOL
REMARK 922        TOTAL FREE ENERGY PREDICTED BY IDOCK:   -3.60 KCAL/MOL
REMARK 923 INTER-LIGAND FREE ENERGY PREDICTED BY IDOCK:   -3.43 KCAL/MOL
REMARK 924 INTRA-LIGAND FREE ENERGY PREDICTED BY IDOCK:   -0.16 KCAL/MOL
REMARK 927      BINDING AFFINITY PREDICTED BY RF-SCORE:    0.00 PKD
ROOT
HETATM    1  C   UNL     1     -10.208   6.700  68.950  1.00  0.00    -0.195 C  
HETATM    2  C   UNL     1      -8.833   7.177  69.397  1.00  0.00    -0.136 C  
ENDROOT
BRANCH   2   3
HETATM    3  O   UNL     1      -8.977   7.983  70.573  1.00  0.00    -0.148 OA 
BRANCH   3   4
HETATM    4  C   UNL     1      -9.398   9.257  70.354  1.00  0.00    -0.250 C  
HETATM    5  O   UNL     1      -8.757  10.078  69.700  1.00  0.00    -0.186 OA 
HETATM    6  N   UNL     1     -10.690   9.487  70.835  1.00  0.00    -0.310 N  
HETATM    7  C   UNL     1     -11.448  10.541  70.334  1.00  0.00    -0.341 C  
HETATM    8  C   UNL     1     -12.675  10.521  70.863  1.00  0.00    -0.402 C  
HETATM    9  N   UNL     1     -12.766   9.476  71.755  1.00  0.00    -0.373 N  
HETATM   10  C   UNL     1     -11.515   8.784  71.802  1.00  0.00    -0.342 C  
HETATM   11  C   UNL     1     -13.944   9.188  72.542  1.00  0.00    -0.380 C  
HETATM   12  S   UNL     1     -11.134   7.500  72.788  1.00  0.00    -0.371 S  
ENDBRANCH   3   4
ENDBRANCH   2   3
TORSDOF 2
ENDMDL
MODEL       79
REMARK 921   NORMALIZED FREE ENERGY PREDICTED BY IDOCK:   -3.13 KCAL/MOL
REMARK 922        TOTAL FREE ENERGY PREDICTED BY IDOCK:   -3.59 KCAL/MOL
REMARK 923 INTER-LIGAND FREE ENERGY PREDICTED BY IDOCK:   -3.48 KCAL/MOL
REMARK 924 INTRA-LIGAND FREE ENERGY PREDICTED BY IDOCK:   -0.11 KCAL/MOL
REMARK 927      BINDING AFFINITY PREDICTED BY RF-SCORE:    0.00 PKD
ROOT
HETATM    1  C   UNL     1      -8.245   6.458  69.341  1.00  0.00    -0.118 C  
HETATM    2  C   UNL     1      -9.578   6.951  68.799  1.00  0.00    -0.134 C  
ENDROOT
BRANCH   2   3
HETATM    3  O   UNL     1     -10.141   7.891  69.724  1.00  0.00    -0.191 OA 
BRANCH   3   4
HETATM    4  C   UNL     1     -11.275   7.478  70.350  1.00  0.00    -0.253 C  
HETATM    5  O   UNL     1     -11.577   6.295  70.491  1.00  0.00    -0.363 OA 
HETATM    6  N   UNL     1     -11.985   8.535  70.928  1.00  0.00    -0.234 N  
HETATM    7  C   UNL     1     -12.891   8.292  71.955  1.00  0.00    -0.344 C  
HETATM    8  C   UNL     1     -13.386   9.444  72.418  1.00  0.00    -0.424 C  
HETATM    9  N   UNL     1     -12.850  10.487  71.698  1.00  0.00    -0.448 N  
HETATM   10  C   UNL     1     -11.959   9.969  70.706  1.00  0.00    -0.335 C  
HETATM   11  C   UNL     1     -13.201  11.874  71.905  1.00  0.00    -0.362 C  
HETATM   12  S   UNL     1     -11.138  10.852  69.560  1.00  0.00    -0.274 S  
ENDBRANCH   3   4
ENDBRANCH   2   3
TORSDOF 2
ENDMDL
MODEL       80
REMARK 921   NORMALIZED FREE ENERGY PREDICTED BY IDOCK:   -3.13 KCAL/MOL
REMARK 922        TOTAL FREE ENERGY PREDICTED BY IDOCK:   -3.59 KCAL/MOL
REMARK 923 INTER-LIGAND FREE ENERGY PREDICTED BY IDOCK:   -3.46 KCAL/MOL
REMARK 924 INTRA-LIGAND FREE ENERGY PREDICTED BY IDOCK:   -0.13 KCAL/MOL
REMARK 927      BINDING AFFINITY PREDICTED BY RF-SCORE:    0.00 PKD
ROOT
HETATM    1  C   UNL     1     -11.551  14.241  68.432  1.00  0.00    -0.354 C  
HETATM    2  C   UNL     1     -11.754  15.749  68.464  1.00  0.00    -0.319 C  
ENDROOT
BRANCH   2   3
HETATM    3  O   UNL     1     -10.577  16.367  69.001  1.00  0.00    -0.265 OA 
BRANCH   3   4
HETATM    4  C   UNL     1     -10.184  17.507  68.371  1.00  0.00    -0.372 C  
HETATM    5  O   UNL     1     -10.966  18.273  67.810  1.00  0.00    -0.321 OA 
HETATM    6  N   UNL     1      -8.824  17.777  68.546  1.00  0.00    -0.287 N  
HETATM    7  C   UNL     1      -8.338  19.069  68.374  1.00  0.00    -0.348 C  
HETATM    8  C   UNL     1      -7.038  19.118  68.678  1.00  0.00    -0.318 C  
HETATM    9  N   UNL     1      -6.608  17.859  69.033  1.00  0.00    -0.240 N  
HETATM   10  C   UNL     1      -7.704  16.944  68.946  1.00  0.00    -0.237 C  
HETATM   11  C   UNL     1      -5.241  17.541  69.381  1.00  0.00    -0.176 C  
HETATM   12  S   UNL     1      -7.643  15.303  69.213  1.00  0.00    -0.224 S  
ENDBRANCH   3   4
ENDBRANCH   2   3
TORSDOF 2
ENDMDL
MODEL       81
REMARK 921   NORMALIZED FREE ENERGY PREDICTED BY IDOCK:   -3.13 KCAL/MOL
REMARK 922        TOTAL FREE ENERGY PREDICTED BY IDOCK:   -3.59 KCAL/MOL
REMARK 923 INTER-LIGAND FREE ENERGY PREDICTED BY IDOCK:   -3.44 KCAL/MOL
REMARK 924 INTRA-LIGAND FREE ENERGY PREDICTED BY IDOCK:   -0.15 KCAL/MOL
REMARK 927      BINDING AFFINITY PREDICTED BY RF-SCORE:    0.00 PKD
ROOT
HETATM    1  C   UNL     1      -8.310  13.303  68.209  1.00  0.00    -0.154 C  
HETATM    2  C   UNL     1      -9.577  12.497  67.961  1.00  0.00    -0.212 C  
ENDROOT
BRANCH   2   3
HETATM    3  O   UNL     1     -10.609  13.378  67.499  1.00  0.00    -0.247 OA 
BRANCH   3   4
HETATM    4  C   UNL     1     -11.066  14.267  68.421  1.00  0.00    -0.256 C  
HETATM    5  O   UNL     1     -11.462  13.939  69.538  1.00  0.00    -0.264 OA 
HETATM    6  N   UNL     1     -10.911  15.595  68.012  1.00  0.00    -0.308 N  
HETATM    7  C   UNL     1     -10.897  16.621  68.950  1.00  0.00    -0.321 C  
HETATM    8  C   UNL     1     -10.648  17.790  68.354  1.00  0.00    -0.291 C  
HETATM    9  N   UNL     1     -10.519  17.588  66.998  1.00  0.00    -0.319 N  
HETATM   10  C   UNL     1     -10.701  16.199  66.708  1.00  0.00    -0.235 C  
HETATM   11  C   UNL     1     -10.288  18.647  66.042  1.00  0.00    -0.399 C  
HETATM   12  S   UNL     1     -10.702  15.498  65.200  1.00  0.00    -0.438 S  
ENDBRANCH   3   4
ENDBRANCH   2   3
TORSDOF 2
ENDMDL
MODEL       82
REMARK 921   NORMALIZED FREE ENERGY PREDICTED BY IDOCK:   -3.12 KCAL/MOL
REMARK 922        TOTAL FREE ENERGY PREDICTED BY IDOCK:   -3.58 KCAL/MOL
REMARK 923 INTER-LIGAND FREE ENERGY PREDICTED BY IDOCK:   -3.47 KCAL/MOL
REMARK 924 INTRA-LIGAND FREE ENERGY PREDICTED BY IDOCK:   -0.11 KCAL/MOL
REMARK 927      BINDING AFFINITY PREDICTED BY RF-SCORE:    0.00 PKD
ROOT
HETATM    1  C   UNL     1     -13.102  15.324  70.834  1.00  0.00    -0.523 C  
HETATM    2  C   UNL     1     -11.726  15.887  70.511  1.00  0.00    -0.373 C  
ENDROOT
BRANCH   2   3
HETATM    3  O   UNL     1     -11.636  16.123  69.100  1.00  0.00    -0.342 OA 
BRANCH   3   4
HETATM    4  C   UNL     1     -10.688  15.397  68.450  1.00  0.00    -0.256 C  
HETATM    5  O   UNL     1     -10.710  14.169  68.376  1.00  0.00    -0.243 OA 
HETATM    6  N   UNL     1      -9.768  16.199  67.769  1.00  0.00    -0.228 N  
HETATM    7  C   UNL     1      -9.022  15.674  66.720  1.00  0.00    -0.261 C  
HETATM    8  C   UNL     1      -8.278  16.630  66.156  1.00  0.00    -0.260 C  
HETATM    9  N   UNL     1      -8.481  17.815  66.828  1.00  0.00    -0.239 N  
HETATM   10  C   UNL     1      -9.411  17.601  67.893  1.00  0.00    -0.268 C  
HETATM   11  C   UNL     1      -7.799  19.049  66.510  1.00  0.00    -0.268 C  
HETATM   12  S   UNL     1      -9.903  18.727  69.014  1.00  0.00    -0.214 S  
ENDBRANCH   3   4
ENDBRANCH   2   3
TORSDOF 2
ENDMDL
MODEL       83
REMARK 921   NORMALIZED FREE ENERGY PREDICTED BY IDOCK:   -3.11 KCAL/MOL
REMARK 922        TOTAL FREE ENERGY PREDICTED BY IDOCK:   -3.57 KCAL/MOL
REMARK 923 INTER-LIGAND FREE ENERGY PREDICTED BY IDOCK:   -3.43 KCAL/MOL
REMARK 924 INTRA-LIGAND FREE ENERGY PREDICTED BY IDOCK:   -0.15 KCAL/MOL
REMARK 927      BINDING AFFINITY PREDICTED BY RF-SCORE:    0.00 PKD
ROOT
HETATM    1  C   UNL     1      -7.712   6.630  73.708  1.00  0.00    -0.087 C  
HETATM    2  C   UNL     1      -8.849   7.611  73.460  1.00  0.00    -0.230 C  
ENDROOT
BRANCH   2   3
HETATM    3  O   UNL     1      -9.534   7.239  72.257  1.00  0.00    -0.141 OA 
BRANCH   3   4
HETATM    4  C   UNL     1     -10.891   7.225  72.345  1.00  0.00    -0.255 C  
HETATM    5  O   UNL     1     -11.524   6.315  72.876  1.00  0.00    -0.204 OA 
HETATM    6  N   UNL     1     -11.472   8.412  71.888  1.00  0.00    -0.295 N  
HETATM    7  C   UNL     1     -12.755   8.766  72.293  1.00  0.00    -0.402 C  
HETATM    8  C   UNL     1     -13.075   9.972  71.816  1.00  0.00    -0.457 C  
HETATM    9  N   UNL     1     -12.032  10.447  71.054  1.00  0.00    -0.367 N  
HETATM   10  C   UNL     1     -10.977   9.481  71.040  1.00  0.00    -0.353 C  
HETATM   11  C   UNL     1     -12.058  11.709  70.348  1.00  0.00    -0.373 C  
HETATM   12  S   UNL     1      -9.549   9.591  70.194  1.00  0.00    -0.260 S  
ENDBRANCH   3   4
ENDBRANCH   2   3
TORSDOF 2
ENDMDL
MODEL       84
REMARK 921   NORMALIZED FREE ENERGY PREDICTED BY IDOCK:   -3.11 KCAL/MOL
REMARK 922        TOTAL FREE ENERGY PREDICTED BY IDOCK:   -3.56 KCAL/MOL
REMARK 923 INTER-LIGAND FREE ENERGY PREDICTED BY IDOCK:   -3.47 KCAL/MOL
REMARK 924 INTRA-LIGAND FREE ENERGY PREDICTED BY IDOCK:   -0.10 KCAL/MOL
REMARK 927      BINDING AFFINITY PREDICTED BY RF-SCORE:    0.00 PKD
ROOT
HETATM    1  C   UNL     1     -13.172  14.659  71.111  1.00  0.00    -0.431 C  
HETATM    2  C   UNL     1     -12.061  15.380  70.362  1.00  0.00    -0.372 C  
ENDROOT
BRANCH   2   3
HETATM    3  O   UNL     1     -11.143  14.411  69.839  1.00  0.00    -0.216 OA 
BRANCH   3   4
HETATM    4  C   UNL     1     -11.320  14.096  68.528  1.00  0.00    -0.283 C  
HETATM    5  O   UNL     1     -12.121  13.248  68.139  1.00  0.00    -0.330 OA 
HETATM    6  N   UNL     1     -10.593  14.928  67.672  1.00  0.00    -0.260 N  
HETATM    7  C   UNL     1     -10.967  15.061  66.339  1.00  0.00    -0.336 C  
HETATM    8  C   UNL     1     -10.197  15.968  65.730  1.00  0.00    -0.377 C  
HETATM    9  N   UNL     1      -9.268  16.446  66.626  1.00  0.00    -0.236 N  
HETATM   10  C   UNL     1      -9.452  15.800  67.889  1.00  0.00    -0.212 C  
HETATM   11  C   UNL     1      -8.245  17.412  66.290  1.00  0.00    -0.253 C  
HETATM   12  S   UNL     1      -8.517  16.007  69.249  1.00  0.00    -0.159 S  
ENDBRANCH   3   4
ENDBRANCH   2   3
TORSDOF 2
ENDMDL
MODEL       85
REMARK 921   NORMALIZED FREE ENERGY PREDICTED BY IDOCK:   -3.10 KCAL/MOL
REMARK 922        TOTAL FREE ENERGY PREDICTED BY IDOCK:   -3.55 KCAL/MOL
REMARK 923 INTER-LIGAND FREE ENERGY PREDICTED BY IDOCK:   -3.41 KCAL/MOL
REMARK 924 INTRA-LIGAND FREE ENERGY PREDICTED BY IDOCK:   -0.14 KCAL/MOL
REMARK 927      BINDING AFFINITY PREDICTED BY RF-SCORE:    0.00 PKD
ROOT
HETATM    1  C   UNL     1     -12.582  11.969  63.546  1.00  0.00    -0.625 C  
HETATM    2  C   UNL     1     -12.479  12.749  64.848  1.00  0.00    -0.497 C  
ENDROOT
BRANCH   2   3
HETATM    3  O   UNL     1     -11.106  13.083  65.086  1.00  0.00    -0.285 OA 
BRANCH   3   4
HETATM    4  C   UNL     1     -10.800  13.388  66.376  1.00  0.00    -0.289 C  
HETATM    5  O   UNL     1     -10.967  14.504  66.864  1.00  0.00    -0.302 OA 
HETATM    6  N   UNL     1     -10.404  12.269  67.114  1.00  0.00    -0.217 N  
HETATM    7  C   UNL     1     -10.481  12.282  68.503  1.00  0.00    -0.232 C  
HETATM    8  C   UNL     1     -10.142  11.088  68.997  1.00  0.00    -0.180 C  
HETATM    9  N   UNL     1      -9.801  10.250  67.959  1.00  0.00    -0.149 N  
HETATM   10  C   UNL     1      -9.925  10.956  66.721  1.00  0.00    -0.205 C  
HETATM   11  C   UNL     1      -9.341   8.891  68.138  1.00  0.00    -0.142 C  
HETATM   12  S   UNL     1      -9.552  10.370  65.210  1.00  0.00    -0.284 S  
ENDBRANCH   3   4
ENDBRANCH   2   3
TORSDOF 2
ENDMDL
MODEL       86
REMARK 921   NORMALIZED FREE ENERGY PREDICTED BY IDOCK:   -3.06 KCAL/MOL
REMARK 922        TOTAL FREE ENERGY PREDICTED BY IDOCK:   -3.51 KCAL/MOL
REMARK 923 INTER-LIGAND FREE ENERGY PREDICTED BY IDOCK:   -3.38 KCAL/MOL
REMARK 924 INTRA-LIGAND FREE ENERGY PREDICTED BY IDOCK:   -0.13 KCAL/MOL
REMARK 927      BINDING AFFINITY PREDICTED BY RF-SCORE:    0.00 PKD
ROOT
HETATM    1  C   UNL     1      -9.789   9.451  65.925  1.00  0.00    -0.362 C  
HETATM    2  C   UNL     1     -10.101   8.971  67.336  1.00  0.00    -0.230 C  
ENDROOT
BRANCH   2   3
HETATM    3  O   UNL     1     -10.061  10.090  68.230  1.00  0.00    -0.149 OA 
BRANCH   3   4
HETATM    4  C   UNL     1     -11.238  10.380  68.847  1.00  0.00    -0.235 C  
HETATM    5  O   UNL     1     -12.127  11.050  68.325  1.00  0.00    -0.604 OA 
HETATM    6  N   UNL     1     -11.378   9.725  70.074  1.00  0.00    -0.239 N  
HETATM    7  C   UNL     1     -12.640   9.534  70.627  1.00  0.00     0.001 C  
HETATM    8  C   UNL     1     -12.550   8.811  71.748  1.00  0.00    -0.356 C  
HETATM    9  N   UNL     1     -11.226   8.523  71.994  1.00  0.00    -0.324 N  
HETATM   10  C   UNL     1     -10.417   9.102  70.966  1.00  0.00    -0.298 C  
HETATM   11  C   UNL     1     -10.762   7.791  73.151  1.00  0.00    -0.351 C  
HETATM   12  S   UNL     1      -8.756   9.073  70.885  1.00  0.00    -0.228 S  
ENDBRANCH   3   4
ENDBRANCH   2   3
TORSDOF 2
ENDMDL
MODEL       87
REMARK 921   NORMALIZED FREE ENERGY PREDICTED BY IDOCK:   -3.04 KCAL/MOL
REMARK 922        TOTAL FREE ENERGY PREDICTED BY IDOCK:   -3.48 KCAL/MOL
REMARK 923 INTER-LIGAND FREE ENERGY PREDICTED BY IDOCK:   -3.34 KCAL/MOL
REMARK 924 INTRA-LIGAND FREE ENERGY PREDICTED BY IDOCK:   -0.14 KCAL/MOL
REMARK 927      BINDING AFFINITY PREDICTED BY RF-SCORE:    0.00 PKD
ROOT
HETATM    1  C   UNL     1      -5.916  20.691  68.865  1.00  0.00    -0.390 C  
HETATM    2  C   UNL     1      -7.080  19.750  69.135  1.00  0.00    -0.314 C  
ENDROOT
BRANCH   2   3
HETATM    3  O   UNL     1      -7.338  18.973  67.958  1.00  0.00    -0.244 OA 
BRANCH   3   4
HETATM    4  C   UNL     1      -8.576  19.133  67.419  1.00  0.00    -0.286 C  
HETATM    5  O   UNL     1      -9.031  20.226  67.085  1.00  0.00    -0.343 OA 
HETATM    6  N   UNL     1      -9.213  17.916  67.165  1.00  0.00    -0.254 N  
HETATM    7  C   UNL     1     -10.250  17.847  66.240  1.00  0.00    -0.363 C  
HETATM    8  C   UNL     1     -10.651  16.581  66.087  1.00  0.00    -0.236 C  
HETATM    9  N   UNL     1      -9.918  15.771  66.924  1.00  0.00    -0.238 N  
HETATM   10  C   UNL     1      -8.990  16.571  67.663  1.00  0.00    -0.197 C  
HETATM   11  C   UNL     1     -10.120  14.345  67.047  1.00  0.00    -0.256 C  
HETATM   12  S   UNL     1      -7.947  16.035  68.843  1.00  0.00    -0.223 S  
ENDBRANCH   3   4
ENDBRANCH   2   3
TORSDOF 2
ENDMDL
MODEL       88
REMARK 921   NORMALIZED FREE ENERGY PREDICTED BY IDOCK:   -3.02 KCAL/MOL
REMARK 922        TOTAL FREE ENERGY PREDICTED BY IDOCK:   -3.47 KCAL/MOL
REMARK 923 INTER-LIGAND FREE ENERGY PREDICTED BY IDOCK:   -3.28 KCAL/MOL
REMARK 924 INTRA-LIGAND FREE ENERGY PREDICTED BY IDOCK:   -0.19 KCAL/MOL
REMARK 927      BINDING AFFINITY PREDICTED BY RF-SCORE:    0.00 PKD
ROOT
HETATM    1  C   UNL     1      -7.288  19.689  65.708  1.00  0.00    -0.320 C  
HETATM    2  C   UNL     1      -8.740  19.933  66.092  1.00  0.00    -0.307 C  
ENDROOT
BRANCH   2   3
HETATM    3  O   UNL     1      -8.869  19.845  67.517  1.00  0.00    -0.318 OA 
BRANCH   3   4
HETATM    4  C   UNL     1      -9.594  18.787  67.968  1.00  0.00    -0.321 C  
HETATM    5  O   UNL     1     -10.806  18.675  67.794  1.00  0.00    -0.390 OA 
HETATM    6  N   UNL     1      -8.795  17.786  68.529  1.00  0.00    -0.287 N  
HETATM    7  C   UNL     1      -9.273  16.484  68.634  1.00  0.00    -0.238 C  
HETATM    8  C   UNL     1      -8.319  15.678  69.110  1.00  0.00    -0.251 C  
HETATM    9  N   UNL     1      -7.188  16.420  69.367  1.00  0.00    -0.219 N  
HETATM   10  C   UNL     1      -7.435  17.789  69.037  1.00  0.00    -0.169 C  
HETATM   11  C   UNL     1      -5.976  15.872  69.933  1.00  0.00    -0.170 C  
HETATM   12  S   UNL     1      -6.382  19.060  69.247  1.00  0.00    -0.293 S  
ENDBRANCH   3   4
ENDBRANCH   2   3
TORSDOF 2
ENDMDL
MODEL       89
REMARK 921   NORMALIZED FREE ENERGY PREDICTED BY IDOCK:   -3.00 KCAL/MOL
REMARK 922        TOTAL FREE ENERGY PREDICTED BY IDOCK:   -3.45 KCAL/MOL
REMARK 923 INTER-LIGAND FREE ENERGY PREDICTED BY IDOCK:   -3.24 KCAL/MOL
REMARK 924 INTRA-LIGAND FREE ENERGY PREDICTED BY IDOCK:   -0.20 KCAL/MOL
REMARK 927      BINDING AFFINITY PREDICTED BY RF-SCORE:    0.00 PKD
ROOT
HETATM    1  C   UNL     1      -7.929   8.173  69.427  1.00  0.00    -0.114 C  
HETATM    2  C   UNL     1      -8.623   8.744  68.199  1.00  0.00    -0.134 C  
ENDROOT
BRANCH   2   3
HETATM    3  O   UNL     1      -9.995   9.009  68.517  1.00  0.00    -0.165 OA 
BRANCH   3   4
HETATM    4  C   UNL     1     -10.230  10.211  69.107  1.00  0.00    -0.214 C  
HETATM    5  O   UNL     1      -9.690  11.256  68.749  1.00  0.00    -0.205 OA 
HETATM    6  N   UNL     1     -11.245  10.150  70.066  1.00  0.00    -0.279 N  
HETATM    7  C   UNL     1     -11.922  11.305  70.446  1.00  0.00    -0.380 C  
HETATM    8  C   UNL     1     -12.905  11.006  71.300  1.00  0.00    -0.425 C  
HETATM    9  N   UNL     1     -12.897   9.650  71.541  1.00  0.00    -0.364 N  
HETATM   10  C   UNL     1     -11.837   9.043  70.796  1.00  0.00    -0.206 C  
HETATM   11  C   UNL     1     -13.801   8.988  72.455  1.00  0.00    -0.475 C  
HETATM   12  S   UNL     1     -11.402   7.438  70.829  1.00  0.00    -0.283 S  
ENDBRANCH   3   4
ENDBRANCH   2   3
TORSDOF 2
ENDMDL
MODEL       90
REMARK 921   NORMALIZED FREE ENERGY PREDICTED BY IDOCK:   -2.99 KCAL/MOL
REMARK 922        TOTAL FREE ENERGY PREDICTED BY IDOCK:   -3.43 KCAL/MOL
REMARK 923 INTER-LIGAND FREE ENERGY PREDICTED BY IDOCK:   -3.32 KCAL/MOL
REMARK 924 INTRA-LIGAND FREE ENERGY PREDICTED BY IDOCK:   -0.10 KCAL/MOL
REMARK 927      BINDING AFFINITY PREDICTED BY RF-SCORE:    0.00 PKD
ROOT
HETATM    1  C   UNL     1      -6.972   8.953  63.711  1.00  0.00    -0.088 C  
HETATM    2  C   UNL     1      -7.458   9.668  64.963  1.00  0.00    -0.116 C  
ENDROOT
BRANCH   2   3
HETATM    3  O   UNL     1      -8.844  10.000  64.804  1.00  0.00    -0.164 OA 
BRANCH   3   4
HETATM    4  C   UNL     1      -9.605   9.855  65.922  1.00  0.00    -0.239 C  
HETATM    5  O   UNL     1      -9.442   8.951  66.738  1.00  0.00    -0.161 OA 
HETATM    6  N   UNL     1     -10.497  10.916  66.106  1.00  0.00    -0.246 N  
HETATM    7  C   UNL     1     -11.023  11.178  67.367  1.00  0.00    -0.290 C  
HETATM    8  C   UNL     1     -11.775  12.283  67.334  1.00  0.00    -0.335 C  
HETATM    9  N   UNL     1     -11.799  12.774  66.048  1.00  0.00    -0.420 N  
HETATM   10  C   UNL     1     -11.016  11.928  65.203  1.00  0.00    -0.312 C  
HETATM   11  C   UNL     1     -12.555  13.939  65.644  1.00  0.00    -0.517 C  
HETATM   12  S   UNL     1     -10.813  12.088  63.560  1.00  0.00    -0.438 S  
ENDBRANCH   3   4
ENDBRANCH   2   3
TORSDOF 2
ENDMDL
MODEL       91
REMARK 921   NORMALIZED FREE ENERGY PREDICTED BY IDOCK:   -2.98 KCAL/MOL
REMARK 922        TOTAL FREE ENERGY PREDICTED BY IDOCK:   -3.42 KCAL/MOL
REMARK 923 INTER-LIGAND FREE ENERGY PREDICTED BY IDOCK:   -3.29 KCAL/MOL
REMARK 924 INTRA-LIGAND FREE ENERGY PREDICTED BY IDOCK:   -0.14 KCAL/MOL
REMARK 927      BINDING AFFINITY PREDICTED BY RF-SCORE:    0.00 PKD
ROOT
HETATM    1  C   UNL     1      -6.990  19.432  66.223  1.00  0.00    -0.242 C  
HETATM    2  C   UNL     1      -7.610  18.060  66.000  1.00  0.00    -0.205 C  
ENDROOT
BRANCH   2   3
HETATM    3  O   UNL     1      -8.723  17.899  66.888  1.00  0.00    -0.233 OA 
BRANCH   3   4
HETATM    4  C   UNL     1      -9.812  17.289  66.347  1.00  0.00    -0.299 C  
HETATM    5  O   UNL     1     -10.622  17.869  65.626  1.00  0.00    -0.587 OA 
HETATM    6  N   UNL     1      -9.834  15.913  66.589  1.00  0.00    -0.243 N  
HETATM    7  C   UNL     1     -10.586  15.070  65.778  1.00  0.00    -0.339 C  
HETATM    8  C   UNL     1     -10.392  13.795  66.128  1.00  0.00    -0.301 C  
HETATM    9  N   UNL     1      -9.531  13.748  67.202  1.00  0.00    -0.235 N  
HETATM   10  C   UNL     1      -9.153  15.079  67.563  1.00  0.00    -0.185 C  
HETATM   11  C   UNL     1      -9.137  12.526  67.866  1.00  0.00    -0.199 C  
HETATM   12  S   UNL     1      -8.184  15.516  68.843  1.00  0.00    -0.220 S  
ENDBRANCH   3   4
ENDBRANCH   2   3
TORSDOF 2
ENDMDL
MODEL       92
REMARK 921   NORMALIZED FREE ENERGY PREDICTED BY IDOCK:   -2.97 KCAL/MOL
REMARK 922        TOTAL FREE ENERGY PREDICTED BY IDOCK:   -3.41 KCAL/MOL
REMARK 923 INTER-LIGAND FREE ENERGY PREDICTED BY IDOCK:   -3.31 KCAL/MOL
REMARK 924 INTRA-LIGAND FREE ENERGY PREDICTED BY IDOCK:   -0.10 KCAL/MOL
REMARK 927      BINDING AFFINITY PREDICTED BY RF-SCORE:    0.00 PKD
ROOT
HETATM    1  C   UNL     1     -12.222  12.694  63.411  1.00  0.00    -0.610 C  
HETATM    2  C   UNL     1     -11.122  12.063  64.252  1.00  0.00    -0.351 C  
ENDROOT
BRANCH   2   3
HETATM    3  O   UNL     1     -10.410  13.097  64.943  1.00  0.00    -0.323 OA 
BRANCH   3   4
HETATM    4  C   UNL     1     -10.001  12.777  66.200  1.00  0.00    -0.266 C  
HETATM    5  O   UNL     1     -10.025  11.632  66.648  1.00  0.00    -0.198 OA 
HETATM    6  N   UNL     1      -9.431  13.862  66.873  1.00  0.00    -0.249 N  
HETATM    7  C   UNL     1      -8.578  13.648  67.950  1.00  0.00    -0.181 C  
HETATM    8  C   UNL     1      -8.078  14.810  68.383  1.00  0.00    -0.144 C  
HETATM    9  N   UNL     1      -8.605  15.836  67.631  1.00  0.00    -0.161 N  
HETATM   10  C   UNL     1      -9.502  15.296  66.656  1.00  0.00    -0.259 C  
HETATM   11  C   UNL     1      -8.313  17.233  67.856  1.00  0.00    -0.220 C  
HETATM   12  S   UNL     1     -10.421  16.162  65.574  1.00  0.00    -0.349 S  
ENDBRANCH   3   4
ENDBRANCH   2   3
TORSDOF 2
ENDMDL
MODEL       93
REMARK 921   NORMALIZED FREE ENERGY PREDICTED BY IDOCK:   -2.96 KCAL/MOL
REMARK 922        TOTAL FREE ENERGY PREDICTED BY IDOCK:   -3.40 KCAL/MOL
REMARK 923 INTER-LIGAND FREE ENERGY PREDICTED BY IDOCK:   -3.32 KCAL/MOL
REMARK 924 INTRA-LIGAND FREE ENERGY PREDICTED BY IDOCK:   -0.08 KCAL/MOL
REMARK 927      BINDING AFFINITY PREDICTED BY RF-SCORE:    0.00 PKD
ROOT
HETATM    1  C   UNL     1     -11.860  15.046  69.268  1.00  0.00    -0.344 C  
HETATM    2  C   UNL     1     -11.052  16.311  69.516  1.00  0.00    -0.330 C  
ENDROOT
BRANCH   2   3
HETATM    3  O   UNL     1     -10.093  16.468  68.462  1.00  0.00    -0.233 OA 
BRANCH   3   4
HETATM    4  C   UNL     1      -8.798  16.266  68.824  1.00  0.00    -0.243 C  
HETATM    5  O   UNL     1      -8.363  15.178  69.198  1.00  0.00    -0.197 OA 
HETATM    6  N   UNL     1      -7.994  17.387  68.597  1.00  0.00    -0.272 N  
HETATM    7  C   UNL     1      -6.615  17.249  68.479  1.00  0.00    -0.174 C  
HETATM    8  C   UNL     1      -6.057  18.424  68.175  1.00  0.00    -0.183 C  
HETATM    9  N   UNL     1      -7.038  19.387  68.111  1.00  0.00    -0.266 N  
HETATM   10  C   UNL     1      -8.306  18.791  68.396  1.00  0.00    -0.342 C  
HETATM   11  C   UNL     1      -6.780  20.785  67.846  1.00  0.00    -0.302 C  
HETATM   12  S   UNL     1      -9.767  19.580  68.501  1.00  0.00    -0.430 S  
ENDBRANCH   3   4
ENDBRANCH   2   3
TORSDOF 2
ENDMDL
MODEL       94
REMARK 921   NORMALIZED FREE ENERGY PREDICTED BY IDOCK:   -2.96 KCAL/MOL
REMARK 922        TOTAL FREE ENERGY PREDICTED BY IDOCK:   -3.40 KCAL/MOL
REMARK 923 INTER-LIGAND FREE ENERGY PREDICTED BY IDOCK:   -3.29 KCAL/MOL
REMARK 924 INTRA-LIGAND FREE ENERGY PREDICTED BY IDOCK:   -0.11 KCAL/MOL
REMARK 927      BINDING AFFINITY PREDICTED BY RF-SCORE:    0.00 PKD
ROOT
HETATM    1  C   UNL     1     -10.161  10.674  66.558  1.00  0.00    -0.288 C  
HETATM    2  C   UNL     1     -11.207  11.771  66.693  1.00  0.00    -0.323 C  
ENDROOT
BRANCH   2   3
HETATM    3  O   UNL     1     -10.672  12.831  67.496  1.00  0.00    -0.225 OA 
BRANCH   3   4
HETATM    4  C   UNL     1     -11.243  14.050  67.300  1.00  0.00    -0.312 C  
HETATM    5  O   UNL     1     -12.404  14.199  66.924  1.00  0.00    -0.419 OA 
HETATM    6  N   UNL     1     -10.414  15.102  67.700  1.00  0.00    -0.249 N  
HETATM    7  C   UNL     1     -10.957  16.349  67.994  1.00  0.00    -0.327 C  
HETATM    8  C   UNL     1     -10.005  17.175  68.439  1.00  0.00    -0.310 C  
HETATM    9  N   UNL     1      -8.795  16.518  68.428  1.00  0.00    -0.210 N  
HETATM   10  C   UNL     1      -8.985  15.187  67.940  1.00  0.00    -0.174 C  
HETATM   11  C   UNL     1      -7.541  17.130  68.806  1.00  0.00    -0.259 C  
HETATM   12  S   UNL     1      -7.796  14.051  67.686  1.00  0.00    -0.189 S  
ENDBRANCH   3   4
ENDBRANCH   2   3
TORSDOF 2
ENDMDL
MODEL       95
REMARK 921   NORMALIZED FREE ENERGY PREDICTED BY IDOCK:   -2.93 KCAL/MOL
REMARK 922        TOTAL FREE ENERGY PREDICTED BY IDOCK:   -3.37 KCAL/MOL
REMARK 923 INTER-LIGAND FREE ENERGY PREDICTED BY IDOCK:   -3.32 KCAL/MOL
REMARK 924 INTRA-LIGAND FREE ENERGY PREDICTED BY IDOCK:   -0.05 KCAL/MOL
REMARK 927      BINDING AFFINITY PREDICTED BY RF-SCORE:    0.00 PKD
ROOT
HETATM    1  C   UNL     1      -9.395  19.744  67.330  1.00  0.00    -0.452 C  
HETATM    2  C   UNL     1     -10.880  19.482  67.131  1.00  0.00    -0.437 C  
ENDROOT
BRANCH   2   3
HETATM    3  O   UNL     1     -11.132  18.078  67.275  1.00  0.00    -0.164 OA 
BRANCH   3   4
HETATM    4  C   UNL     1     -10.434  17.275  66.426  1.00  0.00    -0.263 C  
HETATM    5  O   UNL     1     -10.542  17.330  65.203  1.00  0.00    -0.686 OA 
HETATM    6  N   UNL     1      -9.493  16.482  67.088  1.00  0.00    -0.236 N  
HETATM    7  C   UNL     1      -8.413  15.948  66.392  1.00  0.00    -0.313 C  
HETATM    8  C   UNL     1      -7.595  15.305  67.230  1.00  0.00    -0.210 C  
HETATM    9  N   UNL     1      -8.115  15.362  68.503  1.00  0.00    -0.136 N  
HETATM   10  C   UNL     1      -9.349  16.086  68.478  1.00  0.00    -0.213 C  
HETATM   11  C   UNL     1      -7.508  14.731  69.653  1.00  0.00    -0.081 C  
HETATM   12  S   UNL     1     -10.366  16.348  69.767  1.00  0.00    -0.133 S  
ENDBRANCH   3   4
ENDBRANCH   2   3
TORSDOF 2
ENDMDL
MODEL       96
REMARK 921   NORMALIZED FREE ENERGY PREDICTED BY IDOCK:   -2.92 KCAL/MOL
REMARK 922        TOTAL FREE ENERGY PREDICTED BY IDOCK:   -3.35 KCAL/MOL
REMARK 923 INTER-LIGAND FREE ENERGY PREDICTED BY IDOCK:   -3.21 KCAL/MOL
REMARK 924 INTRA-LIGAND FREE ENERGY PREDICTED BY IDOCK:   -0.14 KCAL/MOL
REMARK 927      BINDING AFFINITY PREDICTED BY RF-SCORE:    0.00 PKD
ROOT
HETATM    1  C   UNL     1     -10.130   5.989  69.268  1.00  0.00    -0.235 C  
HETATM    2  C   UNL     1      -9.738   6.974  68.177  1.00  0.00    -0.133 C  
ENDROOT
BRANCH   2   3
HETATM    3  O   UNL     1     -10.778   7.950  68.031  1.00  0.00    -0.161 OA 
BRANCH   3   4
HETATM    4  C   UNL     1     -10.464   9.019  67.251  1.00  0.00    -0.273 C  
HETATM    5  O   UNL     1      -9.978   8.914  66.126  1.00  0.00    -0.291 OA 
HETATM    6  N   UNL     1     -10.875  10.232  67.809  1.00  0.00    -0.273 N  
HETATM    7  C   UNL     1     -11.049  11.352  67.003  1.00  0.00    -0.303 C  
HETATM    8  C   UNL     1     -11.530  12.371  67.722  1.00  0.00    -0.324 C  
HETATM    9  N   UNL     1     -11.663  11.974  69.033  1.00  0.00    -0.306 N  
HETATM   10  C   UNL     1     -11.236  10.615  69.163  1.00  0.00    -0.265 C  
HETATM   11  C   UNL     1     -12.117  12.843  70.097  1.00  0.00    -0.302 C  
HETATM   12  S   UNL     1     -11.153   9.736  70.573  1.00  0.00    -0.344 S  
ENDBRANCH   3   4
ENDBRANCH   2   3
TORSDOF 2
ENDMDL
MODEL       97
REMARK 921   NORMALIZED FREE ENERGY PREDICTED BY IDOCK:   -2.91 KCAL/MOL
REMARK 922        TOTAL FREE ENERGY PREDICTED BY IDOCK:   -3.35 KCAL/MOL
REMARK 923 INTER-LIGAND FREE ENERGY PREDICTED BY IDOCK:   -3.17 KCAL/MOL
REMARK 924 INTRA-LIGAND FREE ENERGY PREDICTED BY IDOCK:   -0.18 KCAL/MOL
REMARK 927      BINDING AFFINITY PREDICTED BY RF-SCORE:    0.00 PKD
ROOT
HETATM    1  C   UNL     1     -13.162  10.865  71.733  1.00  0.00    -0.513 C  
HETATM    2  C   UNL     1     -11.974  11.092  70.810  1.00  0.00    -0.312 C  
ENDROOT
BRANCH   2   3
HETATM    3  O   UNL     1     -11.596   9.844  70.217  1.00  0.00    -0.254 OA 
BRANCH   3   4
HETATM    4  C   UNL     1     -10.283   9.514  70.349  1.00  0.00    -0.279 C  
HETATM    5  O   UNL     1      -9.376  10.106  69.767  1.00  0.00    -0.211 OA 
HETATM    6  N   UNL     1     -10.071   8.525  71.314  1.00  0.00    -0.205 N  
HETATM    7  C   UNL     1      -8.819   8.373  71.900  1.00  0.00    -0.203 C  
HETATM    8  C   UNL     1      -8.864   7.438  72.853  1.00  0.00    -0.134 C  
HETATM    9  N   UNL     1     -10.136   6.914  72.913  1.00  0.00    -0.178 N  
HETATM   10  C   UNL     1     -10.957   7.554  71.932  1.00  0.00    -0.235 C  
HETATM   11  C   UNL     1     -10.528   5.847  73.805  1.00  0.00    -0.273 C  
HETATM   12  S   UNL     1     -12.546   7.198  71.591  1.00  0.00    -0.371 S  
ENDBRANCH   3   4
ENDBRANCH   2   3
TORSDOF 2
ENDMDL
MODEL       98
REMARK 921   NORMALIZED FREE ENERGY PREDICTED BY IDOCK:   -2.90 KCAL/MOL
REMARK 922        TOTAL FREE ENERGY PREDICTED BY IDOCK:   -3.33 KCAL/MOL
REMARK 923 INTER-LIGAND FREE ENERGY PREDICTED BY IDOCK:   -3.38 KCAL/MOL
REMARK 924 INTRA-LIGAND FREE ENERGY PREDICTED BY IDOCK:    0.05 KCAL/MOL
REMARK 927      BINDING AFFINITY PREDICTED BY RF-SCORE:    0.00 PKD
ROOT
HETATM    1  C   UNL     1     -10.550   9.754  69.977  1.00  0.00    -0.320 C  
HETATM    2  C   UNL     1     -11.206  10.779  69.063  1.00  0.00    -0.262 C  
ENDROOT
BRANCH   2   3
HETATM    3  O   UNL     1     -10.185  11.537  68.401  1.00  0.00    -0.191 OA 
BRANCH   3   4
HETATM    4  C   UNL     1      -9.643  10.945  67.303  1.00  0.00    -0.164 C  
HETATM    5  O   UNL     1      -8.860   9.999  67.364  1.00  0.00    -0.128 OA 
HETATM    6  N   UNL     1     -10.174  11.439  66.108  1.00  0.00    -0.231 N  
HETATM    7  C   UNL     1     -10.092  10.687  64.941  1.00  0.00    -0.335 C  
HETATM    8  C   UNL     1     -10.739  11.303  63.947  1.00  0.00    -0.384 C  
HETATM    9  N   UNL     1     -11.246  12.496  64.409  1.00  0.00    -0.319 N  
HETATM   10  C   UNL     1     -10.898  12.656  65.787  1.00  0.00    -0.274 C  
HETATM   11  C   UNL     1     -11.967  13.440  63.584  1.00  0.00    -0.446 C  
HETATM   12  S   UNL     1     -11.235  13.975  66.744  1.00  0.00    -0.326 S  
ENDBRANCH   3   4
ENDBRANCH   2   3
TORSDOF 2
ENDMDL
MODEL       99
REMARK 921   NORMALIZED FREE ENERGY PREDICTED BY IDOCK:   -2.89 KCAL/MOL
REMARK 922        TOTAL FREE ENERGY PREDICTED BY IDOCK:   -3.32 KCAL/MOL
REMARK 923 INTER-LIGAND FREE ENERGY PREDICTED BY IDOCK:   -3.19 KCAL/MOL
REMARK 924 INTRA-LIGAND FREE ENERGY PREDICTED BY IDOCK:   -0.13 KCAL/MOL
REMARK 927      BINDING AFFINITY PREDICTED BY RF-SCORE:    0.00 PKD
ROOT
HETATM    1  C   UNL     1     -12.432  13.665  65.965  1.00  0.00    -0.477 C  
HETATM    2  C   UNL     1     -11.902  14.254  67.264  1.00  0.00    -0.413 C  
ENDROOT
BRANCH   2   3
HETATM    3  O   UNL     1     -10.584  14.771  67.041  1.00  0.00    -0.280 OA 
BRANCH   3   4
HETATM    4  C   UNL     1      -9.940  15.216  68.153  1.00  0.00    -0.221 C  
HETATM    5  O   UNL     1      -9.845  14.558  69.187  1.00  0.00    -0.181 OA 
HETATM    6  N   UNL     1      -9.291  16.437  67.946  1.00  0.00    -0.213 N  
HETATM    7  C   UNL     1      -8.247  16.825  68.780  1.00  0.00    -0.250 C  
HETATM    8  C   UNL     1      -7.715  17.973  68.350  1.00  0.00    -0.286 C  
HETATM    9  N   UNL     1      -8.403  18.402  67.238  1.00  0.00    -0.247 N  
HETATM   10  C   UNL     1      -9.447  17.470  66.939  1.00  0.00    -0.274 C  
HETATM   11  C   UNL     1      -8.120  19.636  66.540  1.00  0.00    -0.320 C  
HETATM   12  S   UNL     1     -10.577  17.611  65.727  1.00  0.00    -0.028 S  
ENDBRANCH   3   4
ENDBRANCH   2   3
TORSDOF 2
ENDMDL
MODEL      100
REMARK 921   NORMALIZED FREE ENERGY PREDICTED BY IDOCK:   -2.85 KCAL/MOL
REMARK 922        TOTAL FREE ENERGY PREDICTED BY IDOCK:   -3.28 KCAL/MOL
REMARK 923 INTER-LIGAND FREE ENERGY PREDICTED BY IDOCK:   -3.10 KCAL/MOL
REMARK 924 INTRA-LIGAND FREE ENERGY PREDICTED BY IDOCK:   -0.17 KCAL/MOL
REMARK 927      BINDING AFFINITY PREDICTED BY RF-SCORE:    0.00 PKD
ROOT
HETATM    1  C   UNL     1      -6.316  15.344  69.179  1.00  0.00    -0.117 C  
HETATM    2  C   UNL     1      -6.403  14.645  67.830  1.00  0.00    -0.152 C  
ENDROOT
BRANCH   2   3
HETATM    3  O   UNL     1      -7.089  15.497  66.904  1.00  0.00    -0.203 OA 
BRANCH   3   4
HETATM    4  C   UNL     1      -8.447  15.454  66.975  1.00  0.00    -0.231 C  
HETATM    5  O   UNL     1      -9.086  14.407  67.061  1.00  0.00    -0.214 OA 
HETATM    6  N   UNL     1      -9.021  16.725  67.072  1.00  0.00    -0.200 N  
HETATM    7  C   UNL     1     -10.304  16.876  67.587  1.00  0.00    -0.317 C  
HETATM    8  C   UNL     1     -10.618  18.172  67.675  1.00  0.00    -0.406 C  
HETATM    9  N   UNL     1      -9.570  18.924  67.194  1.00  0.00    -0.300 N  
HETATM   10  C   UNL     1      -8.519  18.052  66.768  1.00  0.00    -0.257 C  
HETATM   11  C   UNL     1      -9.589  20.367  67.101  1.00  0.00    -0.447 C  
HETATM   12  S   UNL     1      -7.087  18.509  66.054  1.00  0.00    -0.261 S  
ENDBRANCH   3   4
ENDBRANCH   2   3
TORSDOF 2
ENDMDL
MODEL      101
REMARK 921   NORMALIZED FREE ENERGY PREDICTED BY IDOCK:   -2.84 KCAL/MOL
REMARK 922        TOTAL FREE ENERGY PREDICTED BY IDOCK:   -3.26 KCAL/MOL
REMARK 923 INTER-LIGAND FREE ENERGY PREDICTED BY IDOCK:   -3.10 KCAL/MOL
REMARK 924 INTRA-LIGAND FREE ENERGY PREDICTED BY IDOCK:   -0.17 KCAL/MOL
REMARK 927      BINDING AFFINITY PREDICTED BY RF-SCORE:    0.00 PKD
ROOT
HETATM    1  C   UNL     1     -10.764   7.137  67.070  1.00  0.00    -0.420 C  
HETATM    2  C   UNL     1      -9.574   7.792  67.756  1.00  0.00    -0.146 C  
ENDROOT
BRANCH   2   3
HETATM    3  O   UNL     1      -9.477   9.156  67.325  1.00  0.00    -0.141 OA 
BRANCH   3   4
HETATM    4  C   UNL     1      -8.840   9.344  66.139  1.00  0.00    -0.151 C  
HETATM    5  O   UNL     1      -7.803   8.761  65.828  1.00  0.00    -0.095 OA 
HETATM    6  N   UNL     1      -9.560  10.165  65.266  1.00  0.00    -0.254 N  
HETATM    7  C   UNL     1      -9.315  10.119  63.897  1.00  0.00    -0.287 C  
HETATM    8  C   UNL     1     -10.172  10.912  63.247  1.00  0.00    -0.257 C  
HETATM    9  N   UNL     1     -10.994  11.534  64.159  1.00  0.00    -0.364 N  
HETATM   10  C   UNL     1     -10.638  11.115  65.479  1.00  0.00    -0.225 C  
HETATM   11  C   UNL     1     -12.012  12.496  63.802  1.00  0.00    -0.517 C  
HETATM   12  S   UNL     1     -11.309  11.657  66.901  1.00  0.00    -0.239 S  
ENDBRANCH   3   4
ENDBRANCH   2   3
TORSDOF 2
ENDMDL
MODEL      102
REMARK 921   NORMALIZED FREE ENERGY PREDICTED BY IDOCK:   -2.84 KCAL/MOL
REMARK 922        TOTAL FREE ENERGY PREDICTED BY IDOCK:   -3.26 KCAL/MOL
REMARK 923 INTER-LIGAND FREE ENERGY PREDICTED BY IDOCK:   -3.15 KCAL/MOL
REMARK 924 INTRA-LIGAND FREE ENERGY PREDICTED BY IDOCK:   -0.12 KCAL/MOL
REMARK 927      BINDING AFFINITY PREDICTED BY RF-SCORE:    0.00 PKD
ROOT
HETATM    1  C   UNL     1      -9.535  19.369  67.189  1.00  0.00    -0.398 C  
HETATM    2  C   UNL     1     -10.619  18.362  67.546  1.00  0.00    -0.416 C  
ENDROOT
BRANCH   2   3
HETATM    3  O   UNL     1     -10.168  17.047  67.199  1.00  0.00    -0.293 OA 
BRANCH   3   4
HETATM    4  C   UNL     1     -10.671  16.042  67.965  1.00  0.00    -0.309 C  
HETATM    5  O   UNL     1     -11.764  16.101  68.526  1.00  0.00    -0.348 OA 
HETATM    6  N   UNL     1      -9.875  14.893  67.936  1.00  0.00    -0.213 N  
HETATM    7  C   UNL     1     -10.417  13.656  68.271  1.00  0.00    -0.249 C  
HETATM    8  C   UNL     1      -9.512  12.690  68.088  1.00  0.00    -0.218 C  
HETATM    9  N   UNL     1      -8.332  13.252  67.655  1.00  0.00    -0.168 N  
HETATM   10  C   UNL     1      -8.491  14.670  67.559  1.00  0.00    -0.188 C  
HETATM   11  C   UNL     1      -7.125  12.498  67.400  1.00  0.00    -0.146 C  
HETATM   12  S   UNL     1      -7.312  15.769  67.146  1.00  0.00    -0.201 S  
ENDBRANCH   3   4
ENDBRANCH   2   3
TORSDOF 2
ENDMDL
MODEL      103
REMARK 921   NORMALIZED FREE ENERGY PREDICTED BY IDOCK:   -2.84 KCAL/MOL
REMARK 922        TOTAL FREE ENERGY PREDICTED BY IDOCK:   -3.26 KCAL/MOL
REMARK 923 INTER-LIGAND FREE ENERGY PREDICTED BY IDOCK:   -3.23 KCAL/MOL
REMARK 924 INTRA-LIGAND FREE ENERGY PREDICTED BY IDOCK:   -0.03 KCAL/MOL
REMARK 927      BINDING AFFINITY PREDICTED BY RF-SCORE:    0.00 PKD
ROOT
HETATM    1  C   UNL     1      -9.389   9.168  65.163  1.00  0.00    -0.180 C  
HETATM    2  C   UNL     1      -9.926  10.527  64.740  1.00  0.00    -0.345 C  
ENDROOT
BRANCH   2   3
HETATM    3  O   UNL     1     -10.625  11.119  65.843  1.00  0.00    -0.259 OA 
BRANCH   3   4
HETATM    4  C   UNL     1      -9.852  11.843  66.696  1.00  0.00    -0.201 C  
HETATM    5  O   UNL     1      -9.115  11.332  67.538  1.00  0.00    -0.149 OA 
HETATM    6  N   UNL     1      -9.887  13.213  66.423  1.00  0.00    -0.274 N  
HETATM    7  C   UNL     1      -8.863  14.043  66.868  1.00  0.00    -0.194 C  
HETATM    8  C   UNL     1      -9.049  15.288  66.420  1.00  0.00    -0.312 C  
HETATM    9  N   UNL     1     -10.215  15.336  65.690  1.00  0.00    -0.341 N  
HETATM   10  C   UNL     1     -10.816  14.039  65.673  1.00  0.00    -0.295 C  
HETATM   11  C   UNL     1     -10.745  16.543  65.095  1.00  0.00    -0.244 C  
HETATM   12  S   UNL     1     -12.270  13.634  64.973  1.00  0.00    -0.437 S  
ENDBRANCH   3   4
ENDBRANCH   2   3
TORSDOF 2
ENDMDL
MODEL      104
REMARK 921   NORMALIZED FREE ENERGY PREDICTED BY IDOCK:   -2.84 KCAL/MOL
REMARK 922        TOTAL FREE ENERGY PREDICTED BY IDOCK:   -3.26 KCAL/MOL
REMARK 923 INTER-LIGAND FREE ENERGY PREDICTED BY IDOCK:   -3.18 KCAL/MOL
REMARK 924 INTRA-LIGAND FREE ENERGY PREDICTED BY IDOCK:   -0.08 KCAL/MOL
REMARK 927      BINDING AFFINITY PREDICTED BY RF-SCORE:    0.00 PKD
ROOT
HETATM    1  C   UNL     1      -9.935  13.904  67.901  1.00  0.00    -0.242 C  
HETATM    2  C   UNL     1     -11.418  14.000  67.573  1.00  0.00    -0.343 C  
ENDROOT
BRANCH   2   3
HETATM    3  O   UNL     1     -12.053  12.761  67.912  1.00  0.00    -0.313 OA 
BRANCH   3   4
HETATM    4  C   UNL     1     -11.587  11.670  67.248  1.00  0.00    -0.238 C  
HETATM    5  O   UNL     1     -11.484  11.617  66.024  1.00  0.00    -0.305 OA 
HETATM    6  N   UNL     1     -11.115  10.676  68.111  1.00  0.00    -0.265 N  
HETATM    7  C   UNL     1     -10.221   9.715  67.651  1.00  0.00    -0.216 C  
HETATM    8  C   UNL     1      -9.834   8.924  68.657  1.00  0.00    -0.167 C  
HETATM    9  N   UNL     1     -10.479   9.311  69.810  1.00  0.00    -0.212 N  
HETATM   10  C   UNL     1     -11.337  10.419  69.523  1.00  0.00    -0.265 C  
HETATM   11  C   UNL     1     -10.326   8.643  71.083  1.00  0.00    -0.230 C  
HETATM   12  S   UNL     1     -12.363  11.175  70.592  1.00  0.00    -0.388 S  
ENDBRANCH   3   4
ENDBRANCH   2   3
TORSDOF 2
ENDMDL
MODEL      105
REMARK 921   NORMALIZED FREE ENERGY PREDICTED BY IDOCK:   -2.84 KCAL/MOL
REMARK 922        TOTAL FREE ENERGY PREDICTED BY IDOCK:   -3.26 KCAL/MOL
REMARK 923 INTER-LIGAND FREE ENERGY PREDICTED BY IDOCK:   -3.29 KCAL/MOL
REMARK 924 INTRA-LIGAND FREE ENERGY PREDICTED BY IDOCK:    0.03 KCAL/MOL
REMARK 927      BINDING AFFINITY PREDICTED BY RF-SCORE:    0.00 PKD
ROOT
HETATM    1  C   UNL     1      -7.205  19.843  68.324  1.00  0.00    -0.334 C  
HETATM    2  C   UNL     1      -7.334  18.327  68.310  1.00  0.00    -0.269 C  
ENDROOT
BRANCH   2   3
HETATM    3  O   UNL     1      -8.500  17.964  67.560  1.00  0.00    -0.229 OA 
BRANCH   3   4
HETATM    4  C   UNL     1      -9.626  17.772  68.299  1.00  0.00    -0.312 C  
HETATM    5  O   UNL     1     -10.201  18.676  68.901  1.00  0.00    -0.368 OA 
HETATM    6  N   UNL     1     -10.127  16.471  68.188  1.00  0.00    -0.247 N  
HETATM    7  C   UNL     1     -11.459  16.205  68.486  1.00  0.00    -0.324 C  
HETATM    8  C   UNL     1     -11.745  14.926  68.226  1.00  0.00    -0.315 C  
HETATM    9  N   UNL     1     -10.610  14.292  67.775  1.00  0.00    -0.251 N  
HETATM   10  C   UNL     1      -9.525  15.224  67.750  1.00  0.00    -0.197 C  
HETATM   11  C   UNL     1     -10.549  12.886  67.441  1.00  0.00    -0.233 C  
HETATM   12  S   UNL     1      -7.947  14.892  67.343  1.00  0.00    -0.210 S  
ENDBRANCH   3   4
ENDBRANCH   2   3
TORSDOF 2
ENDMDL
MODEL      106
REMARK 921   NORMALIZED FREE ENERGY PREDICTED BY IDOCK:   -2.80 KCAL/MOL
REMARK 922        TOTAL FREE ENERGY PREDICTED BY IDOCK:   -3.22 KCAL/MOL
REMARK 923 INTER-LIGAND FREE ENERGY PREDICTED BY IDOCK:   -3.16 KCAL/MOL
REMARK 924 INTRA-LIGAND FREE ENERGY PREDICTED BY IDOCK:   -0.06 KCAL/MOL
REMARK 927      BINDING AFFINITY PREDICTED BY RF-SCORE:    0.00 PKD
ROOT
HETATM    1  C   UNL     1     -12.543  13.013  65.250  1.00  0.00    -0.516 C  
HETATM    2  C   UNL     1     -11.827  14.203  65.872  1.00  0.00    -0.384 C  
ENDROOT
BRANCH   2   3
HETATM    3  O   UNL     1     -11.795  14.038  67.295  1.00  0.00    -0.368 OA 
BRANCH   3   4
HETATM    4  C   UNL     1     -10.694  13.401  67.779  1.00  0.00    -0.248 C  
HETATM    5  O   UNL     1     -10.591  12.177  67.831  1.00  0.00    -0.197 OA 
HETATM    6  N   UNL     1      -9.653  14.282  68.082  1.00  0.00    -0.212 N  
HETATM    7  C   UNL     1      -8.343  13.820  68.158  1.00  0.00    -0.165 C  
HETATM    8  C   UNL     1      -7.504  14.839  68.367  1.00  0.00    -0.114 C  
HETATM    9  N   UNL     1      -8.227  16.006  68.469  1.00  0.00    -0.172 N  
HETATM   10  C   UNL     1      -9.619  15.715  68.319  1.00  0.00    -0.200 C  
HETATM   11  C   UNL     1      -7.638  17.298  68.740  1.00  0.00    -0.256 C  
HETATM   12  S   UNL     1     -10.873  16.801  68.438  1.00  0.00    -0.325 S  
ENDBRANCH   3   4
ENDBRANCH   2   3
TORSDOF 2
ENDMDL
MODEL      107
REMARK 921   NORMALIZED FREE ENERGY PREDICTED BY IDOCK:   -2.79 KCAL/MOL
REMARK 922        TOTAL FREE ENERGY PREDICTED BY IDOCK:   -3.21 KCAL/MOL
REMARK 923 INTER-LIGAND FREE ENERGY PREDICTED BY IDOCK:   -3.06 KCAL/MOL
REMARK 924 INTRA-LIGAND FREE ENERGY PREDICTED BY IDOCK:   -0.15 KCAL/MOL
REMARK 927      BINDING AFFINITY PREDICTED BY RF-SCORE:    0.00 PKD
ROOT
HETATM    1  C   UNL     1     -10.527   7.728  66.886  1.00  0.00    -0.388 C  
HETATM    2  C   UNL     1      -9.143   8.192  67.316  1.00  0.00    -0.138 C  
ENDROOT
BRANCH   2   3
HETATM    3  O   UNL     1      -8.969   7.917  68.711  1.00  0.00    -0.141 OA 
BRANCH   3   4
HETATM    4  C   UNL     1      -9.292   8.939  69.548  1.00  0.00    -0.155 C  
HETATM    5  O   UNL     1      -8.652   9.987  69.614  1.00  0.00    -0.173 OA 
HETATM    6  N   UNL     1     -10.499   8.723  70.219  1.00  0.00    -0.201 N  
HETATM    7  C   UNL     1     -11.206   9.796  70.753  1.00  0.00    -0.348 C  
HETATM    8  C   UNL     1     -12.366   9.376  71.266  1.00  0.00    -0.341 C  
HETATM    9  N   UNL     1     -12.457   8.010  71.120  1.00  0.00    -0.245 N  
HETATM   10  C   UNL     1     -11.277   7.524  70.475  1.00  0.00    -0.269 C  
HETATM   11  C   UNL     1     -13.565   7.218  71.605  1.00  0.00    -0.349 C  
HETATM   12  S   UNL     1     -10.912   5.933  70.153  1.00  0.00    -0.312 S  
ENDBRANCH   3   4
ENDBRANCH   2   3
TORSDOF 2
ENDMDL
MODEL      108
REMARK 921   NORMALIZED FREE ENERGY PREDICTED BY IDOCK:   -2.79 KCAL/MOL
REMARK 922        TOTAL FREE ENERGY PREDICTED BY IDOCK:   -3.21 KCAL/MOL
REMARK 923 INTER-LIGAND FREE ENERGY PREDICTED BY IDOCK:   -3.13 KCAL/MOL
REMARK 924 INTRA-LIGAND FREE ENERGY PREDICTED BY IDOCK:   -0.08 KCAL/MOL
REMARK 927      BINDING AFFINITY PREDICTED BY RF-SCORE:    0.00 PKD
ROOT
HETATM    1  C   UNL     1      -9.179  12.372  68.096  1.00  0.00    -0.205 C  
HETATM    2  C   UNL     1      -8.155  13.422  67.691  1.00  0.00    -0.175 C  
ENDROOT
BRANCH   2   3
HETATM    3  O   UNL     1      -8.837  14.642  67.371  1.00  0.00    -0.176 OA 
BRANCH   3   4
HETATM    4  C   UNL     1      -8.787  15.602  68.333  1.00  0.00    -0.184 C  
HETATM    5  O   UNL     1      -8.328  15.409  69.457  1.00  0.00    -0.245 OA 
HETATM    6  N   UNL     1      -9.187  16.856  67.863  1.00  0.00    -0.230 N  
HETATM    7  C   UNL     1      -8.796  18.012  68.530  1.00  0.00    -0.295 C  
HETATM    8  C   UNL     1      -9.209  19.094  67.862  1.00  0.00    -0.308 C  
HETATM    9  N   UNL     1      -9.913  18.696  66.748  1.00  0.00    -0.331 N  
HETATM   10  C   UNL     1      -9.957  17.267  66.702  1.00  0.00    -0.294 C  
HETATM   11  C   UNL     1     -10.542  19.610  65.822  1.00  0.00    -0.438 C  
HETATM   12  S   UNL     1     -10.756  16.340  65.576  1.00  0.00    -0.248 S  
ENDBRANCH   3   4
ENDBRANCH   2   3
TORSDOF 2
ENDMDL
MODEL      109
REMARK 921   NORMALIZED FREE ENERGY PREDICTED BY IDOCK:   -2.78 KCAL/MOL
REMARK 922        TOTAL FREE ENERGY PREDICTED BY IDOCK:   -3.19 KCAL/MOL
REMARK 923 INTER-LIGAND FREE ENERGY PREDICTED BY IDOCK:   -3.34 KCAL/MOL
REMARK 924 INTRA-LIGAND FREE ENERGY PREDICTED BY IDOCK:    0.15 KCAL/MOL
REMARK 927      BINDING AFFINITY PREDICTED BY RF-SCORE:    0.00 PKD
ROOT
HETATM    1  C   UNL     1     -12.111  12.043  70.236  1.00  0.00    -0.395 C  
HETATM    2  C   UNL     1     -11.730  11.238  69.003  1.00  0.00    -0.342 C  
ENDROOT
BRANCH   2   3
HETATM    3  O   UNL     1     -10.473  10.590  69.237  1.00  0.00    -0.210 OA 
BRANCH   3   4
HETATM    4  C   UNL     1     -10.513   9.548  70.111  1.00  0.00    -0.255 C  
HETATM    5  O   UNL     1     -10.591   9.692  71.330  1.00  0.00    -0.302 OA 
HETATM    6  N   UNL     1     -10.590   8.309  69.469  1.00  0.00    -0.227 N  
HETATM    7  C   UNL     1     -11.075   7.197  70.148  1.00  0.00    -0.272 C  
HETATM    8  C   UNL     1     -11.148   6.147  69.324  1.00  0.00    -0.393 C  
HETATM    9  N   UNL     1     -10.687   6.516  68.081  1.00  0.00    -0.253 N  
HETATM   10  C   UNL     1     -10.289   7.889  68.112  1.00  0.00    -0.200 C  
HETATM   11  C   UNL     1     -10.585   5.611  66.957  1.00  0.00    -0.285 C  
HETATM   12  S   UNL     1      -9.606   8.747  66.862  1.00  0.00    -0.210 S  
ENDBRANCH   3   4
ENDBRANCH   2   3
TORSDOF 2
ENDMDL
MODEL      110
REMARK 921   NORMALIZED FREE ENERGY PREDICTED BY IDOCK:   -2.77 KCAL/MOL
REMARK 922        TOTAL FREE ENERGY PREDICTED BY IDOCK:   -3.19 KCAL/MOL
REMARK 923 INTER-LIGAND FREE ENERGY PREDICTED BY IDOCK:   -3.10 KCAL/MOL
REMARK 924 INTRA-LIGAND FREE ENERGY PREDICTED BY IDOCK:   -0.09 KCAL/MOL
REMARK 927      BINDING AFFINITY PREDICTED BY RF-SCORE:    0.00 PKD
ROOT
HETATM    1  C   UNL     1     -12.253  10.080  71.470  1.00  0.00    -0.496 C  
HETATM    2  C   UNL     1     -12.554  11.083  70.367  1.00  0.00    -0.267 C  
ENDROOT
BRANCH   2   3
HETATM    3  O   UNL     1     -11.337  11.408  69.683  1.00  0.00    -0.265 OA 
BRANCH   3   4
HETATM    4  C   UNL     1     -11.494  11.996  68.467  1.00  0.00    -0.293 C  
HETATM    5  O   UNL     1     -12.024  13.095  68.312  1.00  0.00    -0.343 OA 
HETATM    6  N   UNL     1     -10.874  11.281  67.439  1.00  0.00    -0.245 N  
HETATM    7  C   UNL     1     -10.543  11.914  66.245  1.00  0.00    -0.253 C  
HETATM    8  C   UNL     1      -9.881  11.074  65.444  1.00  0.00    -0.251 C  
HETATM    9  N   UNL     1      -9.776   9.848  66.062  1.00  0.00    -0.228 N  
HETATM   10  C   UNL     1     -10.415   9.907  67.340  1.00  0.00    -0.267 C  
HETATM   11  C   UNL     1      -9.155   8.691  65.458  1.00  0.00    -0.131 C  
HETATM   12  S   UNL     1     -10.599   8.646  68.410  1.00  0.00    -0.059 S  
ENDBRANCH   3   4
ENDBRANCH   2   3
TORSDOF 2
ENDMDL
MODEL      111
REMARK 921   NORMALIZED FREE ENERGY PREDICTED BY IDOCK:   -2.76 KCAL/MOL
REMARK 922        TOTAL FREE ENERGY PREDICTED BY IDOCK:   -3.17 KCAL/MOL
REMARK 923 INTER-LIGAND FREE ENERGY PREDICTED BY IDOCK:   -3.06 KCAL/MOL
REMARK 924 INTRA-LIGAND FREE ENERGY PREDICTED BY IDOCK:   -0.11 KCAL/MOL
REMARK 927      BINDING AFFINITY PREDICTED BY RF-SCORE:    0.00 PKD
ROOT
HETATM    1  C   UNL     1     -13.732   9.133  71.614  1.00  0.00    -0.433 C  
HETATM    2  C   UNL     1     -12.251   8.914  71.884  1.00  0.00    -0.374 C  
ENDROOT
BRANCH   2   3
HETATM    3  O   UNL     1     -11.967   7.510  71.824  1.00  0.00    -0.280 OA 
BRANCH   3   4
HETATM    4  C   UNL     1     -10.827   7.123  72.456  1.00  0.00    -0.264 C  
HETATM    5  O   UNL     1     -10.463   7.584  73.536  1.00  0.00    -0.357 OA 
HETATM    6  N   UNL     1     -10.190   6.057  71.813  1.00  0.00    -0.198 N  
HETATM    7  C   UNL     1      -9.297   5.251  72.510  1.00  0.00    -0.139 C  
HETATM    8  C   UNL     1      -8.879   4.246  71.734  1.00  0.00    -0.115 C  
HETATM    9  N   UNL     1      -9.454   4.366  70.489  1.00  0.00    -0.154 N  
HETATM   10  C   UNL     1     -10.291   5.526  70.465  1.00  0.00    -0.272 C  
HETATM   11  C   UNL     1      -9.186   3.471  69.387  1.00  0.00    -0.157 C  
HETATM   12  S   UNL     1     -11.132   6.109  69.154  1.00  0.00    -0.317 S  
ENDBRANCH   3   4
ENDBRANCH   2   3
TORSDOF 2
ENDMDL
MODEL      112
REMARK 921   NORMALIZED FREE ENERGY PREDICTED BY IDOCK:   -2.75 KCAL/MOL
REMARK 922        TOTAL FREE ENERGY PREDICTED BY IDOCK:   -3.16 KCAL/MOL
REMARK 923 INTER-LIGAND FREE ENERGY PREDICTED BY IDOCK:   -3.07 KCAL/MOL
REMARK 924 INTRA-LIGAND FREE ENERGY PREDICTED BY IDOCK:   -0.09 KCAL/MOL
REMARK 927      BINDING AFFINITY PREDICTED BY RF-SCORE:    0.00 PKD
ROOT
HETATM    1  C   UNL     1      -7.304  10.670  69.421  1.00  0.00    -0.133 C  
HETATM    2  C   UNL     1      -7.114  12.019  68.745  1.00  0.00    -0.111 C  
ENDROOT
BRANCH   2   3
HETATM    3  O   UNL     1      -8.117  12.182  67.734  1.00  0.00    -0.132 OA 
BRANCH   3   4
HETATM    4  C   UNL     1      -8.617  13.441  67.613  1.00  0.00    -0.193 C  
HETATM    5  O   UNL     1      -8.246  14.385  68.307  1.00  0.00    -0.134 OA 
HETATM    6  N   UNL     1      -9.494  13.569  66.532  1.00  0.00    -0.271 N  
HETATM    7  C   UNL     1      -9.753  14.821  65.984  1.00  0.00    -0.321 C  
HETATM    8  C   UNL     1     -10.541  14.703  64.911  1.00  0.00    -0.422 C  
HETATM    9  N   UNL     1     -10.858  13.376  64.727  1.00  0.00    -0.352 N  
HETATM   10  C   UNL     1     -10.235  12.595  65.751  1.00  0.00    -0.272 C  
HETATM   11  C   UNL     1     -11.731  12.893  63.681  1.00  0.00    -0.508 C  
HETATM   12  S   UNL     1     -10.393  10.954  65.973  1.00  0.00    -0.226 S  
ENDBRANCH   3   4
ENDBRANCH   2   3
TORSDOF 2
ENDMDL
MODEL      113
REMARK 921   NORMALIZED FREE ENERGY PREDICTED BY IDOCK:   -2.75 KCAL/MOL
REMARK 922        TOTAL FREE ENERGY PREDICTED BY IDOCK:   -3.16 KCAL/MOL
REMARK 923 INTER-LIGAND FREE ENERGY PREDICTED BY IDOCK:   -3.00 KCAL/MOL
REMARK 924 INTRA-LIGAND FREE ENERGY PREDICTED BY IDOCK:   -0.16 KCAL/MOL
REMARK 927      BINDING AFFINITY PREDICTED BY RF-SCORE:    0.00 PKD
ROOT
HETATM    1  C   UNL     1      -7.131  12.629  68.714  1.00  0.00    -0.087 C  
HETATM    2  C   UNL     1      -7.653  13.015  67.338  1.00  0.00    -0.137 C  
ENDROOT
BRANCH   2   3
HETATM    3  O   UNL     1      -8.765  13.906  67.493  1.00  0.00    -0.171 OA 
BRANCH   3   4
HETATM    4  C   UNL     1      -9.974  13.302  67.646  1.00  0.00    -0.229 C  
HETATM    5  O   UNL     1     -10.315  12.303  67.016  1.00  0.00    -0.217 OA 
HETATM    6  N   UNL     1     -10.726  13.859  68.685  1.00  0.00    -0.255 N  
HETATM    7  C   UNL     1     -11.752  13.130  69.276  1.00  0.00    -0.321 C  
HETATM    8  C   UNL     1     -12.274  13.812  70.300  1.00  0.00    -0.359 C  
HETATM    9  N   UNL     1     -11.635  15.027  70.406  1.00  0.00    -0.269 N  
HETATM   10  C   UNL     1     -10.644  15.131  69.381  1.00  0.00    -0.255 C  
HETATM   11  C   UNL     1     -11.980  16.037  71.382  1.00  0.00    -0.449 C  
HETATM   12  S   UNL     1      -9.675  16.448  69.075  1.00  0.00    -0.256 S  
ENDBRANCH   3   4
ENDBRANCH   2   3
TORSDOF 2
ENDMDL
MODEL      114
REMARK 921   NORMALIZED FREE ENERGY PREDICTED BY IDOCK:   -2.72 KCAL/MOL
REMARK 922        TOTAL FREE ENERGY PREDICTED BY IDOCK:   -3.14 KCAL/MOL
REMARK 923 INTER-LIGAND FREE ENERGY PREDICTED BY IDOCK:   -3.06 KCAL/MOL
REMARK 924 INTRA-LIGAND FREE ENERGY PREDICTED BY IDOCK:   -0.08 KCAL/MOL
REMARK 927      BINDING AFFINITY PREDICTED BY RF-SCORE:    0.00 PKD
ROOT
HETATM    1  C   UNL     1      -9.657   4.408  67.845  1.00  0.00    -0.205 C  
HETATM    2  C   UNL     1      -9.644   4.985  69.253  1.00  0.00    -0.162 C  
ENDROOT
BRANCH   2   3
HETATM    3  O   UNL     1     -10.519   6.119  69.302  1.00  0.00    -0.202 OA 
BRANCH   3   4
HETATM    4  C   UNL     1      -9.897   7.328  69.329  1.00  0.00    -0.166 C  
HETATM    5  O   UNL     1      -8.837   7.556  68.748  1.00  0.00    -0.131 OA 
HETATM    6  N   UNL     1     -10.657   8.310  69.970  1.00  0.00    -0.233 N  
HETATM    7  C   UNL     1     -10.417   9.657  69.720  1.00  0.00    -0.238 C  
HETATM    8  C   UNL     1     -11.312  10.414  70.363  1.00  0.00    -0.337 C  
HETATM    9  N   UNL     1     -12.155   9.601  71.086  1.00  0.00    -0.338 N  
HETATM   10  C   UNL     1     -11.774   8.235  70.895  1.00  0.00    -0.239 C  
HETATM   11  C   UNL     1     -13.217  10.092  71.935  1.00  0.00    -0.452 C  
HETATM   12  S   UNL     1     -12.461   6.908  71.625  1.00  0.00    -0.354 S  
ENDBRANCH   3   4
ENDBRANCH   2   3
TORSDOF 2
ENDMDL
MODEL      115
REMARK 921   NORMALIZED FREE ENERGY PREDICTED BY IDOCK:   -2.71 KCAL/MOL
REMARK 922        TOTAL FREE ENERGY PREDICTED BY IDOCK:   -3.12 KCAL/MOL
REMARK 923 INTER-LIGAND FREE ENERGY PREDICTED BY IDOCK:   -3.20 KCAL/MOL
REMARK 924 INTRA-LIGAND FREE ENERGY PREDICTED BY IDOCK:    0.07 KCAL/MOL
REMARK 927      BINDING AFFINITY PREDICTED BY RF-SCORE:    0.00 PKD
ROOT
HETATM    1  C   UNL     1     -10.701   6.196  72.218  1.00  0.00    -0.268 C  
HETATM    2  C   UNL     1     -11.691   6.499  71.103  1.00  0.00    -0.335 C  
ENDROOT
BRANCH   2   3
HETATM    3  O   UNL     1     -11.479   7.839  70.641  1.00  0.00    -0.279 OA 
BRANCH   3   4
HETATM    4  C   UNL     1     -10.575   7.967  69.633  1.00  0.00    -0.223 C  
HETATM    5  O   UNL     1      -9.782   7.081  69.320  1.00  0.00    -0.157 OA 
HETATM    6  N   UNL     1     -10.737   9.154  68.912  1.00  0.00    -0.185 N  
HETATM    7  C   UNL     1     -10.233   9.264  67.620  1.00  0.00    -0.230 C  
HETATM    8  C   UNL     1     -10.577  10.441  67.088  1.00  0.00    -0.261 C  
HETATM    9  N   UNL     1     -11.293  11.164  68.015  1.00  0.00    -0.299 N  
HETATM   10  C   UNL     1     -11.412  10.402  69.220  1.00  0.00    -0.215 C  
HETATM   11  C   UNL     1     -11.786  12.504  67.788  1.00  0.00    -0.359 C  
HETATM   12  S   UNL     1     -12.132  10.899  70.635  1.00  0.00    -0.387 S  
ENDBRANCH   3   4
ENDBRANCH   2   3
TORSDOF 2
ENDMDL
MODEL      116
REMARK 921   NORMALIZED FREE ENERGY PREDICTED BY IDOCK:   -2.71 KCAL/MOL
REMARK 922        TOTAL FREE ENERGY PREDICTED BY IDOCK:   -3.12 KCAL/MOL
REMARK 923 INTER-LIGAND FREE ENERGY PREDICTED BY IDOCK:   -2.98 KCAL/MOL
REMARK 924 INTRA-LIGAND FREE ENERGY PREDICTED BY IDOCK:   -0.14 KCAL/MOL
REMARK 927      BINDING AFFINITY PREDICTED BY RF-SCORE:    0.00 PKD
ROOT
HETATM    1  C   UNL     1      -6.714  10.716  70.160  1.00  0.00    -0.143 C  
HETATM    2  C   UNL     1      -7.957  10.107  69.528  1.00  0.00    -0.165 C  
ENDROOT
BRANCH   2   3
HETATM    3  O   UNL     1      -8.834   9.650  70.566  1.00  0.00    -0.225 OA 
BRANCH   3   4
HETATM    4  C   UNL     1      -9.149   8.328  70.518  1.00  0.00    -0.147 C  
HETATM    5  O   UNL     1      -8.320   7.443  70.319  1.00  0.00    -0.130 OA 
HETATM    6  N   UNL     1     -10.484   8.081  70.851  1.00  0.00    -0.201 N  
HETATM    7  C   UNL     1     -10.877   6.819  71.284  1.00  0.00    -0.232 C  
HETATM    8  C   UNL     1     -12.167   6.830  71.633  1.00  0.00    -0.365 C  
HETATM    9  N   UNL     1     -12.683   8.087  71.416  1.00  0.00    -0.306 N  
HETATM   10  C   UNL     1     -11.658   8.935  70.890  1.00  0.00    -0.283 C  
HETATM   11  C   UNL     1     -14.066   8.442  71.645  1.00  0.00    -0.419 C  
HETATM   12  S   UNL     1     -11.836  10.518  70.411  1.00  0.00    -0.366 S  
ENDBRANCH   3   4
ENDBRANCH   2   3
TORSDOF 2
ENDMDL
MODEL      117
REMARK 921   NORMALIZED FREE ENERGY PREDICTED BY IDOCK:   -2.68 KCAL/MOL
REMARK 922        TOTAL FREE ENERGY PREDICTED BY IDOCK:   -3.09 KCAL/MOL
REMARK 923 INTER-LIGAND FREE ENERGY PREDICTED BY IDOCK:   -3.01 KCAL/MOL
REMARK 924 INTRA-LIGAND FREE ENERGY PREDICTED BY IDOCK:   -0.08 KCAL/MOL
REMARK 927      BINDING AFFINITY PREDICTED BY RF-SCORE:    0.00 PKD
ROOT
HETATM    1  C   UNL     1     -14.184   7.956  71.522  1.00  0.00    -0.527 C  
HETATM    2  C   UNL     1     -12.980   8.791  71.931  1.00  0.00    -0.376 C  
ENDROOT
BRANCH   2   3
HETATM    3  O   UNL     1     -11.844   8.385  71.156  1.00  0.00    -0.285 OA 
BRANCH   3   4
HETATM    4  C   UNL     1     -11.180   7.296  71.629  1.00  0.00    -0.245 C  
HETATM    5  O   UNL     1     -11.222   6.937  72.804  1.00  0.00    -0.266 OA 
HETATM    6  N   UNL     1     -10.559   6.562  70.614  1.00  0.00    -0.223 N  
HETATM    7  C   UNL     1     -10.225   5.227  70.819  1.00  0.00    -0.246 C  
HETATM    8  C   UNL     1      -9.729   4.697  69.697  1.00  0.00    -0.213 C  
HETATM    9  N   UNL     1      -9.688   5.665  68.719  1.00  0.00    -0.130 N  
HETATM   10  C   UNL     1     -10.187   6.896  69.251  1.00  0.00    -0.186 C  
HETATM   11  C   UNL     1      -9.165   5.447  67.389  1.00  0.00    -0.111 C  
HETATM   12  S   UNL     1     -10.260   8.356  68.458  1.00  0.00    -0.196 S  
ENDBRANCH   3   4
ENDBRANCH   2   3
TORSDOF 2
ENDMDL
MODEL      118
REMARK 921   NORMALIZED FREE ENERGY PREDICTED BY IDOCK:   -2.68 KCAL/MOL
REMARK 922        TOTAL FREE ENERGY PREDICTED BY IDOCK:   -3.09 KCAL/MOL
REMARK 923 INTER-LIGAND FREE ENERGY PREDICTED BY IDOCK:   -3.05 KCAL/MOL
REMARK 924 INTRA-LIGAND FREE ENERGY PREDICTED BY IDOCK:   -0.03 KCAL/MOL
REMARK 927      BINDING AFFINITY PREDICTED BY RF-SCORE:    0.00 PKD
ROOT
HETATM    1  C   UNL     1      -9.549   9.341  65.503  1.00  0.00    -0.291 C  
HETATM    2  C   UNL     1      -9.667  10.835  65.763  1.00  0.00    -0.228 C  
ENDROOT
BRANCH   2   3
HETATM    3  O   UNL     1      -9.748  11.060  67.176  1.00  0.00    -0.171 OA 
BRANCH   3   4
HETATM    4  C   UNL     1     -10.900  11.641  67.604  1.00  0.00    -0.225 C  
HETATM    5  O   UNL     1     -11.986  11.064  67.612  1.00  0.00    -0.583 OA 
HETATM    6  N   UNL     1     -10.690  12.909  68.156  1.00  0.00    -0.233 N  
HETATM    7  C   UNL     1     -11.627  13.459  69.025  1.00  0.00    -0.312 C  
HETATM    8  C   UNL     1     -11.187  14.627  69.501  1.00  0.00    -0.269 C  
HETATM    9  N   UNL     1      -9.959  14.908  68.944  1.00  0.00    -0.229 N  
HETATM   10  C   UNL     1      -9.593  13.853  68.050  1.00  0.00    -0.219 C  
HETATM   11  C   UNL     1      -9.213  16.118  69.205  1.00  0.00    -0.246 C  
HETATM   12  S   UNL     1      -8.229  13.794  67.100  1.00  0.00    -0.046 S  
ENDBRANCH   3   4
ENDBRANCH   2   3
TORSDOF 2
ENDMDL
MODEL      119
REMARK 921   NORMALIZED FREE ENERGY PREDICTED BY IDOCK:   -2.68 KCAL/MOL
REMARK 922        TOTAL FREE ENERGY PREDICTED BY IDOCK:   -3.08 KCAL/MOL
REMARK 923 INTER-LIGAND FREE ENERGY PREDICTED BY IDOCK:   -2.94 KCAL/MOL
REMARK 924 INTRA-LIGAND FREE ENERGY PREDICTED BY IDOCK:   -0.14 KCAL/MOL
REMARK 927      BINDING AFFINITY PREDICTED BY RF-SCORE:    0.00 PKD
ROOT
HETATM    1  C   UNL     1     -10.846   3.999  72.996  1.00  0.00    -0.234 C  
HETATM    2  C   UNL     1     -10.661   5.509  72.974  1.00  0.00    -0.256 C  
ENDROOT
BRANCH   2   3
HETATM    3  O   UNL     1     -11.638   6.088  72.099  1.00  0.00    -0.300 OA 
BRANCH   3   4
HETATM    4  C   UNL     1     -11.666   7.447  72.081  1.00  0.00    -0.290 C  
HETATM    5  O   UNL     1     -12.193   8.124  72.962  1.00  0.00    -0.200 OA 
HETATM    6  N   UNL     1     -10.919   7.987  71.030  1.00  0.00    -0.236 N  
HETATM    7  C   UNL     1     -10.465   9.301  71.094  1.00  0.00    -0.331 C  
HETATM    8  C   UNL     1      -9.701   9.579  70.034  1.00  0.00    -0.236 C  
HETATM    9  N   UNL     1      -9.645   8.474  69.215  1.00  0.00    -0.168 N  
HETATM   10  C   UNL     1     -10.428   7.422  69.786  1.00  0.00    -0.229 C  
HETATM   11  C   UNL     1      -8.939   8.439  67.954  1.00  0.00    -0.137 C  
HETATM   12  S   UNL     1     -10.710   5.926  69.115  1.00  0.00    -0.323 S  
ENDBRANCH   3   4
ENDBRANCH   2   3
TORSDOF 2
ENDMDL
MODEL      120
REMARK 921   NORMALIZED FREE ENERGY PREDICTED BY IDOCK:   -2.68 KCAL/MOL
REMARK 922        TOTAL FREE ENERGY PREDICTED BY IDOCK:   -3.08 KCAL/MOL
REMARK 923 INTER-LIGAND FREE ENERGY PREDICTED BY IDOCK:   -2.95 KCAL/MOL
REMARK 924 INTRA-LIGAND FREE ENERGY PREDICTED BY IDOCK:   -0.13 KCAL/MOL
REMARK 927      BINDING AFFINITY PREDICTED BY RF-SCORE:    0.00 PKD
ROOT
HETATM    1  C   UNL     1      -8.749  10.303  63.929  1.00  0.00    -0.211 C  
HETATM    2  C   UNL     1      -9.989  10.280  64.811  1.00  0.00    -0.321 C  
ENDROOT
BRANCH   2   3
HETATM    3  O   UNL     1      -9.586  10.164  66.182  1.00  0.00    -0.180 OA 
BRANCH   3   4
HETATM    4  C   UNL     1      -9.899   8.983  66.779  1.00  0.00    -0.234 C  
HETATM    5  O   UNL     1      -9.587   7.888  66.314  1.00  0.00    -0.195 OA 
HETATM    6  N   UNL     1     -10.490   9.154  68.034  1.00  0.00    -0.228 N  
HETATM    7  C   UNL     1     -10.472   8.119  68.964  1.00  0.00    -0.198 C  
HETATM    8  C   UNL     1     -11.007   8.526  70.119  1.00  0.00    -0.216 C  
HETATM    9  N   UNL     1     -11.426   9.831  69.988  1.00  0.00    -0.216 N  
HETATM   10  C   UNL     1     -11.143  10.288  68.662  1.00  0.00    -0.239 C  
HETATM   11  C   UNL     1     -12.092  10.574  71.035  1.00  0.00    -0.387 C  
HETATM   12  S   UNL     1     -11.535  11.774  68.026  1.00  0.00    -0.324 S  
ENDBRANCH   3   4
ENDBRANCH   2   3
TORSDOF 2
ENDMDL
MODEL      121
REMARK 921   NORMALIZED FREE ENERGY PREDICTED BY IDOCK:   -2.68 KCAL/MOL
REMARK 922        TOTAL FREE ENERGY PREDICTED BY IDOCK:   -3.08 KCAL/MOL
REMARK 923 INTER-LIGAND FREE ENERGY PREDICTED BY IDOCK:   -2.98 KCAL/MOL
REMARK 924 INTRA-LIGAND FREE ENERGY PREDICTED BY IDOCK:   -0.10 KCAL/MOL
REMARK 927      BINDING AFFINITY PREDICTED BY RF-SCORE:    0.00 PKD
ROOT
HETATM    1  C   UNL     1      -8.861   4.680  65.455  1.00  0.00    -0.134 C  
HETATM    2  C   UNL     1     -10.289   4.789  65.969  1.00  0.00    -0.293 C  
ENDROOT
BRANCH   2   3
HETATM    3  O   UNL     1     -10.267   4.895  67.398  1.00  0.00    -0.172 OA 
BRANCH   3   4
HETATM    4  C   UNL     1     -10.726   6.074  67.898  1.00  0.00    -0.284 C  
HETATM    5  O   UNL     1     -11.063   7.022  67.192  1.00  0.00    -0.350 OA 
HETATM    6  N   UNL     1     -10.896   6.039  69.285  1.00  0.00    -0.329 N  
HETATM    7  C   UNL     1     -11.745   6.946  69.910  1.00  0.00    -0.145 C  
HETATM    8  C   UNL     1     -11.829   6.678  71.216  1.00  0.00    -0.350 C  
HETATM    9  N   UNL     1     -11.018   5.605  71.510  1.00  0.00    -0.234 N  
HETATM   10  C   UNL     1     -10.370   5.161  70.315  1.00  0.00    -0.261 C  
HETATM   11  C   UNL     1     -10.835   5.073  72.842  1.00  0.00    -0.261 C  
HETATM   12  S   UNL     1      -9.246   3.940  70.197  1.00  0.00    -0.165 S  
ENDBRANCH   3   4
ENDBRANCH   2   3
TORSDOF 2
ENDMDL
MODEL      122
REMARK 921   NORMALIZED FREE ENERGY PREDICTED BY IDOCK:   -2.67 KCAL/MOL
REMARK 922        TOTAL FREE ENERGY PREDICTED BY IDOCK:   -3.07 KCAL/MOL
REMARK 923 INTER-LIGAND FREE ENERGY PREDICTED BY IDOCK:   -2.99 KCAL/MOL
REMARK 924 INTRA-LIGAND FREE ENERGY PREDICTED BY IDOCK:   -0.08 KCAL/MOL
REMARK 927      BINDING AFFINITY PREDICTED BY RF-SCORE:    0.00 PKD
ROOT
HETATM    1  C   UNL     1      -7.435  10.864  67.708  1.00  0.00    -0.094 C  
HETATM    2  C   UNL     1      -8.837  11.191  68.201  1.00  0.00    -0.148 C  
ENDROOT
BRANCH   2   3
HETATM    3  O   UNL     1      -9.343  12.312  67.465  1.00  0.00    -0.174 OA 
BRANCH   3   4
HETATM    4  C   UNL     1     -10.164  12.000  66.427  1.00  0.00    -0.216 C  
HETATM    5  O   UNL     1     -10.515  10.851  66.165  1.00  0.00    -0.247 OA 
HETATM    6  N   UNL     1     -10.668  13.132  65.781  1.00  0.00    -0.276 N  
HETATM    7  C   UNL     1     -11.828  13.046  65.018  1.00  0.00    -0.362 C  
HETATM    8  C   UNL     1     -12.178  14.255  64.570  1.00  0.00    -0.455 C  
HETATM    9  N   UNL     1     -11.250  15.179  64.991  1.00  0.00    -0.395 N  
HETATM   10  C   UNL     1     -10.238  14.518  65.756  1.00  0.00    -0.335 C  
HETATM   11  C   UNL     1     -11.296  16.583  64.649  1.00  0.00    -0.069 C  
HETATM   12  S   UNL     1      -8.878  15.220  66.409  1.00  0.00    -0.217 S  
ENDBRANCH   3   4
ENDBRANCH   2   3
TORSDOF 2
ENDMDL
MODEL      123
REMARK 921   NORMALIZED FREE ENERGY PREDICTED BY IDOCK:   -2.65 KCAL/MOL
REMARK 922        TOTAL FREE ENERGY PREDICTED BY IDOCK:   -3.06 KCAL/MOL
REMARK 923 INTER-LIGAND FREE ENERGY PREDICTED BY IDOCK:   -3.00 KCAL/MOL
REMARK 924 INTRA-LIGAND FREE ENERGY PREDICTED BY IDOCK:   -0.06 KCAL/MOL
REMARK 927      BINDING AFFINITY PREDICTED BY RF-SCORE:    0.00 PKD
ROOT
HETATM    1  C   UNL     1      -6.335  14.640  70.173  1.00  0.00    -0.173 C  
HETATM    2  C   UNL     1      -7.199  15.141  69.026  1.00  0.00    -0.149 C  
ENDROOT
BRANCH   2   3
HETATM    3  O   UNL     1      -7.845  16.358  69.423  1.00  0.00    -0.212 OA 
BRANCH   3   4
HETATM    4  C   UNL     1      -8.626  16.936  68.472  1.00  0.00    -0.251 C  
HETATM    5  O   UNL     1      -9.684  16.447  68.078  1.00  0.00    -0.230 OA 
HETATM    6  N   UNL     1      -8.167  18.200  68.092  1.00  0.00    -0.268 N  
HETATM    7  C   UNL     1      -9.032  19.110  67.493  1.00  0.00    -0.295 C  
HETATM    8  C   UNL     1      -8.413  20.278  67.299  1.00  0.00    -0.347 C  
HETATM    9  N   UNL     1      -7.110  20.177  67.732  1.00  0.00    -0.284 N  
HETATM   10  C   UNL     1      -6.879  18.857  68.233  1.00  0.00    -0.249 C  
HETATM   11  C   UNL     1      -6.140  21.244  67.630  1.00  0.00    -0.354 C  
HETATM   12  S   UNL     1      -5.435  18.253  68.796  1.00  0.00    -0.187 S  
ENDBRANCH   3   4
ENDBRANCH   2   3
TORSDOF 2
ENDMDL
MODEL      124
REMARK 921   NORMALIZED FREE ENERGY PREDICTED BY IDOCK:   -2.65 KCAL/MOL
REMARK 922        TOTAL FREE ENERGY PREDICTED BY IDOCK:   -3.05 KCAL/MOL
REMARK 923 INTER-LIGAND FREE ENERGY PREDICTED BY IDOCK:   -2.92 KCAL/MOL
REMARK 924 INTRA-LIGAND FREE ENERGY PREDICTED BY IDOCK:   -0.13 KCAL/MOL
REMARK 927      BINDING AFFINITY PREDICTED BY RF-SCORE:    0.00 PKD
ROOT
HETATM    1  C   UNL     1      -9.806  10.774  65.498  1.00  0.00    -0.309 C  
HETATM    2  C   UNL     1      -9.643  10.483  66.983  1.00  0.00    -0.173 C  
ENDROOT
BRANCH   2   3
HETATM    3  O   UNL     1     -10.800   9.779  67.452  1.00  0.00    -0.274 OA 
BRANCH   3   4
HETATM    4  C   UNL     1     -10.625   8.445  67.650  1.00  0.00    -0.195 C  
HETATM    5  O   UNL     1     -10.488   7.638  66.732  1.00  0.00    -0.314 OA 
HETATM    6  N   UNL     1     -10.484   8.115  69.001  1.00  0.00    -0.217 N  
HETATM    7  C   UNL     1      -9.872   6.923  69.371  1.00  0.00    -0.158 C  
HETATM    8  C   UNL     1      -9.762   6.853  70.702  1.00  0.00    -0.175 C  
HETATM    9  N   UNL     1     -10.323   7.979  71.261  1.00  0.00    -0.191 N  
HETATM   10  C   UNL     1     -10.828   8.822  70.222  1.00  0.00    -0.231 C  
HETATM   11  C   UNL     1     -10.416   8.211  72.685  1.00  0.00    -0.330 C  
HETATM   12  S   UNL     1     -11.651  10.253  70.425  1.00  0.00    -0.349 S  
ENDBRANCH   3   4
ENDBRANCH   2   3
TORSDOF 2
ENDMDL
MODEL      125
REMARK 921   NORMALIZED FREE ENERGY PREDICTED BY IDOCK:   -2.65 KCAL/MOL
REMARK 922        TOTAL FREE ENERGY PREDICTED BY IDOCK:   -3.05 KCAL/MOL
REMARK 923 INTER-LIGAND FREE ENERGY PREDICTED BY IDOCK:   -2.94 KCAL/MOL
REMARK 924 INTRA-LIGAND FREE ENERGY PREDICTED BY IDOCK:   -0.11 KCAL/MOL
REMARK 927      BINDING AFFINITY PREDICTED BY RF-SCORE:    0.00 PKD
ROOT
HETATM    1  C   UNL     1      -9.453   9.371  65.745  1.00  0.00    -0.325 C  
HETATM    2  C   UNL     1      -8.544   9.748  66.906  1.00  0.00    -0.124 C  
ENDROOT
BRANCH   2   3
HETATM    3  O   UNL     1      -9.164   9.347  68.135  1.00  0.00    -0.131 OA 
BRANCH   3   4
HETATM    4  C   UNL     1      -9.734  10.353  68.851  1.00  0.00    -0.198 C  
HETATM    5  O   UNL     1      -9.491  11.543  68.656  1.00  0.00    -0.188 OA 
HETATM    6  N   UNL     1     -10.719   9.896  69.732  1.00  0.00    -0.248 N  
HETATM    7  C   UNL     1     -11.695  10.766  70.205  1.00  0.00    -0.352 C  
HETATM    8  C   UNL     1     -12.581  10.104  70.955  1.00  0.00    -0.381 C  
HETATM    9  N   UNL     1     -12.209   8.780  71.031  1.00  0.00    -0.242 N  
HETATM   10  C   UNL     1     -11.005   8.584  70.284  1.00  0.00    -0.235 C  
HETATM   11  C   UNL     1     -12.921   7.785  71.800  1.00  0.00    -0.323 C  
HETATM   12  S   UNL     1     -10.148   7.164  70.149  1.00  0.00    -0.190 S  
ENDBRANCH   3   4
ENDBRANCH   2   3
TORSDOF 2
ENDMDL
MODEL      126
REMARK 921   NORMALIZED FREE ENERGY PREDICTED BY IDOCK:   -2.64 KCAL/MOL
REMARK 922        TOTAL FREE ENERGY PREDICTED BY IDOCK:   -3.05 KCAL/MOL
REMARK 923 INTER-LIGAND FREE ENERGY PREDICTED BY IDOCK:   -2.97 KCAL/MOL
REMARK 924 INTRA-LIGAND FREE ENERGY PREDICTED BY IDOCK:   -0.08 KCAL/MOL
REMARK 927      BINDING AFFINITY PREDICTED BY RF-SCORE:    0.00 PKD
ROOT
HETATM    1  C   UNL     1     -11.215  15.228  69.253  1.00  0.00    -0.291 C  
HETATM    2  C   UNL     1     -11.740  13.918  68.684  1.00  0.00    -0.361 C  
ENDROOT
BRANCH   2   3
HETATM    3  O   UNL     1     -10.645  13.176  68.132  1.00  0.00    -0.231 OA 
BRANCH   3   4
HETATM    4  C   UNL     1     -10.987  12.017  67.508  1.00  0.00    -0.253 C  
HETATM    5  O   UNL     1     -12.142  11.598  67.446  1.00  0.00    -0.605 OA 
HETATM    6  N   UNL     1      -9.911  11.428  66.838  1.00  0.00    -0.191 N  
HETATM    7  C   UNL     1     -10.138  10.520  65.808  1.00  0.00    -0.265 C  
HETATM    8  C   UNL     1      -8.980  10.155  65.250  1.00  0.00    -0.187 C  
HETATM    9  N   UNL     1      -7.945  10.781  65.906  1.00  0.00    -0.157 N  
HETATM   10  C   UNL     1      -8.473  11.597  66.955  1.00  0.00    -0.168 C  
HETATM   11  C   UNL     1      -6.549  10.577  65.589  1.00  0.00    -0.116 C  
HETATM   12  S   UNL     1      -7.594  12.483  68.054  1.00  0.00    -0.141 S  
ENDBRANCH   3   4
ENDBRANCH   2   3
TORSDOF 2
ENDMDL
MODEL      127
REMARK 921   NORMALIZED FREE ENERGY PREDICTED BY IDOCK:   -2.64 KCAL/MOL
REMARK 922        TOTAL FREE ENERGY PREDICTED BY IDOCK:   -3.04 KCAL/MOL
REMARK 923 INTER-LIGAND FREE ENERGY PREDICTED BY IDOCK:   -2.93 KCAL/MOL
REMARK 924 INTRA-LIGAND FREE ENERGY PREDICTED BY IDOCK:   -0.10 KCAL/MOL
REMARK 927      BINDING AFFINITY PREDICTED BY RF-SCORE:    0.00 PKD
ROOT
HETATM    1  C   UNL     1      -9.362  12.735  66.899  1.00  0.00    -0.234 C  
HETATM    2  C   UNL     1      -8.735  11.356  66.757  1.00  0.00    -0.174 C  
ENDROOT
BRANCH   2   3
HETATM    3  O   UNL     1      -9.484  10.418  67.540  1.00  0.00    -0.148 OA 
BRANCH   3   4
HETATM    4  C   UNL     1     -10.052   9.402  66.837  1.00  0.00    -0.248 C  
HETATM    5  O   UNL     1     -10.089   9.367  65.608  1.00  0.00    -0.261 OA 
HETATM    6  N   UNL     1     -10.466   8.347  67.656  1.00  0.00    -0.250 N  
HETATM    7  C   UNL     1     -10.650   7.076  67.122  1.00  0.00    -0.341 C  
HETATM    8  C   UNL     1     -10.954   6.207  68.091  1.00  0.00    -0.307 C  
HETATM    9  N   UNL     1     -11.014   6.873  69.294  1.00  0.00    -0.239 N  
HETATM   10  C   UNL     1     -10.733   8.260  69.080  1.00  0.00    -0.101 C  
HETATM   11  C   UNL     1     -11.363   6.245  70.548  1.00  0.00    -0.361 C  
HETATM   12  S   UNL     1     -10.760   9.461  70.231  1.00  0.00    -0.273 S  
ENDBRANCH   3   4
ENDBRANCH   2   3
TORSDOF 2
ENDMDL
MODEL      128
REMARK 921   NORMALIZED FREE ENERGY PREDICTED BY IDOCK:   -2.63 KCAL/MOL
REMARK 922        TOTAL FREE ENERGY PREDICTED BY IDOCK:   -3.03 KCAL/MOL
REMARK 923 INTER-LIGAND FREE ENERGY PREDICTED BY IDOCK:   -2.96 KCAL/MOL
REMARK 924 INTRA-LIGAND FREE ENERGY PREDICTED BY IDOCK:   -0.08 KCAL/MOL
REMARK 927      BINDING AFFINITY PREDICTED BY RF-SCORE:    0.00 PKD
ROOT
HETATM    1  C   UNL     1     -13.858   7.569  71.648  1.00  0.00    -0.486 C  
HETATM    2  C   UNL     1     -13.234   8.898  72.048  1.00  0.00    -0.409 C  
ENDROOT
BRANCH   2   3
HETATM    3  O   UNL     1     -12.111   9.163  71.197  1.00  0.00    -0.292 OA 
BRANCH   3   4
HETATM    4  C   UNL     1     -10.910   8.744  71.676  1.00  0.00    -0.329 C  
HETATM    5  O   UNL     1     -10.747   8.328  72.822  1.00  0.00    -0.343 OA 
HETATM    6  N   UNL     1      -9.918   8.713  70.691  1.00  0.00    -0.184 N  
HETATM    7  C   UNL     1      -8.787   7.922  70.860  1.00  0.00    -0.138 C  
HETATM    8  C   UNL     1      -8.021   7.971  69.766  1.00  0.00    -0.115 C  
HETATM    9  N   UNL     1      -8.598   8.818  68.848  1.00  0.00    -0.135 N  
HETATM   10  C   UNL     1      -9.811   9.349  69.390  1.00  0.00    -0.178 C  
HETATM   11  C   UNL     1      -8.012   9.139  67.565  1.00  0.00    -0.100 C  
HETATM   12  S   UNL     1     -10.809  10.467  68.668  1.00  0.00    -0.248 S  
ENDBRANCH   3   4
ENDBRANCH   2   3
TORSDOF 2
ENDMDL
MODEL      129
REMARK 921   NORMALIZED FREE ENERGY PREDICTED BY IDOCK:   -2.63 KCAL/MOL
REMARK 922        TOTAL FREE ENERGY PREDICTED BY IDOCK:   -3.03 KCAL/MOL
REMARK 923 INTER-LIGAND FREE ENERGY PREDICTED BY IDOCK:   -2.96 KCAL/MOL
REMARK 924 INTRA-LIGAND FREE ENERGY PREDICTED BY IDOCK:   -0.07 KCAL/MOL
REMARK 927      BINDING AFFINITY PREDICTED BY RF-SCORE:    0.00 PKD
ROOT
HETATM    1  C   UNL     1     -10.275  12.696  65.419  1.00  0.00    -0.301 C  
HETATM    2  C   UNL     1      -9.873  11.456  66.203  1.00  0.00    -0.222 C  
ENDROOT
BRANCH   2   3
HETATM    3  O   UNL     1     -10.982  11.030  67.006  1.00  0.00    -0.277 OA 
BRANCH   3   4
HETATM    4  C   UNL     1     -10.814  11.174  68.348  1.00  0.00    -0.205 C  
HETATM    5  O   UNL     1     -10.732  12.268  68.904  1.00  0.00    -0.223 OA 
HETATM    6  N   UNL     1     -10.881   9.958  69.032  1.00  0.00    -0.222 N  
HETATM    7  C   UNL     1     -11.174   9.933  70.392  1.00  0.00    -0.313 C  
HETATM    8  C   UNL     1     -11.277   8.672  70.821  1.00  0.00    -0.261 C  
HETATM    9  N   UNL     1     -11.026   7.816  69.772  1.00  0.00    -0.206 N  
HETATM   10  C   UNL     1     -10.741   8.580  68.596  1.00  0.00    -0.041 C  
HETATM   11  C   UNL     1     -11.011   6.375  69.892  1.00  0.00    -0.348 C  
HETATM   12  S   UNL     1     -10.311   7.975  67.107  1.00  0.00    -0.337 S  
ENDBRANCH   3   4
ENDBRANCH   2   3
TORSDOF 2
ENDMDL
MODEL      130
REMARK 921   NORMALIZED FREE ENERGY PREDICTED BY IDOCK:   -2.62 KCAL/MOL
REMARK 922        TOTAL FREE ENERGY PREDICTED BY IDOCK:   -3.02 KCAL/MOL
REMARK 923 INTER-LIGAND FREE ENERGY PREDICTED BY IDOCK:   -2.88 KCAL/MOL
REMARK 924 INTRA-LIGAND FREE ENERGY PREDICTED BY IDOCK:   -0.15 KCAL/MOL
REMARK 927      BINDING AFFINITY PREDICTED BY RF-SCORE:    0.00 PKD
ROOT
HETATM    1  C   UNL     1     -10.588  10.360  69.614  1.00  0.00    -0.289 C  
HETATM    2  C   UNL     1     -11.362   9.941  70.855  1.00  0.00    -0.370 C  
ENDROOT
BRANCH   2   3
HETATM    3  O   UNL     1     -11.585   8.526  70.812  1.00  0.00    -0.274 OA 
BRANCH   3   4
HETATM    4  C   UNL     1     -11.463   7.885  72.005  1.00  0.00    -0.300 C  
HETATM    5  O   UNL     1     -11.917   8.325  73.059  1.00  0.00    -0.265 OA 
HETATM    6  N   UNL     1     -10.887   6.617  71.878  1.00  0.00    -0.230 N  
HETATM    7  C   UNL     1     -11.078   5.658  72.866  1.00  0.00    -0.292 C  
HETATM    8  C   UNL     1     -10.520   4.499  72.501  1.00  0.00    -0.186 C  
HETATM    9  N   UNL     1      -9.914   4.657  71.275  1.00  0.00    -0.196 N  
HETATM   10  C   UNL     1     -10.093   6.004  70.828  1.00  0.00    -0.197 C  
HETATM   11  C   UNL     1      -9.176   3.613  70.600  1.00  0.00    -0.134 C  
HETATM   12  S   UNL     1      -9.474   6.672  69.436  1.00  0.00    -0.145 S  
ENDBRANCH   3   4
ENDBRANCH   2   3
TORSDOF 2
ENDMDL
MODEL      131
REMARK 921   NORMALIZED FREE ENERGY PREDICTED BY IDOCK:   -2.61 KCAL/MOL
REMARK 922        TOTAL FREE ENERGY PREDICTED BY IDOCK:   -3.01 KCAL/MOL
REMARK 923 INTER-LIGAND FREE ENERGY PREDICTED BY IDOCK:   -3.51 KCAL/MOL
REMARK 924 INTRA-LIGAND FREE ENERGY PREDICTED BY IDOCK:    0.50 KCAL/MOL
REMARK 927      BINDING AFFINITY PREDICTED BY RF-SCORE:    0.00 PKD
ROOT
HETATM    1  C   UNL     1      -6.484  20.366  64.380  1.00  0.00    -0.282 C  
HETATM    2  C   UNL     1      -5.821  19.155  65.021  1.00  0.00    -0.254 C  
ENDROOT
BRANCH   2   3
HETATM    3  O   UNL     1      -5.815  19.323  66.444  1.00  0.00    -0.165 OA 
BRANCH   3   4
HETATM    4  C   UNL     1      -6.794  20.128  66.936  1.00  0.00    -0.225 C  
HETATM    5  O   UNL     1      -6.672  21.346  67.052  1.00  0.00    -0.515 OA 
HETATM    6  N   UNL     1      -7.989  19.442  67.168  1.00  0.00    -0.255 N  
HETATM    7  C   UNL     1      -9.193  20.135  67.238  1.00  0.00    -0.382 C  
HETATM    8  C   UNL     1     -10.212  19.280  67.373  1.00  0.00    -0.414 C  
HETATM    9  N   UNL     1      -9.720  17.996  67.428  1.00  0.00    -0.288 N  
HETATM   10  C   UNL     1      -8.294  18.031  67.325  1.00  0.00    -0.229 C  
HETATM   11  C   UNL     1     -10.545  16.823  67.615  1.00  0.00    -0.325 C  
HETATM   12  S   UNL     1      -7.265  16.726  67.414  1.00  0.00    -0.174 S  
ENDBRANCH   3   4
ENDBRANCH   2   3
TORSDOF 2
ENDMDL
MODEL      132
REMARK 921   NORMALIZED FREE ENERGY PREDICTED BY IDOCK:   -2.58 KCAL/MOL
REMARK 922        TOTAL FREE ENERGY PREDICTED BY IDOCK:   -2.98 KCAL/MOL
REMARK 923 INTER-LIGAND FREE ENERGY PREDICTED BY IDOCK:   -2.78 KCAL/MOL
REMARK 924 INTRA-LIGAND FREE ENERGY PREDICTED BY IDOCK:   -0.20 KCAL/MOL
REMARK 927      BINDING AFFINITY PREDICTED BY RF-SCORE:    0.00 PKD
ROOT
HETATM    1  C   UNL     1     -10.287   9.060  70.921  1.00  0.00    -0.323 C  
HETATM    2  C   UNL     1     -11.391   8.112  71.365  1.00  0.00    -0.259 C  
ENDROOT
BRANCH   2   3
HETATM    3  O   UNL     1     -11.516   7.056  70.404  1.00  0.00    -0.299 OA 
BRANCH   3   4
HETATM    4  C   UNL     1     -10.664   6.011  70.578  1.00  0.00    -0.284 C  
HETATM    5  O   UNL     1     -10.380   5.548  71.681  1.00  0.00    -0.205 OA 
HETATM    6  N   UNL     1     -10.256   5.441  69.368  1.00  0.00    -0.243 N  
HETATM    7  C   UNL     1      -9.768   4.139  69.336  1.00  0.00    -0.163 C  
HETATM    8  C   UNL     1      -9.525   3.767  68.076  1.00  0.00    -0.164 C  
HETATM    9  N   UNL     1      -9.813   4.816  67.232  1.00  0.00    -0.181 N  
HETATM   10  C   UNL     1     -10.266   5.933  68.002  1.00  0.00    -0.184 C  
HETATM   11  C   UNL     1      -9.623   4.775  65.799  1.00  0.00    -0.179 C  
HETATM   12  S   UNL     1     -10.661   7.440  67.418  1.00  0.00    -0.293 S  
ENDBRANCH   3   4
ENDBRANCH   2   3
TORSDOF 2
ENDMDL
MODEL      133
REMARK 921   NORMALIZED FREE ENERGY PREDICTED BY IDOCK:   -2.58 KCAL/MOL
REMARK 922        TOTAL FREE ENERGY PREDICTED BY IDOCK:   -2.98 KCAL/MOL
REMARK 923 INTER-LIGAND FREE ENERGY PREDICTED BY IDOCK:   -2.88 KCAL/MOL
REMARK 924 INTRA-LIGAND FREE ENERGY PREDICTED BY IDOCK:   -0.09 KCAL/MOL
REMARK 927      BINDING AFFINITY PREDICTED BY RF-SCORE:    0.00 PKD
ROOT
HETATM    1  C   UNL     1     -12.879  11.936  63.603  1.00  0.00    -0.429 C  
HETATM    2  C   UNL     1     -11.379  12.170  63.496  1.00  0.00    -0.453 C  
ENDROOT
BRANCH   2   3
HETATM    3  O   UNL     1     -10.820  12.229  64.815  1.00  0.00    -0.283 OA 
BRANCH   3   4
HETATM    4  C   UNL     1     -10.029  11.177  65.156  1.00  0.00    -0.272 C  
HETATM    5  O   UNL     1     -10.155  10.053  64.675  1.00  0.00    -0.271 OA 
HETATM    6  N   UNL     1      -8.980  11.546  66.004  1.00  0.00    -0.202 N  
HETATM    7  C   UNL     1      -7.845  10.748  66.103  1.00  0.00    -0.155 C  
HETATM    8  C   UNL     1      -6.938  11.330  66.893  1.00  0.00    -0.137 C  
HETATM    9  N   UNL     1      -7.449  12.516  67.371  1.00  0.00    -0.153 N  
HETATM   10  C   UNL     1      -8.770  12.703  66.855  1.00  0.00    -0.175 C  
HETATM   11  C   UNL     1      -6.749  13.383  68.292  1.00  0.00    -0.105 C  
HETATM   12  S   UNL     1      -9.801  13.958  67.215  1.00  0.00    -0.249 S  
ENDBRANCH   3   4
ENDBRANCH   2   3
TORSDOF 2
ENDMDL
MODEL      134
REMARK 921   NORMALIZED FREE ENERGY PREDICTED BY IDOCK:   -2.58 KCAL/MOL
REMARK 922        TOTAL FREE ENERGY PREDICTED BY IDOCK:   -2.97 KCAL/MOL
REMARK 923 INTER-LIGAND FREE ENERGY PREDICTED BY IDOCK:   -3.11 KCAL/MOL
REMARK 924 INTRA-LIGAND FREE ENERGY PREDICTED BY IDOCK:    0.13 KCAL/MOL
REMARK 927      BINDING AFFINITY PREDICTED BY RF-SCORE:    0.00 PKD
ROOT
HETATM    1  C   UNL     1      -9.138   7.576  66.378  1.00  0.00    -0.210 C  
HETATM    2  C   UNL     1     -10.204   8.526  66.904  1.00  0.00    -0.305 C  
ENDROOT
BRANCH   2   3
HETATM    3  O   UNL     1      -9.730   9.140  68.110  1.00  0.00    -0.149 OA 
BRANCH   3   4
HETATM    4  C   UNL     1     -10.600   9.109  69.155  1.00  0.00    -0.208 C  
HETATM    5  O   UNL     1     -10.771   8.118  69.862  1.00  0.00    -0.244 OA 
HETATM    6  N   UNL     1     -11.171  10.358  69.417  1.00  0.00    -0.246 N  
HETATM    7  C   UNL     1     -11.714  10.632  70.668  1.00  0.00    -0.356 C  
HETATM    8  C   UNL     1     -12.119  11.904  70.728  1.00  0.00    -0.226 C  
HETATM    9  N   UNL     1     -11.889  12.509  69.513  1.00  0.00    -0.317 N  
HETATM   10  C   UNL     1     -11.301  11.562  68.617  1.00  0.00    -0.269 C  
HETATM   11  C   UNL     1     -12.248  13.877  69.212  1.00  0.00    -0.277 C  
HETATM   12  S   UNL     1     -10.914  11.823  67.020  1.00  0.00    -0.300 S  
ENDBRANCH   3   4
ENDBRANCH   2   3
TORSDOF 2
ENDMDL
MODEL      135
REMARK 921   NORMALIZED FREE ENERGY PREDICTED BY IDOCK:   -2.57 KCAL/MOL
REMARK 922        TOTAL FREE ENERGY PREDICTED BY IDOCK:   -2.96 KCAL/MOL
REMARK 923 INTER-LIGAND FREE ENERGY PREDICTED BY IDOCK:   -2.77 KCAL/MOL
REMARK 924 INTRA-LIGAND FREE ENERGY PREDICTED BY IDOCK:   -0.19 KCAL/MOL
REMARK 927      BINDING AFFINITY PREDICTED BY RF-SCORE:    0.00 PKD
ROOT
HETATM    1  C   UNL     1     -10.332   7.550  67.891  1.00  0.00    -0.266 C  
HETATM    2  C   UNL     1     -10.960   6.181  68.109  1.00  0.00    -0.307 C  
ENDROOT
BRANCH   2   3
HETATM    3  O   UNL     1     -10.680   5.745  69.446  1.00  0.00    -0.288 OA 
BRANCH   3   4
HETATM    4  C   UNL     1     -11.331   6.429  70.425  1.00  0.00    -0.389 C  
HETATM    5  O   UNL     1     -12.527   6.708  70.374  1.00  0.00    -0.196 OA 
HETATM    6  N   UNL     1     -10.527   6.659  71.545  1.00  0.00    -0.214 N  
HETATM    7  C   UNL     1     -11.106   6.930  72.780  1.00  0.00    -0.269 C  
HETATM    8  C   UNL     1     -10.163   7.026  73.723  1.00  0.00    -0.363 C  
HETATM    9  N   UNL     1      -8.926   6.854  73.144  1.00  0.00    -0.129 N  
HETATM   10  C   UNL     1      -9.088   6.637  71.739  1.00  0.00    -0.144 C  
HETATM   11  C   UNL     1      -7.678   6.939  73.867  1.00  0.00    -0.101 C  
HETATM   12  S   UNL     1      -7.869   6.451  70.623  1.00  0.00    -0.108 S  
ENDBRANCH   3   4
ENDBRANCH   2   3
TORSDOF 2
ENDMDL
MODEL      136
REMARK 921   NORMALIZED FREE ENERGY PREDICTED BY IDOCK:   -2.55 KCAL/MOL
REMARK 922        TOTAL FREE ENERGY PREDICTED BY IDOCK:   -2.94 KCAL/MOL
REMARK 923 INTER-LIGAND FREE ENERGY PREDICTED BY IDOCK:   -2.79 KCAL/MOL
REMARK 924 INTRA-LIGAND FREE ENERGY PREDICTED BY IDOCK:   -0.15 KCAL/MOL
REMARK 927      BINDING AFFINITY PREDICTED BY RF-SCORE:    0.00 PKD
ROOT
HETATM    1  C   UNL     1      -6.597   7.653  69.246  1.00  0.00    -0.040 C  
HETATM    2  C   UNL     1      -7.776   8.322  69.937  1.00  0.00    -0.097 C  
ENDROOT
BRANCH   2   3
HETATM    3  O   UNL     1      -8.993   7.854  69.344  1.00  0.00    -0.144 OA 
BRANCH   3   4
HETATM    4  C   UNL     1      -9.831   7.193  70.187  1.00  0.00    -0.179 C  
HETATM    5  O   UNL     1      -9.676   6.016  70.508  1.00  0.00    -0.169 OA 
HETATM    6  N   UNL     1     -10.801   8.029  70.747  1.00  0.00    -0.228 N  
HETATM    7  C   UNL     1     -11.443   7.667  71.926  1.00  0.00    -0.272 C  
HETATM    8  C   UNL     1     -12.259   8.645  72.329  1.00  0.00    -0.378 C  
HETATM    9  N   UNL     1     -12.212   9.676  71.418  1.00  0.00    -0.358 N  
HETATM   10  C   UNL     1     -11.310   9.333  70.362  1.00  0.00    -0.242 C  
HETATM   11  C   UNL     1     -13.007  10.880  71.519  1.00  0.00    -0.451 C  
HETATM   12  S   UNL     1     -10.988  10.241  69.006  1.00  0.00    -0.231 S  
ENDBRANCH   3   4
ENDBRANCH   2   3
TORSDOF 2
ENDMDL
MODEL      137
REMARK 921   NORMALIZED FREE ENERGY PREDICTED BY IDOCK:   -2.54 KCAL/MOL
REMARK 922        TOTAL FREE ENERGY PREDICTED BY IDOCK:   -2.93 KCAL/MOL
REMARK 923 INTER-LIGAND FREE ENERGY PREDICTED BY IDOCK:   -2.85 KCAL/MOL
REMARK 924 INTRA-LIGAND FREE ENERGY PREDICTED BY IDOCK:   -0.08 KCAL/MOL
REMARK 927      BINDING AFFINITY PREDICTED BY RF-SCORE:    0.00 PKD
ROOT
HETATM    1  C   UNL     1      -6.786  19.583  69.398  1.00  0.00    -0.365 C  
HETATM    2  C   UNL     1      -6.440  18.107  69.261  1.00  0.00    -0.255 C  
ENDROOT
BRANCH   2   3
HETATM    3  O   UNL     1      -7.598  17.395  68.807  1.00  0.00    -0.249 OA 
BRANCH   3   4
HETATM    4  C   UNL     1      -7.468  16.041  68.772  1.00  0.00    -0.176 C  
HETATM    5  O   UNL     1      -6.508  15.442  69.254  1.00  0.00    -0.121 OA 
HETATM    6  N   UNL     1      -8.598  15.405  68.251  1.00  0.00    -0.155 N  
HETATM    7  C   UNL     1      -8.842  14.066  68.534  1.00  0.00    -0.160 C  
HETATM    8  C   UNL     1     -10.014  13.688  68.016  1.00  0.00    -0.247 C  
HETATM    9  N   UNL     1     -10.575  14.752  67.346  1.00  0.00    -0.264 N  
HETATM   10  C   UNL     1      -9.703  15.883  67.439  1.00  0.00    -0.227 C  
HETATM   11  C   UNL     1     -11.828  14.683  66.627  1.00  0.00    -0.310 C  
HETATM   12  S   UNL     1      -9.932  17.367  66.724  1.00  0.00    -0.320 S  
ENDBRANCH   3   4
ENDBRANCH   2   3
TORSDOF 2
ENDMDL
MODEL      138
REMARK 921   NORMALIZED FREE ENERGY PREDICTED BY IDOCK:   -2.53 KCAL/MOL
REMARK 922        TOTAL FREE ENERGY PREDICTED BY IDOCK:   -2.92 KCAL/MOL
REMARK 923 INTER-LIGAND FREE ENERGY PREDICTED BY IDOCK:   -3.45 KCAL/MOL
REMARK 924 INTRA-LIGAND FREE ENERGY PREDICTED BY IDOCK:    0.53 KCAL/MOL
REMARK 927      BINDING AFFINITY PREDICTED BY RF-SCORE:    0.00 PKD
ROOT
HETATM    1  C   UNL     1      -7.635  17.002  68.352  1.00  0.00    -0.220 C  
HETATM    2  C   UNL     1      -8.040  15.743  69.104  1.00  0.00    -0.237 C  
ENDROOT
BRANCH   2   3
HETATM    3  O   UNL     1      -9.470  15.684  69.184  1.00  0.00    -0.219 OA 
BRANCH   3   4
HETATM    4  C   UNL     1     -10.132  16.426  68.256  1.00  0.00    -0.248 C  
HETATM    5  O   UNL     1     -10.424  17.609  68.420  1.00  0.00    -0.364 OA 
HETATM    6  N   UNL     1     -10.323  15.738  67.054  1.00  0.00    -0.286 N  
HETATM    7  C   UNL     1     -10.564  16.439  65.876  1.00  0.00    -0.285 C  
HETATM    8  C   UNL     1     -10.624  15.596  64.841  1.00  0.00    -0.316 C  
HETATM    9  N   UNL     1     -10.456  14.308  65.296  1.00  0.00    -0.364 N  
HETATM   10  C   UNL     1     -10.281  14.327  66.715  1.00  0.00    -0.272 C  
HETATM   11  C   UNL     1     -10.509  13.139  64.447  1.00  0.00    -0.407 C  
HETATM   12  S   UNL     1     -10.114  13.002  67.707  1.00  0.00    -0.235 S  
ENDBRANCH   3   4
ENDBRANCH   2   3
TORSDOF 2
ENDMDL
MODEL      139
REMARK 921   NORMALIZED FREE ENERGY PREDICTED BY IDOCK:   -2.51 KCAL/MOL
REMARK 922        TOTAL FREE ENERGY PREDICTED BY IDOCK:   -2.89 KCAL/MOL
REMARK 923 INTER-LIGAND FREE ENERGY PREDICTED BY IDOCK:   -2.74 KCAL/MOL
REMARK 924 INTRA-LIGAND FREE ENERGY PREDICTED BY IDOCK:   -0.15 KCAL/MOL
REMARK 927      BINDING AFFINITY PREDICTED BY RF-SCORE:    0.00 PKD
ROOT
HETATM    1  C   UNL     1     -11.523  10.350  70.595  1.00  0.00    -0.438 C  
HETATM    2  C   UNL     1     -10.619   9.131  70.700  1.00  0.00    -0.246 C  
ENDROOT
BRANCH   2   3
HETATM    3  O   UNL     1     -11.304   8.101  71.424  1.00  0.00    -0.247 OA 
BRANCH   3   4
HETATM    4  C   UNL     1     -11.314   6.881  70.823  1.00  0.00    -0.310 C  
HETATM    5  O   UNL     1     -11.928   6.645  69.784  1.00  0.00    -0.245 OA 
HETATM    6  N   UNL     1     -10.450   5.970  71.438  1.00  0.00    -0.223 N  
HETATM    7  C   UNL     1      -9.992   4.858  70.741  1.00  0.00    -0.222 C  
HETATM    8  C   UNL     1      -9.112   4.177  71.481  1.00  0.00    -0.123 C  
HETATM    9  N   UNL     1      -8.979   4.794  72.705  1.00  0.00    -0.123 N  
HETATM   10  C   UNL     1      -9.831   5.942  72.751  1.00  0.00    -0.166 C  
HETATM   11  C   UNL     1      -8.138   4.298  73.771  1.00  0.00    -0.089 C  
HETATM   12  S   UNL     1     -10.054   6.953  74.053  1.00  0.00    -0.312 S  
ENDBRANCH   3   4
ENDBRANCH   2   3
TORSDOF 2
ENDMDL
MODEL      140
REMARK 921   NORMALIZED FREE ENERGY PREDICTED BY IDOCK:   -2.49 KCAL/MOL
REMARK 922        TOTAL FREE ENERGY PREDICTED BY IDOCK:   -2.87 KCAL/MOL
REMARK 923 INTER-LIGAND FREE ENERGY PREDICTED BY IDOCK:   -2.75 KCAL/MOL
REMARK 924 INTRA-LIGAND FREE ENERGY PREDICTED BY IDOCK:   -0.12 KCAL/MOL
REMARK 927      BINDING AFFINITY PREDICTED BY RF-SCORE:    0.00 PKD
ROOT
HETATM    1  C   UNL     1      -7.808   6.205  68.675  1.00  0.00    -0.101 C  
HETATM    2  C   UNL     1      -8.904   6.901  67.882  1.00  0.00    -0.123 C  
ENDROOT
BRANCH   2   3
HETATM    3  O   UNL     1      -8.902   8.297  68.207  1.00  0.00    -0.139 OA 
BRANCH   3   4
HETATM    4  C   UNL     1      -9.974   8.725  68.927  1.00  0.00    -0.192 C  
HETATM    5  O   UNL     1     -10.267   8.276  70.033  1.00  0.00    -0.194 OA 
HETATM    6  N   UNL     1     -10.619   9.814  68.334  1.00  0.00    -0.218 N  
HETATM    7  C   UNL     1     -11.424  10.652  69.099  1.00  0.00    -0.280 C  
HETATM    8  C   UNL     1     -11.865  11.673  68.358  1.00  0.00    -0.278 C  
HETATM    9  N   UNL     1     -11.396  11.533  67.071  1.00  0.00    -0.301 N  
HETATM   10  C   UNL     1     -10.606  10.344  66.983  1.00  0.00    -0.245 C  
HETATM   11  C   UNL     1     -11.717  12.440  65.992  1.00  0.00    -0.410 C  
HETATM   12  S   UNL     1      -9.894   9.732  65.609  1.00  0.00    -0.273 S  
ENDBRANCH   3   4
ENDBRANCH   2   3
TORSDOF 2
ENDMDL
MODEL      141
REMARK 921   NORMALIZED FREE ENERGY PREDICTED BY IDOCK:   -2.47 KCAL/MOL
REMARK 922        TOTAL FREE ENERGY PREDICTED BY IDOCK:   -2.86 KCAL/MOL
REMARK 923 INTER-LIGAND FREE ENERGY PREDICTED BY IDOCK:   -2.77 KCAL/MOL
REMARK 924 INTRA-LIGAND FREE ENERGY PREDICTED BY IDOCK:   -0.09 KCAL/MOL
REMARK 927      BINDING AFFINITY PREDICTED BY RF-SCORE:    0.00 PKD
ROOT
HETATM    1  C   UNL     1      -6.441  16.884  69.323  1.00  0.00    -0.228 C  
HETATM    2  C   UNL     1      -6.366  15.570  68.559  1.00  0.00    -0.100 C  
ENDROOT
BRANCH   2   3
HETATM    3  O   UNL     1      -7.672  15.239  68.069  1.00  0.00    -0.116 OA 
BRANCH   3   4
HETATM    4  C   UNL     1      -7.846  13.936  67.720  1.00  0.00    -0.168 C  
HETATM    5  O   UNL     1      -7.052  13.045  68.016  1.00  0.00    -0.088 OA 
HETATM    6  N   UNL     1      -9.081  13.703  67.108  1.00  0.00    -0.230 N  
HETATM    7  C   UNL     1      -9.621  12.422  67.085  1.00  0.00    -0.206 C  
HETATM    8  C   UNL     1     -10.840  12.443  66.536  1.00  0.00    -0.250 C  
HETATM    9  N   UNL     1     -11.139  13.730  66.149  1.00  0.00    -0.295 N  
HETATM   10  C   UNL     1     -10.038  14.587  66.467  1.00  0.00    -0.274 C  
HETATM   11  C   UNL     1     -12.363  14.107  65.479  1.00  0.00    -0.458 C  
HETATM   12  S   UNL     1      -9.920  16.210  66.121  1.00  0.00    -0.357 S  
ENDBRANCH   3   4
ENDBRANCH   2   3
TORSDOF 2
ENDMDL
MODEL      142
REMARK 921   NORMALIZED FREE ENERGY PREDICTED BY IDOCK:   -2.47 KCAL/MOL
REMARK 922        TOTAL FREE ENERGY PREDICTED BY IDOCK:   -2.86 KCAL/MOL
REMARK 923 INTER-LIGAND FREE ENERGY PREDICTED BY IDOCK:   -2.68 KCAL/MOL
REMARK 924 INTRA-LIGAND FREE ENERGY PREDICTED BY IDOCK:   -0.17 KCAL/MOL
REMARK 927      BINDING AFFINITY PREDICTED BY RF-SCORE:    0.00 PKD
ROOT
HETATM    1  C   UNL     1      -8.272  15.171  68.866  1.00  0.00    -0.181 C  
HETATM    2  C   UNL     1      -9.634  15.195  68.188  1.00  0.00    -0.205 C  
ENDROOT
BRANCH   2   3
HETATM    3  O   UNL     1     -10.418  14.098  68.674  1.00  0.00    -0.240 OA 
BRANCH   3   4
HETATM    4  C   UNL     1     -11.473  13.749  67.890  1.00  0.00    -0.314 C  
HETATM    5  O   UNL     1     -12.533  14.372  67.865  1.00  0.00    -0.092 OA 
HETATM    6  N   UNL     1     -11.174  12.692  67.025  1.00  0.00    -0.284 N  
HETATM    7  C   UNL     1     -11.933  12.489  65.877  1.00  0.00    -0.409 C  
HETATM    8  C   UNL     1     -11.420  11.489  65.154  1.00  0.00    -0.020 C  
HETATM    9  N   UNL     1     -10.324  10.974  65.808  1.00  0.00    -0.257 N  
HETATM   10  C   UNL     1     -10.125  11.688  67.032  1.00  0.00    -0.209 C  
HETATM   11  C   UNL     1      -9.552   9.850  65.328  1.00  0.00    -0.295 C  
HETATM   12  S   UNL     1      -8.966  11.371  68.182  1.00  0.00    -0.175 S  
ENDBRANCH   3   4
ENDBRANCH   2   3
TORSDOF 2
ENDMDL
MODEL      143
REMARK 921   NORMALIZED FREE ENERGY PREDICTED BY IDOCK:   -2.45 KCAL/MOL
REMARK 922        TOTAL FREE ENERGY PREDICTED BY IDOCK:   -2.83 KCAL/MOL
REMARK 923 INTER-LIGAND FREE ENERGY PREDICTED BY IDOCK:   -2.73 KCAL/MOL
REMARK 924 INTRA-LIGAND FREE ENERGY PREDICTED BY IDOCK:   -0.10 KCAL/MOL
REMARK 927      BINDING AFFINITY PREDICTED BY RF-SCORE:    0.00 PKD
ROOT
HETATM    1  C   UNL     1      -6.883   5.049  69.425  1.00  0.00    -0.053 C  
HETATM    2  C   UNL     1      -8.113   5.485  68.643  1.00  0.00    -0.102 C  
ENDROOT
BRANCH   2   3
HETATM    3  O   UNL     1      -8.865   6.414  69.433  1.00  0.00    -0.131 OA 
BRANCH   3   4
HETATM    4  C   UNL     1     -10.045   5.941  69.916  1.00  0.00    -0.198 C  
HETATM    5  O   UNL     1     -10.328   4.745  69.956  1.00  0.00    -0.249 OA 
HETATM    6  N   UNL     1     -10.838   6.945  70.479  1.00  0.00    -0.242 N  
HETATM    7  C   UNL     1     -11.835   6.621  71.393  1.00  0.00    -0.337 C  
HETATM    8  C   UNL     1     -12.404   7.732  71.871  1.00  0.00    -0.310 C  
HETATM    9  N   UNL     1     -11.828   8.829  71.271  1.00  0.00    -0.293 N  
HETATM   10  C   UNL     1     -10.828   8.391  70.346  1.00  0.00    -0.235 C  
HETATM   11  C   UNL     1     -12.234  10.193  71.522  1.00  0.00    -0.380 C  
HETATM   12  S   UNL     1      -9.921   9.359  69.342  1.00  0.00    -0.195 S  
ENDBRANCH   3   4
ENDBRANCH   2   3
TORSDOF 2
ENDMDL
MODEL      144
REMARK 921   NORMALIZED FREE ENERGY PREDICTED BY IDOCK:   -2.42 KCAL/MOL
REMARK 922        TOTAL FREE ENERGY PREDICTED BY IDOCK:   -2.80 KCAL/MOL
REMARK 923 INTER-LIGAND FREE ENERGY PREDICTED BY IDOCK:   -2.61 KCAL/MOL
REMARK 924 INTRA-LIGAND FREE ENERGY PREDICTED BY IDOCK:   -0.19 KCAL/MOL
REMARK 927      BINDING AFFINITY PREDICTED BY RF-SCORE:    0.00 PKD
ROOT
HETATM    1  C   UNL     1      -9.967   5.977  70.154  1.00  0.00    -0.228 C  
HETATM    2  C   UNL     1      -9.534   6.248  71.587  1.00  0.00    -0.147 C  
ENDROOT
BRANCH   2   3
HETATM    3  O   UNL     1      -9.767   7.628  71.894  1.00  0.00    -0.160 OA 
BRANCH   3   4
HETATM    4  C   UNL     1      -8.820   8.490  71.437  1.00  0.00    -0.198 C  
HETATM    5  O   UNL     1      -7.619   8.359  71.667  1.00  0.00    -0.087 OA 
HETATM    6  N   UNL     1      -9.343   9.457  70.574  1.00  0.00    -0.255 N  
HETATM    7  C   UNL     1      -8.511  10.124  69.681  1.00  0.00    -0.157 C  
HETATM    8  C   UNL     1      -9.229  10.932  68.895  1.00  0.00    -0.160 C  
HETATM    9  N   UNL     1     -10.555  10.853  69.256  1.00  0.00    -0.222 N  
HETATM   10  C   UNL     1     -10.694   9.939  70.347  1.00  0.00    -0.318 C  
HETATM   11  C   UNL     1     -11.607  11.631  68.640  1.00  0.00    -0.312 C  
HETATM   12  S   UNL     1     -12.100   9.579  71.160  1.00  0.00    -0.363 S  
ENDBRANCH   3   4
ENDBRANCH   2   3
TORSDOF 2
ENDMDL
MODEL      145
REMARK 921   NORMALIZED FREE ENERGY PREDICTED BY IDOCK:   -2.42 KCAL/MOL
REMARK 922        TOTAL FREE ENERGY PREDICTED BY IDOCK:   -2.80 KCAL/MOL
REMARK 923 INTER-LIGAND FREE ENERGY PREDICTED BY IDOCK:   -2.80 KCAL/MOL
REMARK 924 INTRA-LIGAND FREE ENERGY PREDICTED BY IDOCK:    0.00 KCAL/MOL
REMARK 927      BINDING AFFINITY PREDICTED BY RF-SCORE:    0.00 PKD
ROOT
HETATM    1  C   UNL     1      -7.684  12.819  67.613  1.00  0.00    -0.162 C  
HETATM    2  C   UNL     1      -8.169  13.456  68.906  1.00  0.00     0.177 C  
ENDROOT
BRANCH   2   3
HETATM    3  O   UNL     1      -9.472  14.013  68.693  1.00  0.00    -0.203 OA 
BRANCH   3   4
HETATM    4  C   UNL     1     -10.377  13.170  68.128  1.00  0.00    -0.244 C  
HETATM    5  O   UNL     1     -10.709  12.099  68.633  1.00  0.00    -0.223 OA 
HETATM    6  N   UNL     1     -10.981  13.712  66.990  1.00  0.00    -0.286 N  
HETATM    7  C   UNL     1     -12.205  13.222  66.545  1.00  0.00    -0.327 C  
HETATM    8  C   UNL     1     -12.640  13.940  65.505  1.00  0.00    -0.526 C  
HETATM    9  N   UNL     1     -11.709  14.909  65.204  1.00  0.00    -0.329 N  
HETATM   10  C   UNL     1     -10.605  14.802  66.107  1.00  0.00    -0.311 C  
HETATM   11  C   UNL     1     -11.838  15.837  64.103  1.00  0.00    -0.030 C  
HETATM   12  S   UNL     1      -9.216  15.716  66.081  1.00  0.00    -0.334 S  
ENDBRANCH   3   4
ENDBRANCH   2   3
TORSDOF 2
ENDMDL
MODEL      146
REMARK 921   NORMALIZED FREE ENERGY PREDICTED BY IDOCK:   -2.41 KCAL/MOL
REMARK 922        TOTAL FREE ENERGY PREDICTED BY IDOCK:   -2.79 KCAL/MOL
REMARK 923 INTER-LIGAND FREE ENERGY PREDICTED BY IDOCK:   -2.71 KCAL/MOL
REMARK 924 INTRA-LIGAND FREE ENERGY PREDICTED BY IDOCK:   -0.08 KCAL/MOL
REMARK 927      BINDING AFFINITY PREDICTED BY RF-SCORE:    0.00 PKD
ROOT
HETATM    1  C   UNL     1      -9.599  13.363  66.991  1.00  0.00    -0.244 C  
HETATM    2  C   UNL     1     -11.063  13.521  66.607  1.00  0.00    -0.298 C  
ENDROOT
BRANCH   2   3
HETATM    3  O   UNL     1     -11.688  12.231  66.600  1.00  0.00    -0.452 OA 
BRANCH   3   4
HETATM    4  C   UNL     1     -11.280  11.396  65.607  1.00  0.00    -0.076 C  
HETATM    5  O   UNL     1     -11.487  11.612  64.414  1.00  0.00    -0.304 OA 
HETATM    6  N   UNL     1     -10.489  10.345  66.079  1.00  0.00    -0.186 N  
HETATM    7  C   UNL     1      -9.634   9.668  65.216  1.00  0.00    -0.277 C  
HETATM    8  C   UNL     1      -8.912   8.768  65.891  1.00  0.00    -0.195 C  
HETATM    9  N   UNL     1      -9.282   8.795  67.216  1.00  0.00    -0.137 N  
HETATM   10  C   UNL     1     -10.310   9.771  67.401  1.00  0.00    -0.240 C  
HETATM   11  C   UNL     1      -8.731   7.918  68.225  1.00  0.00    -0.130 C  
HETATM   12  S   UNL     1     -11.112  10.103  68.820  1.00  0.00    -0.167 S  
ENDBRANCH   3   4
ENDBRANCH   2   3
TORSDOF 2
ENDMDL
MODEL      147
REMARK 921   NORMALIZED FREE ENERGY PREDICTED BY IDOCK:   -2.41 KCAL/MOL
REMARK 922        TOTAL FREE ENERGY PREDICTED BY IDOCK:   -2.78 KCAL/MOL
REMARK 923 INTER-LIGAND FREE ENERGY PREDICTED BY IDOCK:   -2.62 KCAL/MOL
REMARK 924 INTRA-LIGAND FREE ENERGY PREDICTED BY IDOCK:   -0.16 KCAL/MOL
REMARK 927      BINDING AFFINITY PREDICTED BY RF-SCORE:    0.00 PKD
ROOT
HETATM    1  C   UNL     1      -9.567   7.423  73.665  1.00  0.00    -0.337 C  
HETATM    2  C   UNL     1     -10.223   6.165  73.114  1.00  0.00    -0.199 C  
ENDROOT
BRANCH   2   3
HETATM    3  O   UNL     1     -10.818   6.464  71.845  1.00  0.00    -0.225 OA 
BRANCH   3   4
HETATM    4  C   UNL     1     -10.118   6.035  70.762  1.00  0.00    -0.197 C  
HETATM    5  O   UNL     1      -9.566   4.937  70.705  1.00  0.00    -0.160 OA 
HETATM    6  N   UNL     1     -10.207   6.915  69.680  1.00  0.00    -0.188 N  
HETATM    7  C   UNL     1      -9.950   6.467  68.388  1.00  0.00    -0.141 C  
HETATM    8  C   UNL     1     -10.181   7.443  67.505  1.00  0.00    -0.224 C  
HETATM    9  N   UNL     1     -10.568   8.580  68.179  1.00  0.00    -0.170 N  
HETATM   10  C   UNL     1     -10.582   8.315  69.585  1.00  0.00    -0.222 C  
HETATM   11  C   UNL     1     -10.855   9.842  67.534  1.00  0.00    -0.220 C  
HETATM   12  S   UNL     1     -10.918   9.409  70.792  1.00  0.00    -0.333 S  
ENDBRANCH   3   4
ENDBRANCH   2   3
TORSDOF 2
ENDMDL
MODEL      148
REMARK 921   NORMALIZED FREE ENERGY PREDICTED BY IDOCK:   -2.38 KCAL/MOL
REMARK 922        TOTAL FREE ENERGY PREDICTED BY IDOCK:   -2.75 KCAL/MOL
REMARK 923 INTER-LIGAND FREE ENERGY PREDICTED BY IDOCK:   -2.58 KCAL/MOL
REMARK 924 INTRA-LIGAND FREE ENERGY PREDICTED BY IDOCK:   -0.18 KCAL/MOL
REMARK 927      BINDING AFFINITY PREDICTED BY RF-SCORE:    0.00 PKD
ROOT
HETATM    1  C   UNL     1      -5.919  11.542  68.163  1.00  0.00    -0.045 C  
HETATM    2  C   UNL     1      -6.833  10.984  69.244  1.00  0.00    -0.110 C  
ENDROOT
BRANCH   2   3
HETATM    3  O   UNL     1      -7.840  10.168  68.631  1.00  0.00    -0.090 OA 
BRANCH   3   4
HETATM    4  C   UNL     1      -9.039  10.151  69.271  1.00  0.00    -0.198 C  
HETATM    5  O   UNL     1      -9.206   9.646  70.380  1.00  0.00    -0.250 OA 
HETATM    6  N   UNL     1     -10.021  10.880  68.595  1.00  0.00    -0.182 N  
HETATM    7  C   UNL     1     -11.142  11.345  69.275  1.00  0.00    -0.254 C  
HETATM    8  C   UNL     1     -11.899  12.090  68.464  1.00  0.00    -0.311 C  
HETATM    9  N   UNL     1     -11.327  12.121  67.212  1.00  0.00    -0.311 N  
HETATM   10  C   UNL     1     -10.127  11.342  67.222  1.00  0.00    -0.186 C  
HETATM   11  C   UNL     1     -11.906  12.801  66.076  1.00  0.00    -0.439 C  
HETATM   12  S   UNL     1      -9.139  11.034  65.919  1.00  0.00    -0.200 S  
ENDBRANCH   3   4
ENDBRANCH   2   3
TORSDOF 2
ENDMDL
MODEL      149
REMARK 921   NORMALIZED FREE ENERGY PREDICTED BY IDOCK:   -2.38 KCAL/MOL
REMARK 922        TOTAL FREE ENERGY PREDICTED BY IDOCK:   -2.75 KCAL/MOL
REMARK 923 INTER-LIGAND FREE ENERGY PREDICTED BY IDOCK:   -2.58 KCAL/MOL
REMARK 924 INTRA-LIGAND FREE ENERGY PREDICTED BY IDOCK:   -0.17 KCAL/MOL
REMARK 927      BINDING AFFINITY PREDICTED BY RF-SCORE:    0.00 PKD
ROOT
HETATM    1  C   UNL     1      -7.252   8.974  71.115  1.00  0.00    -0.111 C  
HETATM    2  C   UNL     1      -8.580   8.472  71.665  1.00  0.00    -0.187 C  
ENDROOT
BRANCH   2   3
HETATM    3  O   UNL     1      -9.455   8.169  70.571  1.00  0.00    -0.161 OA 
BRANCH   3   4
HETATM    4  C   UNL     1     -10.616   8.877  70.546  1.00  0.00    -0.220 C  
HETATM    5  O   UNL     1     -11.383   8.951  71.504  1.00  0.00    -0.275 OA 
HETATM    6  N   UNL     1     -10.773   9.612  69.367  1.00  0.00    -0.223 N  
HETATM    7  C   UNL     1     -11.631  10.706  69.332  1.00  0.00    -0.280 C  
HETATM    8  C   UNL     1     -11.559  11.313  68.144  1.00  0.00    -0.289 C  
HETATM    9  N   UNL     1     -10.676  10.628  67.339  1.00  0.00    -0.256 N  
HETATM   10  C   UNL     1     -10.152   9.508  68.059  1.00  0.00    -0.188 C  
HETATM   11  C   UNL     1     -10.390  10.985  65.968  1.00  0.00    -0.254 C  
HETATM   12  S   UNL     1      -9.106   8.357  67.467  1.00  0.00    -0.134 S  
ENDBRANCH   3   4
ENDBRANCH   2   3
TORSDOF 2
ENDMDL
MODEL      150
REMARK 921   NORMALIZED FREE ENERGY PREDICTED BY IDOCK:   -2.37 KCAL/MOL
REMARK 922        TOTAL FREE ENERGY PREDICTED BY IDOCK:   -2.74 KCAL/MOL
REMARK 923 INTER-LIGAND FREE ENERGY PREDICTED BY IDOCK:   -2.61 KCAL/MOL
REMARK 924 INTRA-LIGAND FREE ENERGY PREDICTED BY IDOCK:   -0.13 KCAL/MOL
REMARK 927      BINDING AFFINITY PREDICTED BY RF-SCORE:    0.00 PKD
ROOT
HETATM    1  C   UNL     1     -10.909   9.604  70.229  1.00  0.00    -0.339 C  
HETATM    2  C   UNL     1      -9.968   8.421  70.399  1.00  0.00    -0.185 C  
ENDROOT
BRANCH   2   3
HETATM    3  O   UNL     1     -10.712   7.296  70.881  1.00  0.00    -0.229 OA 
BRANCH   3   4
HETATM    4  C   UNL     1     -10.717   6.211  70.061  1.00  0.00    -0.305 C  
HETATM    5  O   UNL     1     -11.038   6.262  68.875  1.00  0.00    -0.336 OA 
HETATM    6  N   UNL     1     -10.193   5.070  70.675  1.00  0.00    -0.245 N  
HETATM    7  C   UNL     1      -9.710   4.018  69.904  1.00  0.00    -0.193 C  
HETATM    8  C   UNL     1      -9.176   3.076  70.688  1.00  0.00    -0.138 C  
HETATM    9  N   UNL     1      -9.312   3.454  72.004  1.00  0.00    -0.115 N  
HETATM   10  C   UNL     1      -9.980   4.717  72.068  1.00  0.00    -0.186 C  
HETATM   11  C   UNL     1      -8.882   2.647  73.124  1.00  0.00    -0.078 C  
HETATM   12  S   UNL     1     -10.424   5.531  73.449  1.00  0.00    -0.257 S  
ENDBRANCH   3   4
ENDBRANCH   2   3
TORSDOF 2
ENDMDL
MODEL      151
REMARK 921   NORMALIZED FREE ENERGY PREDICTED BY IDOCK:   -2.37 KCAL/MOL
REMARK 922        TOTAL FREE ENERGY PREDICTED BY IDOCK:   -2.74 KCAL/MOL
REMARK 923 INTER-LIGAND FREE ENERGY PREDICTED BY IDOCK:   -2.59 KCAL/MOL
REMARK 924 INTRA-LIGAND FREE ENERGY PREDICTED BY IDOCK:   -0.15 KCAL/MOL
REMARK 927      BINDING AFFINITY PREDICTED BY RF-SCORE:    0.00 PKD
ROOT
HETATM    1  C   UNL     1      -6.714  11.249  68.913  1.00  0.00    -0.081 C  
HETATM    2  C   UNL     1      -8.064  11.516  68.265  1.00  0.00    -0.148 C  
ENDROOT
BRANCH   2   3
HETATM    3  O   UNL     1      -7.857  11.981  66.925  1.00  0.00    -0.154 OA 
BRANCH   3   4
HETATM    4  C   UNL     1      -8.560  11.320  65.968  1.00  0.00    -0.130 C  
HETATM    5  O   UNL     1      -8.227  10.223  65.522  1.00  0.00    -0.146 OA 
HETATM    6  N   UNL     1      -9.763  11.955  65.647  1.00  0.00    -0.233 N  
HETATM    7  C   UNL     1     -10.796  11.241  65.050  1.00  0.00    -0.216 C  
HETATM    8  C   UNL     1     -11.877  12.015  64.916  1.00  0.00    -0.238 C  
HETATM    9  N   UNL     1     -11.592  13.275  65.390  1.00  0.00    -0.312 N  
HETATM   10  C   UNL     1     -10.239  13.311  65.854  1.00  0.00    -0.293 C  
HETATM   11  C   UNL     1     -12.524  14.379  65.358  1.00  0.00    -0.350 C  
HETATM   12  S   UNL     1      -9.434  14.641  66.447  1.00  0.00    -0.290 S  
ENDBRANCH   3   4
ENDBRANCH   2   3
TORSDOF 2
ENDMDL
MODEL      152
REMARK 921   NORMALIZED FREE ENERGY PREDICTED BY IDOCK:   -2.36 KCAL/MOL
REMARK 922        TOTAL FREE ENERGY PREDICTED BY IDOCK:   -2.73 KCAL/MOL
REMARK 923 INTER-LIGAND FREE ENERGY PREDICTED BY IDOCK:   -2.55 KCAL/MOL
REMARK 924 INTRA-LIGAND FREE ENERGY PREDICTED BY IDOCK:   -0.17 KCAL/MOL
REMARK 927      BINDING AFFINITY PREDICTED BY RF-SCORE:    0.00 PKD
ROOT
HETATM    1  C   UNL     1      -8.506   9.210  66.756  1.00  0.00    -0.125 C  
HETATM    2  C   UNL     1      -8.240   9.323  68.250  1.00  0.00    -0.115 C  
ENDROOT
BRANCH   2   3
HETATM    3  O   UNL     1      -8.902  10.490  68.756  1.00  0.00    -0.141 OA 
BRANCH   3   4
HETATM    4  C   UNL     1      -8.311  11.673  68.440  1.00  0.00    -0.157 C  
HETATM    5  O   UNL     1      -7.111  11.891  68.591  1.00  0.00    -0.089 OA 
HETATM    6  N   UNL     1      -9.188  12.559  67.806  1.00  0.00    -0.190 N  
HETATM    7  C   UNL     1      -8.691  13.600  67.029  1.00  0.00    -0.192 C  
HETATM    8  C   UNL     1      -9.695  14.262  66.446  1.00  0.00    -0.299 C  
HETATM    9  N   UNL     1     -10.891  13.706  66.838  1.00  0.00    -0.282 N  
HETATM   10  C   UNL     1     -10.636  12.619  67.733  1.00  0.00    -0.220 C  
HETATM   11  C   UNL     1     -12.185  14.204  66.430  1.00  0.00    -0.446 C  
HETATM   12  S   UNL     1     -11.778  11.696  68.515  1.00  0.00    -0.298 S  
ENDBRANCH   3   4
ENDBRANCH   2   3
TORSDOF 2
ENDMDL
MODEL      153
REMARK 921   NORMALIZED FREE ENERGY PREDICTED BY IDOCK:   -2.34 KCAL/MOL
REMARK 922        TOTAL FREE ENERGY PREDICTED BY IDOCK:   -2.70 KCAL/MOL
REMARK 923 INTER-LIGAND FREE ENERGY PREDICTED BY IDOCK:   -2.52 KCAL/MOL
REMARK 924 INTRA-LIGAND FREE ENERGY PREDICTED BY IDOCK:   -0.18 KCAL/MOL
REMARK 927      BINDING AFFINITY PREDICTED BY RF-SCORE:    0.00 PKD
ROOT
HETATM    1  C   UNL     1     -10.390   8.279  66.979  1.00  0.00    -0.393 C  
HETATM    2  C   UNL     1      -9.789   8.448  68.367  1.00  0.00    -0.176 C  
ENDROOT
BRANCH   2   3
HETATM    3  O   UNL     1     -10.152   9.736  68.880  1.00  0.00    -0.169 OA 
BRANCH   3   4
HETATM    4  C   UNL     1      -9.111  10.515  69.278  1.00  0.00    -0.145 C  
HETATM    5  O   UNL     1      -8.300  10.172  70.137  1.00  0.00    -0.125 OA 
HETATM    6  N   UNL     1      -8.988  11.680  68.516  1.00  0.00    -0.164 N  
HETATM    7  C   UNL     1      -7.775  12.360  68.464  1.00  0.00    -0.120 C  
HETATM    8  C   UNL     1      -7.855  13.385  67.611  1.00  0.00    -0.173 C  
HETATM    9  N   UNL     1      -9.128  13.442  67.091  1.00  0.00    -0.226 N  
HETATM   10  C   UNL     1      -9.915  12.386  67.650  1.00  0.00    -0.200 C  
HETATM   11  C   UNL     1      -9.577  14.458  66.165  1.00  0.00    -0.283 C  
HETATM   12  S   UNL     1     -11.530  12.104  67.369  1.00  0.00    -0.343 S  
ENDBRANCH   3   4
ENDBRANCH   2   3
TORSDOF 2
ENDMDL
MODEL      154
REMARK 921   NORMALIZED FREE ENERGY PREDICTED BY IDOCK:   -2.32 KCAL/MOL
REMARK 922        TOTAL FREE ENERGY PREDICTED BY IDOCK:   -2.68 KCAL/MOL
REMARK 923 INTER-LIGAND FREE ENERGY PREDICTED BY IDOCK:   -2.48 KCAL/MOL
REMARK 924 INTRA-LIGAND FREE ENERGY PREDICTED BY IDOCK:   -0.20 KCAL/MOL
REMARK 927      BINDING AFFINITY PREDICTED BY RF-SCORE:    0.00 PKD
ROOT
HETATM    1  C   UNL     1      -8.379   3.933  69.635  1.00  0.00    -0.078 C  
HETATM    2  C   UNL     1      -9.661   4.550  69.094  1.00  0.00    -0.180 C  
ENDROOT
BRANCH   2   3
HETATM    3  O   UNL     1      -9.642   5.962  69.341  1.00  0.00    -0.133 OA 
BRANCH   3   4
HETATM    4  C   UNL     1     -10.677   6.433  70.087  1.00  0.00    -0.271 C  
HETATM    5  O   UNL     1     -11.852   6.361  69.733  1.00  0.00    -0.357 OA 
HETATM    6  N   UNL     1     -10.271   6.882  71.347  1.00  0.00    -0.197 N  
HETATM    7  C   UNL     1     -11.190   6.977  72.387  1.00  0.00    -0.268 C  
HETATM    8  C   UNL     1     -10.575   7.337  73.517  1.00  0.00    -0.362 C  
HETATM    9  N   UNL     1      -9.235   7.523  73.262  1.00  0.00    -0.181 N  
HETATM   10  C   UNL     1      -8.977   7.269  71.878  1.00  0.00    -0.126 C  
HETATM   11  C   UNL     1      -8.278   7.960  74.254  1.00  0.00    -0.251 C  
HETATM   12  S   UNL     1      -7.516   7.436  71.100  1.00  0.00    -0.078 S  
ENDBRANCH   3   4
ENDBRANCH   2   3
TORSDOF 2
ENDMDL
MODEL      155
REMARK 921   NORMALIZED FREE ENERGY PREDICTED BY IDOCK:   -2.28 KCAL/MOL
REMARK 922        TOTAL FREE ENERGY PREDICTED BY IDOCK:   -2.64 KCAL/MOL
REMARK 923 INTER-LIGAND FREE ENERGY PREDICTED BY IDOCK:   -2.46 KCAL/MOL
REMARK 924 INTRA-LIGAND FREE ENERGY PREDICTED BY IDOCK:   -0.17 KCAL/MOL
REMARK 927      BINDING AFFINITY PREDICTED BY RF-SCORE:    0.00 PKD
ROOT
HETATM    1  C   UNL     1      -7.617   6.191  68.489  1.00  0.00    -0.092 C  
HETATM    2  C   UNL     1      -8.570   7.372  68.383  1.00  0.00    -0.124 C  
ENDROOT
BRANCH   2   3
HETATM    3  O   UNL     1      -8.663   8.014  69.661  1.00  0.00    -0.131 OA 
BRANCH   3   4
HETATM    4  C   UNL     1      -9.914   8.408  70.022  1.00  0.00    -0.188 C  
HETATM    5  O   UNL     1     -10.492   9.369  69.517  1.00  0.00    -0.202 OA 
HETATM    6  N   UNL     1     -10.516   7.528  70.925  1.00  0.00    -0.212 N  
HETATM    7  C   UNL     1     -11.900   7.503  71.064  1.00  0.00    -0.293 C  
HETATM    8  C   UNL     1     -12.263   6.532  71.907  1.00  0.00    -0.324 C  
HETATM    9  N   UNL     1     -11.136   5.898  72.379  1.00  0.00    -0.265 N  
HETATM   10  C   UNL     1      -9.976   6.506  71.805  1.00  0.00    -0.176 C  
HETATM   11  C   UNL     1     -11.160   4.824  73.347  1.00  0.00    -0.344 C  
HETATM   12  S   UNL     1      -8.392   6.119  72.136  1.00  0.00    -0.109 S  
ENDBRANCH   3   4
ENDBRANCH   2   3
TORSDOF 2
ENDMDL
MODEL      156
REMARK 921   NORMALIZED FREE ENERGY PREDICTED BY IDOCK:   -2.27 KCAL/MOL
REMARK 922        TOTAL FREE ENERGY PREDICTED BY IDOCK:   -2.62 KCAL/MOL
REMARK 923 INTER-LIGAND FREE ENERGY PREDICTED BY IDOCK:   -2.51 KCAL/MOL
REMARK 924 INTRA-LIGAND FREE ENERGY PREDICTED BY IDOCK:   -0.12 KCAL/MOL
REMARK 927      BINDING AFFINITY PREDICTED BY RF-SCORE:    0.00 PKD
ROOT
HETATM    1  C   UNL     1     -10.105  11.407  68.775  1.00  0.00    -0.199 C  
HETATM    2  C   UNL     1      -9.885  11.835  67.331  1.00  0.00    -0.178 C  
ENDROOT
BRANCH   2   3
HETATM    3  O   UNL     1     -10.780  11.102  66.485  1.00  0.00    -0.260 OA 
BRANCH   3   4
HETATM    4  C   UNL     1     -10.647  11.346  65.153  1.00  0.00    -0.293 C  
HETATM    5  O   UNL     1     -11.203  12.281  64.579  1.00  0.00    -0.302 OA 
HETATM    6  N   UNL     1      -9.711  10.506  64.543  1.00  0.00    -0.287 N  
HETATM    7  C   UNL     1      -9.120  10.873  63.338  1.00  0.00    -0.224 C  
HETATM    8  C   UNL     1      -8.197   9.975  62.983  1.00  0.00    -0.156 C  
HETATM    9  N   UNL     1      -8.163   8.967  63.920  1.00  0.00    -0.167 N  
HETATM   10  C   UNL     1      -9.131   9.235  64.939  1.00  0.00    -0.170 C  
HETATM   11  C   UNL     1      -7.307   7.806  63.826  1.00  0.00    -0.096 C  
HETATM   12  S   UNL     1      -9.495   8.260  66.236  1.00  0.00    -0.175 S  
ENDBRANCH   3   4
ENDBRANCH   2   3
TORSDOF 2
ENDMDL
MODEL      157
REMARK 921   NORMALIZED FREE ENERGY PREDICTED BY IDOCK:   -2.25 KCAL/MOL
REMARK 922        TOTAL FREE ENERGY PREDICTED BY IDOCK:   -2.60 KCAL/MOL
REMARK 923 INTER-LIGAND FREE ENERGY PREDICTED BY IDOCK:   -2.47 KCAL/MOL
REMARK 924 INTRA-LIGAND FREE ENERGY PREDICTED BY IDOCK:   -0.13 KCAL/MOL
REMARK 927      BINDING AFFINITY PREDICTED BY RF-SCORE:    0.00 PKD
ROOT
HETATM    1  C   UNL     1     -12.994  10.287  70.976  1.00  0.00    -0.488 C  
HETATM    2  C   UNL     1     -11.832  10.924  70.227  1.00  0.00    -0.361 C  
ENDROOT
BRANCH   2   3
HETATM    3  O   UNL     1     -11.245   9.949  69.357  1.00  0.00    -0.221 OA 
BRANCH   3   4
HETATM    4  C   UNL     1     -10.041  10.296  68.828  1.00  0.00    -0.187 C  
HETATM    5  O   UNL     1      -9.920  10.974  67.810  1.00  0.00    -0.169 OA 
HETATM    6  N   UNL     1      -8.967   9.913  69.637  1.00  0.00    -0.205 N  
HETATM    7  C   UNL     1      -7.733  10.542  69.509  1.00  0.00    -0.136 C  
HETATM    8  C   UNL     1      -6.883  10.088  70.435  1.00  0.00    -0.136 C  
HETATM    9  N   UNL     1      -7.511   9.122  71.189  1.00  0.00    -0.097 N  
HETATM   10  C   UNL     1      -8.848   8.944  70.712  1.00  0.00    -0.208 C  
HETATM   11  C   UNL     1      -6.868   8.385  72.254  1.00  0.00    -0.089 C  
HETATM   12  S   UNL     1      -9.956   7.836  71.270  1.00  0.00    -0.175 S  
ENDBRANCH   3   4
ENDBRANCH   2   3
TORSDOF 2
ENDMDL
MODEL      158
REMARK 921   NORMALIZED FREE ENERGY PREDICTED BY IDOCK:   -2.23 KCAL/MOL
REMARK 922        TOTAL FREE ENERGY PREDICTED BY IDOCK:   -2.59 KCAL/MOL
REMARK 923 INTER-LIGAND FREE ENERGY PREDICTED BY IDOCK:   -2.43 KCAL/MOL
REMARK 924 INTRA-LIGAND FREE ENERGY PREDICTED BY IDOCK:   -0.16 KCAL/MOL
REMARK 927      BINDING AFFINITY PREDICTED BY RF-SCORE:    0.00 PKD
ROOT
HETATM    1  C   UNL     1      -9.418  10.425  64.288  1.00  0.00    -0.349 C  
HETATM    2  C   UNL     1     -10.422  11.314  65.008  1.00  0.00    -0.298 C  
ENDROOT
BRANCH   2   3
HETATM    3  O   UNL     1      -9.776  11.943  66.122  1.00  0.00    -0.221 OA 
BRANCH   3   4
HETATM    4  C   UNL     1     -10.429  11.826  67.310  1.00  0.00    -0.214 C  
HETATM    5  O   UNL     1     -11.463  12.435  67.575  1.00  0.00    -0.302 OA 
HETATM    6  N   UNL     1      -9.872  10.845  68.136  1.00  0.00    -0.170 N  
HETATM    7  C   UNL     1     -10.626  10.278  69.157  1.00  0.00    -0.230 C  
HETATM    8  C   UNL     1      -9.934   9.305  69.758  1.00  0.00    -0.199 C  
HETATM    9  N   UNL     1      -8.688   9.213  69.180  1.00  0.00    -0.135 N  
HETATM   10  C   UNL     1      -8.574  10.193  68.144  1.00  0.00    -0.118 C  
HETATM   11  C   UNL     1      -7.662   8.293  69.615  1.00  0.00    -0.100 C  
HETATM   12  S   UNL     1      -7.226  10.499  67.219  1.00  0.00    -0.092 S  
ENDBRANCH   3   4
ENDBRANCH   2   3
TORSDOF 2
ENDMDL
MODEL      159
REMARK 921   NORMALIZED FREE ENERGY PREDICTED BY IDOCK:   -2.23 KCAL/MOL
REMARK 922        TOTAL FREE ENERGY PREDICTED BY IDOCK:   -2.58 KCAL/MOL
REMARK 923 INTER-LIGAND FREE ENERGY PREDICTED BY IDOCK:   -2.41 KCAL/MOL
REMARK 924 INTRA-LIGAND FREE ENERGY PREDICTED BY IDOCK:   -0.18 KCAL/MOL
REMARK 927      BINDING AFFINITY PREDICTED BY RF-SCORE:    0.00 PKD
ROOT
HETATM    1  C   UNL     1     -12.140  11.753  69.658  1.00  0.00    -0.323 C  
HETATM    2  C   UNL     1     -11.677  10.422  70.233  1.00  0.00    -0.321 C  
ENDROOT
BRANCH   2   3
HETATM    3  O   UNL     1     -10.279  10.257  69.964  1.00  0.00    -0.246 OA 
BRANCH   3   4
HETATM    4  C   UNL     1      -9.926   9.046  69.455  1.00  0.00    -0.191 C  
HETATM    5  O   UNL     1      -9.933   8.008  70.114  1.00  0.00    -0.188 OA 
HETATM    6  N   UNL     1      -9.687   9.090  68.079  1.00  0.00    -0.151 N  
HETATM    7  C   UNL     1      -9.754   7.927  67.318  1.00  0.00    -0.176 C  
HETATM    8  C   UNL     1      -9.583   8.210  66.023  1.00  0.00    -0.042 C  
HETATM    9  N   UNL     1      -9.368   9.562  65.881  1.00  0.00    -0.206 N  
HETATM   10  C   UNL     1      -9.398  10.184  67.169  1.00  0.00    -0.153 C  
HETATM   11  C   UNL     1      -9.101  10.208  64.615  1.00  0.00    -0.227 C  
HETATM   12  S   UNL     1      -9.118  11.791  67.496  1.00  0.00    -0.181 S  
ENDBRANCH   3   4
ENDBRANCH   2   3
TORSDOF 2
ENDMDL
MODEL      160
REMARK 921   NORMALIZED FREE ENERGY PREDICTED BY IDOCK:   -2.22 KCAL/MOL
REMARK 922        TOTAL FREE ENERGY PREDICTED BY IDOCK:   -2.57 KCAL/MOL
REMARK 923 INTER-LIGAND FREE ENERGY PREDICTED BY IDOCK:   -2.38 KCAL/MOL
REMARK 924 INTRA-LIGAND FREE ENERGY PREDICTED BY IDOCK:   -0.20 KCAL/MOL
REMARK 927      BINDING AFFINITY PREDICTED BY RF-SCORE:    0.00 PKD
ROOT
HETATM    1  C   UNL     1     -10.908  11.527  64.438  1.00  0.00    -0.405 C  
HETATM    2  C   UNL     1     -10.554  12.309  65.694  1.00  0.00    -0.260 C  
ENDROOT
BRANCH   2   3
HETATM    3  O   UNL     1      -9.475  11.648  66.368  1.00  0.00    -0.205 OA 
BRANCH   3   4
HETATM    4  C   UNL     1      -9.790  11.116  67.579  1.00  0.00    -0.177 C  
HETATM    5  O   UNL     1     -10.086  11.796  68.560  1.00  0.00    -0.206 OA 
HETATM    6  N   UNL     1      -9.869   9.721  67.550  1.00  0.00    -0.160 N  
HETATM    7  C   UNL     1     -10.588   9.038  68.526  1.00  0.00    -0.155 C  
HETATM    8  C   UNL     1     -10.608   7.730  68.255  1.00  0.00    -0.117 C  
HETATM    9  N   UNL     1      -9.880   7.493  67.111  1.00  0.00    -0.183 N  
HETATM   10  C   UNL     1      -9.357   8.730  66.619  1.00  0.00    -0.189 C  
HETATM   11  C   UNL     1      -9.658   6.178  66.554  1.00  0.00    -0.151 C  
HETATM   12  S   UNL     1      -8.361   8.926  65.302  1.00  0.00    -0.169 S  
ENDBRANCH   3   4
ENDBRANCH   2   3
TORSDOF 2
ENDMDL
MODEL      161
REMARK 921   NORMALIZED FREE ENERGY PREDICTED BY IDOCK:   -2.22 KCAL/MOL
REMARK 922        TOTAL FREE ENERGY PREDICTED BY IDOCK:   -2.57 KCAL/MOL
REMARK 923 INTER-LIGAND FREE ENERGY PREDICTED BY IDOCK:   -2.44 KCAL/MOL
REMARK 924 INTRA-LIGAND FREE ENERGY PREDICTED BY IDOCK:   -0.13 KCAL/MOL
REMARK 927      BINDING AFFINITY PREDICTED BY RF-SCORE:    0.00 PKD
ROOT
HETATM    1  C   UNL     1      -9.679   4.024  65.475  1.00  0.00    -0.194 C  
HETATM    2  C   UNL     1     -10.563   4.979  66.265  1.00  0.00    -0.276 C  
ENDROOT
BRANCH   2   3
HETATM    3  O   UNL     1      -9.804   5.533  67.347  1.00  0.00    -0.130 OA 
BRANCH   3   4
HETATM    4  C   UNL     1      -9.535   6.863  67.244  1.00  0.00    -0.137 C  
HETATM    5  O   UNL     1      -8.948   7.361  66.285  1.00  0.00    -0.156 OA 
HETATM    6  N   UNL     1     -10.113   7.609  68.275  1.00  0.00    -0.180 N  
HETATM    7  C   UNL     1     -10.331   8.974  68.115  1.00  0.00    -0.214 C  
HETATM    8  C   UNL     1     -10.971   9.468  69.178  1.00  0.00    -0.125 C  
HETATM    9  N   UNL     1     -11.174   8.459  70.093  1.00  0.00    -0.193 N  
HETATM   10  C   UNL     1     -10.624   7.241  69.583  1.00  0.00    -0.235 C  
HETATM   11  C   UNL     1     -11.801   8.652  71.381  1.00  0.00    -0.297 C  
HETATM   12  S   UNL     1     -10.571   5.777  70.370  1.00  0.00    -0.299 S  
ENDBRANCH   3   4
ENDBRANCH   2   3
TORSDOF 2
ENDMDL
MODEL      162
REMARK 921   NORMALIZED FREE ENERGY PREDICTED BY IDOCK:   -2.21 KCAL/MOL
REMARK 922        TOTAL FREE ENERGY PREDICTED BY IDOCK:   -2.57 KCAL/MOL
REMARK 923 INTER-LIGAND FREE ENERGY PREDICTED BY IDOCK:   -2.46 KCAL/MOL
REMARK 924 INTRA-LIGAND FREE ENERGY PREDICTED BY IDOCK:   -0.11 KCAL/MOL
REMARK 927      BINDING AFFINITY PREDICTED BY RF-SCORE:    0.00 PKD
ROOT
HETATM    1  C   UNL     1     -11.742  10.345  70.343  1.00  0.00    -0.419 C  
HETATM    2  C   UNL     1     -11.666   9.026  71.099  1.00  0.00    -0.302 C  
ENDROOT
BRANCH   2   3
HETATM    3  O   UNL     1     -10.574   8.254  70.585  1.00  0.00    -0.207 OA 
BRANCH   3   4
HETATM    4  C   UNL     1     -10.928   7.120  69.922  1.00  0.00    -0.253 C  
HETATM    5  O   UNL     1     -12.008   6.553  70.083  1.00  0.00    -0.383 OA 
HETATM    6  N   UNL     1      -9.995   6.751  68.949  1.00  0.00    -0.151 N  
HETATM    7  C   UNL     1     -10.369   5.919  67.899  1.00  0.00    -0.211 C  
HETATM    8  C   UNL     1      -9.354   5.771  67.042  1.00  0.00    -0.119 C  
HETATM    9  N   UNL     1      -8.264   6.472  67.507  1.00  0.00    -0.120 N  
HETATM   10  C   UNL     1      -8.602   7.107  68.743  1.00  0.00    -0.125 C  
HETATM   11  C   UNL     1      -6.978   6.494  66.848  1.00  0.00    -0.067 C  
HETATM   12  S   UNL     1      -7.582   8.002  69.705  1.00  0.00    -0.099 S  
ENDBRANCH   3   4
ENDBRANCH   2   3
TORSDOF 2
ENDMDL
MODEL      163
REMARK 921   NORMALIZED FREE ENERGY PREDICTED BY IDOCK:   -2.21 KCAL/MOL
REMARK 922        TOTAL FREE ENERGY PREDICTED BY IDOCK:   -2.56 KCAL/MOL
REMARK 923 INTER-LIGAND FREE ENERGY PREDICTED BY IDOCK:   -2.45 KCAL/MOL
REMARK 924 INTRA-LIGAND FREE ENERGY PREDICTED BY IDOCK:   -0.11 KCAL/MOL
REMARK 927      BINDING AFFINITY PREDICTED BY RF-SCORE:    0.00 PKD
ROOT
HETATM    1  C   UNL     1      -7.303   5.616  66.676  1.00  0.00    -0.083 C  
HETATM    2  C   UNL     1      -8.593   6.009  65.970  1.00  0.00    -0.147 C  
ENDROOT
BRANCH   2   3
HETATM    3  O   UNL     1      -8.799   7.419  66.121  1.00  0.00    -0.156 OA 
BRANCH   3   4
HETATM    4  C   UNL     1      -9.950   7.771  66.754  1.00  0.00    -0.261 C  
HETATM    5  O   UNL     1     -10.598   6.998  67.457  1.00  0.00    -0.222 OA 
HETATM    6  N   UNL     1     -10.240   9.132  66.626  1.00  0.00    -0.268 N  
HETATM    7  C   UNL     1     -11.089   9.757  67.533  1.00  0.00    -0.018 C  
HETATM    8  C   UNL     1     -11.153  11.067  67.281  1.00  0.00    -0.294 C  
HETATM    9  N   UNL     1     -10.376  11.354  66.181  1.00  0.00    -0.241 N  
HETATM   10  C   UNL     1      -9.778  10.149  65.697  1.00  0.00    -0.259 C  
HETATM   11  C   UNL     1     -10.251  12.674  65.604  1.00  0.00    -0.273 C  
HETATM   12  S   UNL     1      -8.817   9.997  64.348  1.00  0.00    -0.233 S  
ENDBRANCH   3   4
ENDBRANCH   2   3
TORSDOF 2
ENDMDL
MODEL      164
REMARK 921   NORMALIZED FREE ENERGY PREDICTED BY IDOCK:   -2.21 KCAL/MOL
REMARK 922        TOTAL FREE ENERGY PREDICTED BY IDOCK:   -2.56 KCAL/MOL
REMARK 923 INTER-LIGAND FREE ENERGY PREDICTED BY IDOCK:   -2.40 KCAL/MOL
REMARK 924 INTRA-LIGAND FREE ENERGY PREDICTED BY IDOCK:   -0.16 KCAL/MOL
REMARK 927      BINDING AFFINITY PREDICTED BY RF-SCORE:    0.00 PKD
ROOT
HETATM    1  C   UNL     1      -9.495   9.142  68.922  1.00  0.00    -0.151 C  
HETATM    2  C   UNL     1      -9.685  10.651  68.957  1.00  0.00    -0.202 C  
ENDROOT
BRANCH   2   3
HETATM    3  O   UNL     1      -8.829  11.254  67.978  1.00  0.00    -0.137 OA 
BRANCH   3   4
HETATM    4  C   UNL     1      -9.470  11.871  66.950  1.00  0.00    -0.199 C  
HETATM    5  O   UNL     1     -10.099  11.264  66.084  1.00  0.00    -0.220 OA 
HETATM    6  N   UNL     1      -9.448  13.264  67.060  1.00  0.00    -0.235 N  
HETATM    7  C   UNL     1     -10.390  14.036  66.388  1.00  0.00    -0.289 C  
HETATM    8  C   UNL     1     -10.242  15.326  66.705  1.00  0.00    -0.271 C  
HETATM    9  N   UNL     1      -9.181  15.460  67.572  1.00  0.00    -0.197 N  
HETATM   10  C   UNL     1      -8.610  14.172  67.823  1.00  0.00    -0.184 C  
HETATM   11  C   UNL     1      -8.713  16.728  68.084  1.00  0.00    -0.219 C  
HETATM   12  S   UNL     1      -7.268  13.853  68.752  1.00  0.00    -0.099 S  
ENDBRANCH   3   4
ENDBRANCH   2   3
TORSDOF 2
ENDMDL
MODEL      165
REMARK 921   NORMALIZED FREE ENERGY PREDICTED BY IDOCK:   -2.19 KCAL/MOL
REMARK 922        TOTAL FREE ENERGY PREDICTED BY IDOCK:   -2.53 KCAL/MOL
REMARK 923 INTER-LIGAND FREE ENERGY PREDICTED BY IDOCK:   -2.46 KCAL/MOL
REMARK 924 INTRA-LIGAND FREE ENERGY PREDICTED BY IDOCK:   -0.07 KCAL/MOL
REMARK 927      BINDING AFFINITY PREDICTED BY RF-SCORE:    0.00 PKD
ROOT
HETATM    1  C   UNL     1      -9.313  10.215  63.081  1.00  0.00    -0.333 C  
HETATM    2  C   UNL     1      -8.696  10.385  64.462  1.00  0.00    -0.194 C  
ENDROOT
BRANCH   2   3
HETATM    3  O   UNL     1      -9.573   9.814  65.441  1.00  0.00    -0.255 OA 
BRANCH   3   4
HETATM    4  C   UNL     1      -9.167   8.624  65.957  1.00  0.00    -0.216 C  
HETATM    5  O   UNL     1      -8.658   7.732  65.280  1.00  0.00    -0.130 OA 
HETATM    6  N   UNL     1      -9.267   8.579  67.351  1.00  0.00    -0.139 N  
HETATM    7  C   UNL     1      -8.514   7.664  68.079  1.00  0.00    -0.123 C  
HETATM    8  C   UNL     1      -8.694   7.856  69.390  1.00  0.00    -0.138 C  
HETATM    9  N   UNL     1      -9.594   8.881  69.577  1.00  0.00    -0.168 N  
HETATM   10  C   UNL     1     -10.020   9.375  68.304  1.00  0.00    -0.174 C  
HETATM   11  C   UNL     1     -10.053   9.325  70.874  1.00  0.00    -0.302 C  
HETATM   12  S   UNL     1     -11.153  10.563  68.035  1.00  0.00    -0.290 S  
ENDBRANCH   3   4
ENDBRANCH   2   3
TORSDOF 2
ENDMDL
MODEL      166
REMARK 921   NORMALIZED FREE ENERGY PREDICTED BY IDOCK:   -2.18 KCAL/MOL
REMARK 922        TOTAL FREE ENERGY PREDICTED BY IDOCK:   -2.53 KCAL/MOL
REMARK 923 INTER-LIGAND FREE ENERGY PREDICTED BY IDOCK:   -2.44 KCAL/MOL
REMARK 924 INTRA-LIGAND FREE ENERGY PREDICTED BY IDOCK:   -0.10 KCAL/MOL
REMARK 927      BINDING AFFINITY PREDICTED BY RF-SCORE:    0.00 PKD
ROOT
HETATM    1  C   UNL     1      -5.931   7.233  64.532  1.00  0.00    -0.037 C  
HETATM    2  C   UNL     1      -6.985   7.691  63.535  1.00  0.00    -0.060 C  
ENDROOT
BRANCH   2   3
HETATM    3  O   UNL     1      -7.974   8.468  64.224  1.00  0.00    -0.135 OA 
BRANCH   3   4
HETATM    4  C   UNL     1      -8.426   9.558  63.548  1.00  0.00    -0.197 C  
HETATM    5  O   UNL     1      -8.175   9.771  62.363  1.00  0.00    -0.122 OA 
HETATM    6  N   UNL     1      -9.309  10.333  64.306  1.00  0.00    -0.254 N  
HETATM    7  C   UNL     1     -10.197  11.201  63.678  1.00  0.00    -0.387 C  
HETATM    8  C   UNL     1     -11.004  11.769  64.578  1.00  0.00    -0.324 C  
HETATM    9  N   UNL     1     -10.663  11.323  65.836  1.00  0.00    -0.256 N  
HETATM   10  C   UNL     1      -9.563  10.414  65.733  1.00  0.00    -0.216 C  
HETATM   11  C   UNL     1     -11.305  11.770  67.052  1.00  0.00    -0.321 C  
HETATM   12  S   UNL     1      -8.768   9.680  66.997  1.00  0.00    -0.128 S  
ENDBRANCH   3   4
ENDBRANCH   2   3
TORSDOF 2
ENDMDL
MODEL      167
REMARK 921   NORMALIZED FREE ENERGY PREDICTED BY IDOCK:   -2.18 KCAL/MOL
REMARK 922        TOTAL FREE ENERGY PREDICTED BY IDOCK:   -2.53 KCAL/MOL
REMARK 923 INTER-LIGAND FREE ENERGY PREDICTED BY IDOCK:   -2.39 KCAL/MOL
REMARK 924 INTRA-LIGAND FREE ENERGY PREDICTED BY IDOCK:   -0.14 KCAL/MOL
REMARK 927      BINDING AFFINITY PREDICTED BY RF-SCORE:    0.00 PKD
ROOT
HETATM    1  C   UNL     1      -7.612  10.229  66.416  1.00  0.00    -0.117 C  
HETATM    2  C   UNL     1      -7.808   9.178  67.498  1.00  0.00    -0.100 C  
ENDROOT
BRANCH   2   3
HETATM    3  O   UNL     1      -8.962   9.518  68.278  1.00  0.00    -0.124 OA 
BRANCH   3   4
HETATM    4  C   UNL     1     -10.060   8.747  68.054  1.00  0.00    -0.196 C  
HETATM    5  O   UNL     1     -10.716   8.793  67.015  1.00  0.00    -0.262 OA 
HETATM    6  N   UNL     1     -10.277   7.811  69.069  1.00  0.00    -0.204 N  
HETATM    7  C   UNL     1     -11.045   6.677  68.825  1.00  0.00    -0.227 C  
HETATM    8  C   UNL     1     -11.047   5.880  69.897  1.00  0.00    -0.347 C  
HETATM    9  N   UNL     1     -10.308   6.468  70.899  1.00  0.00    -0.204 N  
HETATM   10  C   UNL     1      -9.804   7.725  70.439  1.00  0.00    -0.183 C  
HETATM   11  C   UNL     1     -10.136   5.897  72.216  1.00  0.00    -0.182 C  
HETATM   12  S   UNL     1      -8.918   8.818  71.328  1.00  0.00    -0.244 S  
ENDBRANCH   3   4
ENDBRANCH   2   3
TORSDOF 2
ENDMDL
MODEL      168
REMARK 921   NORMALIZED FREE ENERGY PREDICTED BY IDOCK:   -2.15 KCAL/MOL
REMARK 922        TOTAL FREE ENERGY PREDICTED BY IDOCK:   -2.50 KCAL/MOL
REMARK 923 INTER-LIGAND FREE ENERGY PREDICTED BY IDOCK:   -3.01 KCAL/MOL
REMARK 924 INTRA-LIGAND FREE ENERGY PREDICTED BY IDOCK:    0.51 KCAL/MOL
REMARK 927      BINDING AFFINITY PREDICTED BY RF-SCORE:    0.00 PKD
ROOT
HETATM    1  C   UNL     1      -8.590  17.443  66.822  1.00  0.00    -0.284 C  
HETATM    2  C   UNL     1     -10.056  17.705  67.134  1.00  0.00    -0.328 C  
ENDROOT
BRANCH   2   3
HETATM    3  O   UNL     1     -10.793  16.485  66.981  1.00  0.00    -0.245 OA 
BRANCH   3   4
HETATM    4  C   UNL     1     -10.177  15.373  67.463  1.00  0.00    -0.244 C  
HETATM    5  O   UNL     1      -9.412  15.388  68.426  1.00  0.00    -0.193 OA 
HETATM    6  N   UNL     1     -10.610  14.202  66.834  1.00  0.00    -0.279 N  
HETATM    7  C   UNL     1     -10.449  12.970  67.458  1.00  0.00    -0.227 C  
HETATM    8  C   UNL     1     -11.011  12.003  66.726  1.00  0.00    -0.285 C  
HETATM    9  N   UNL     1     -11.537  12.553  65.579  1.00  0.00    -0.367 N  
HETATM   10  C   UNL     1     -11.292  13.962  65.575  1.00  0.00    -0.308 C  
HETATM   11  C   UNL     1     -12.182  11.784  64.538  1.00  0.00    -0.016 C  
HETATM   12  S   UNL     1     -11.684  15.028  64.359  1.00  0.00    -0.232 S  
ENDBRANCH   3   4
ENDBRANCH   2   3
TORSDOF 2
ENDMDL
MODEL      169
REMARK 921   NORMALIZED FREE ENERGY PREDICTED BY IDOCK:   -2.15 KCAL/MOL
REMARK 922        TOTAL FREE ENERGY PREDICTED BY IDOCK:   -2.49 KCAL/MOL
REMARK 923 INTER-LIGAND FREE ENERGY PREDICTED BY IDOCK:   -2.38 KCAL/MOL
REMARK 924 INTRA-LIGAND FREE ENERGY PREDICTED BY IDOCK:   -0.11 KCAL/MOL
REMARK 927      BINDING AFFINITY PREDICTED BY RF-SCORE:    0.00 PKD
ROOT
HETATM    1  C   UNL     1     -10.886   6.533  67.090  1.00  0.00    -0.472 C  
HETATM    2  C   UNL     1     -11.026   6.356  68.595  1.00  0.00    -0.330 C  
ENDROOT
BRANCH   2   3
HETATM    3  O   UNL     1     -10.719   7.597  69.243  1.00  0.00    -0.221 OA 
BRANCH   3   4
HETATM    4  C   UNL     1      -9.903   7.498  70.326  1.00  0.00    -0.183 C  
HETATM    5  O   UNL     1      -9.987   6.593  71.155  1.00  0.00    -0.182 OA 
HETATM    6  N   UNL     1      -8.882   8.453  70.321  1.00  0.00    -0.138 N  
HETATM    7  C   UNL     1      -7.726   8.248  71.067  1.00  0.00    -0.090 C  
HETATM    8  C   UNL     1      -6.852   9.234  70.845  1.00  0.00    -0.103 C  
HETATM    9  N   UNL     1      -7.406  10.142  69.972  1.00  0.00    -0.160 N  
HETATM   10  C   UNL     1      -8.722   9.711  69.613  1.00  0.00    -0.197 C  
HETATM   11  C   UNL     1      -6.750  11.358  69.548  1.00  0.00    -0.119 C  
HETATM   12  S   UNL     1      -9.796  10.525  68.638  1.00  0.00    -0.187 S  
ENDBRANCH   3   4
ENDBRANCH   2   3
TORSDOF 2
ENDMDL
MODEL      170
REMARK 921   NORMALIZED FREE ENERGY PREDICTED BY IDOCK:   -2.14 KCAL/MOL
REMARK 922        TOTAL FREE ENERGY PREDICTED BY IDOCK:   -2.49 KCAL/MOL
REMARK 923 INTER-LIGAND FREE ENERGY PREDICTED BY IDOCK:   -2.37 KCAL/MOL
REMARK 924 INTRA-LIGAND FREE ENERGY PREDICTED BY IDOCK:   -0.11 KCAL/MOL
REMARK 927      BINDING AFFINITY PREDICTED BY RF-SCORE:    0.00 PKD
ROOT
HETATM    1  C   UNL     1      -7.457  11.173  69.167  1.00  0.00    -0.109 C  
HETATM    2  C   UNL     1      -7.958  10.041  70.051  1.00  0.00    -0.150 C  
ENDROOT
BRANCH   2   3
HETATM    3  O   UNL     1      -9.366   9.871  69.842  1.00  0.00    -0.220 OA 
BRANCH   3   4
HETATM    4  C   UNL     1      -9.711   8.823  69.047  1.00  0.00    -0.172 C  
HETATM    5  O   UNL     1      -9.459   8.775  67.845  1.00  0.00    -0.140 OA 
HETATM    6  N   UNL     1     -10.258   7.758  69.769  1.00  0.00    -0.206 N  
HETATM    7  C   UNL     1     -10.258   6.474  69.233  1.00  0.00    -0.187 C  
HETATM    8  C   UNL     1     -10.742   5.602  70.122  1.00  0.00    -0.305 C  
HETATM    9  N   UNL     1     -11.108   6.277  71.265  1.00  0.00    -0.278 N  
HETATM   10  C   UNL     1     -10.845   7.672  71.095  1.00  0.00    -0.235 C  
HETATM   11  C   UNL     1     -11.712   5.645  72.416  1.00  0.00    -0.179 C  
HETATM   12  S   UNL     1     -11.191   8.882  72.183  1.00  0.00    -0.193 S  
ENDBRANCH   3   4
ENDBRANCH   2   3
TORSDOF 2
ENDMDL
MODEL      171
REMARK 921   NORMALIZED FREE ENERGY PREDICTED BY IDOCK:   -2.14 KCAL/MOL
REMARK 922        TOTAL FREE ENERGY PREDICTED BY IDOCK:   -2.49 KCAL/MOL
REMARK 923 INTER-LIGAND FREE ENERGY PREDICTED BY IDOCK:   -2.34 KCAL/MOL
REMARK 924 INTRA-LIGAND FREE ENERGY PREDICTED BY IDOCK:   -0.15 KCAL/MOL
REMARK 927      BINDING AFFINITY PREDICTED BY RF-SCORE:    0.00 PKD
ROOT
HETATM    1  C   UNL     1      -5.447   9.685  69.748  1.00  0.00    -0.033 C  
HETATM    2  C   UNL     1      -6.728  10.498  69.638  1.00  0.00    -0.108 C  
ENDROOT
BRANCH   2   3
HETATM    3  O   UNL     1      -7.848   9.603  69.596  1.00  0.00    -0.099 OA 
BRANCH   3   4
HETATM    4  C   UNL     1      -9.063  10.188  69.775  1.00  0.00    -0.136 C  
HETATM    5  O   UNL     1      -9.456  11.146  69.112  1.00  0.00    -0.117 OA 
HETATM    6  N   UNL     1      -9.860   9.500  70.695  1.00  0.00    -0.274 N  
HETATM    7  C   UNL     1     -11.241   9.663  70.685  1.00  0.00    -0.320 C  
HETATM    8  C   UNL     1     -11.810   8.850  71.579  1.00  0.00    -0.332 C  
HETATM    9  N   UNL     1     -10.828   8.142  72.235  1.00  0.00    -0.294 N  
HETATM   10  C   UNL     1      -9.547   8.531  71.729  1.00  0.00    -0.267 C  
HETATM   11  C   UNL     1     -11.087   7.200  73.301  1.00  0.00    -0.212 C  
HETATM   12  S   UNL     1      -8.068   7.994  72.269  1.00  0.00    -0.150 S  
ENDBRANCH   3   4
ENDBRANCH   2   3
TORSDOF 2
ENDMDL
MODEL      172
REMARK 921   NORMALIZED FREE ENERGY PREDICTED BY IDOCK:   -2.14 KCAL/MOL
REMARK 922        TOTAL FREE ENERGY PREDICTED BY IDOCK:   -2.49 KCAL/MOL
REMARK 923 INTER-LIGAND FREE ENERGY PREDICTED BY IDOCK:   -2.35 KCAL/MOL
REMARK 924 INTRA-LIGAND FREE ENERGY PREDICTED BY IDOCK:   -0.14 KCAL/MOL
REMARK 927      BINDING AFFINITY PREDICTED BY RF-SCORE:    0.00 PKD
ROOT
HETATM    1  C   UNL     1     -10.287   6.748  74.054  1.00  0.00    -0.377 C  
HETATM    2  C   UNL     1     -10.598   6.326  72.625  1.00  0.00    -0.217 C  
ENDROOT
BRANCH   2   3
HETATM    3  O   UNL     1     -10.547   7.478  71.775  1.00  0.00    -0.205 OA 
BRANCH   3   4
HETATM    4  C   UNL     1     -10.662   7.221  70.444  1.00  0.00    -0.236 C  
HETATM    5  O   UNL     1     -11.545   6.511  69.967  1.00  0.00    -0.407 OA 
HETATM    6  N   UNL     1      -9.755   7.955  69.674  1.00  0.00    -0.172 N  
HETATM    7  C   UNL     1      -9.999   8.172  68.322  1.00  0.00    -0.186 C  
HETATM    8  C   UNL     1      -9.058   8.968  67.804  1.00  0.00    -0.134 C  
HETATM    9  N   UNL     1      -8.143   9.282  68.783  1.00  0.00    -0.103 N  
HETATM   10  C   UNL     1      -8.520   8.642  70.006  1.00  0.00    -0.130 C  
HETATM   11  C   UNL     1      -6.967  10.092  68.558  1.00  0.00    -0.069 C  
HETATM   12  S   UNL     1      -7.677   8.678  71.439  1.00  0.00    -0.112 S  
ENDBRANCH   3   4
ENDBRANCH   2   3
TORSDOF 2
ENDMDL
MODEL      173
REMARK 921   NORMALIZED FREE ENERGY PREDICTED BY IDOCK:   -2.14 KCAL/MOL
REMARK 922        TOTAL FREE ENERGY PREDICTED BY IDOCK:   -2.48 KCAL/MOL
REMARK 923 INTER-LIGAND FREE ENERGY PREDICTED BY IDOCK:   -2.36 KCAL/MOL
REMARK 924 INTRA-LIGAND FREE ENERGY PREDICTED BY IDOCK:   -0.12 KCAL/MOL
REMARK 927      BINDING AFFINITY PREDICTED BY RF-SCORE:    0.00 PKD
ROOT
HETATM    1  C   UNL     1      -6.749   8.400  62.959  1.00  0.00    -0.090 C  
HETATM    2  C   UNL     1      -8.159   8.458  63.529  1.00  0.00    -0.143 C  
ENDROOT
BRANCH   2   3
HETATM    3  O   UNL     1      -8.095   8.889  64.894  1.00  0.00    -0.127 OA 
BRANCH   3   4
HETATM    4  C   UNL     1      -8.917   8.224  65.750  1.00  0.00    -0.138 C  
HETATM    5  O   UNL     1      -8.878   7.006  65.915  1.00  0.00    -0.154 OA 
HETATM    6  N   UNL     1      -9.710   9.086  66.512  1.00  0.00    -0.222 N  
HETATM    7  C   UNL     1     -10.266   8.651  67.711  1.00  0.00    -0.225 C  
HETATM    8  C   UNL     1     -10.906   9.656  68.316  1.00  0.00    -0.182 C  
HETATM    9  N   UNL     1     -10.825  10.782  67.529  1.00  0.00    -0.267 N  
HETATM   10  C   UNL     1     -10.088  10.477  66.341  1.00  0.00    -0.228 C  
HETATM   11  C   UNL     1     -11.447  12.045  67.860  1.00  0.00    -0.330 C  
HETATM   12  S   UNL     1      -9.797  11.508  65.068  1.00  0.00    -0.252 S  
ENDBRANCH   3   4
ENDBRANCH   2   3
TORSDOF 2
ENDMDL
MODEL      174
REMARK 921   NORMALIZED FREE ENERGY PREDICTED BY IDOCK:   -2.14 KCAL/MOL
REMARK 922        TOTAL FREE ENERGY PREDICTED BY IDOCK:   -2.48 KCAL/MOL
REMARK 923 INTER-LIGAND FREE ENERGY PREDICTED BY IDOCK:   -2.37 KCAL/MOL
REMARK 924 INTRA-LIGAND FREE ENERGY PREDICTED BY IDOCK:   -0.11 KCAL/MOL
REMARK 927      BINDING AFFINITY PREDICTED BY RF-SCORE:    0.00 PKD
ROOT
HETATM    1  C   UNL     1      -9.750   7.720  66.443  1.00  0.00    -0.219 C  
HETATM    2  C   UNL     1      -8.408   7.876  65.743  1.00  0.00    -0.136 C  
ENDROOT
BRANCH   2   3
HETATM    3  O   UNL     1      -8.145   9.270  65.539  1.00  0.00    -0.108 OA 
BRANCH   3   4
HETATM    4  C   UNL     1      -8.118  10.025  66.670  1.00  0.00    -0.118 C  
HETATM    5  O   UNL     1      -7.486   9.711  67.677  1.00  0.00    -0.090 OA 
HETATM    6  N   UNL     1      -8.771  11.251  66.514  1.00  0.00    -0.173 N  
HETATM    7  C   UNL     1      -8.481  12.313  67.365  1.00  0.00    -0.176 C  
HETATM    8  C   UNL     1      -9.146  13.407  66.983  1.00  0.00    -0.243 C  
HETATM    9  N   UNL     1      -9.922  13.104  65.887  1.00  0.00    -0.282 N  
HETATM   10  C   UNL     1      -9.745  11.726  65.548  1.00  0.00    -0.224 C  
HETATM   11  C   UNL     1     -10.807  14.047  65.240  1.00  0.00    -0.347 C  
HETATM   12  S   UNL     1     -10.533  10.898  64.340  1.00  0.00    -0.255 S  
ENDBRANCH   3   4
ENDBRANCH   2   3
TORSDOF 2
ENDMDL
MODEL      175
REMARK 921   NORMALIZED FREE ENERGY PREDICTED BY IDOCK:   -2.12 KCAL/MOL
REMARK 922        TOTAL FREE ENERGY PREDICTED BY IDOCK:   -2.47 KCAL/MOL
REMARK 923 INTER-LIGAND FREE ENERGY PREDICTED BY IDOCK:   -2.41 KCAL/MOL
REMARK 924 INTRA-LIGAND FREE ENERGY PREDICTED BY IDOCK:   -0.05 KCAL/MOL
REMARK 927      BINDING AFFINITY PREDICTED BY RF-SCORE:    0.00 PKD
ROOT
HETATM    1  C   UNL     1      -8.618   2.815  66.267  1.00  0.00    -0.114 C  
HETATM    2  C   UNL     1      -9.648   3.769  66.855  1.00  0.00    -0.179 C  
ENDROOT
BRANCH   2   3
HETATM    3  O   UNL     1      -9.093   4.398  68.017  1.00  0.00    -0.114 OA 
BRANCH   3   4
HETATM    4  C   UNL     1      -9.591   3.962  69.205  1.00  0.00    -0.148 C  
HETATM    5  O   UNL     1      -9.403   2.827  69.641  1.00  0.00    -0.140 OA 
HETATM    6  N   UNL     1     -10.222   4.977  69.929  1.00  0.00    -0.276 N  
HETATM    7  C   UNL     1     -10.393   4.856  71.304  1.00  0.00    -0.148 C  
HETATM    8  C   UNL     1     -10.931   5.972  71.805  1.00  0.00    -0.269 C  
HETATM    9  N   UNL     1     -11.164   6.860  70.779  1.00  0.00    -0.277 N  
HETATM   10  C   UNL     1     -10.752   6.272  69.542  1.00  0.00    -0.303 C  
HETATM   11  C   UNL     1     -11.781   8.155  70.958  1.00  0.00    -0.274 C  
HETATM   12  S   UNL     1     -10.907   6.947  68.029  1.00  0.00    -0.171 S  
ENDBRANCH   3   4
ENDBRANCH   2   3
TORSDOF 2
ENDMDL
MODEL      176
REMARK 921   NORMALIZED FREE ENERGY PREDICTED BY IDOCK:   -2.11 KCAL/MOL
REMARK 922        TOTAL FREE ENERGY PREDICTED BY IDOCK:   -2.45 KCAL/MOL
REMARK 923 INTER-LIGAND FREE ENERGY PREDICTED BY IDOCK:   -2.28 KCAL/MOL
REMARK 924 INTRA-LIGAND FREE ENERGY PREDICTED BY IDOCK:   -0.16 KCAL/MOL
REMARK 927      BINDING AFFINITY PREDICTED BY RF-SCORE:    0.00 PKD
ROOT
HETATM    1  C   UNL     1      -9.957  10.185  65.365  1.00  0.00    -0.377 C  
HETATM    2  C   UNL     1      -9.150  10.206  66.654  1.00  0.00    -0.144 C  
ENDROOT
BRANCH   2   3
HETATM    3  O   UNL     1      -8.670   8.883  66.928  1.00  0.00    -0.117 OA 
BRANCH   3   4
HETATM    4  C   UNL     1      -9.584   8.039  67.478  1.00  0.00    -0.153 C  
HETATM    5  O   UNL     1     -10.356   8.371  68.376  1.00  0.00    -0.206 OA 
HETATM    6  N   UNL     1      -9.638   6.805  66.824  1.00  0.00    -0.161 N  
HETATM    7  C   UNL     1     -10.768   6.002  66.935  1.00  0.00    -0.334 C  
HETATM    8  C   UNL     1     -10.644   4.919  66.162  1.00  0.00    -0.271 C  
HETATM    9  N   UNL     1      -9.419   4.948  65.536  1.00  0.00    -0.160 N  
HETATM   10  C   UNL     1      -8.711   6.125  65.937  1.00  0.00    -0.154 C  
HETATM   11  C   UNL     1      -8.936   3.906  64.658  1.00  0.00    -0.131 C  
HETATM   12  S   UNL     1      -7.165   6.547  65.492  1.00  0.00    -0.076 S  
ENDBRANCH   3   4
ENDBRANCH   2   3
TORSDOF 2
ENDMDL
MODEL      177
REMARK 921   NORMALIZED FREE ENERGY PREDICTED BY IDOCK:   -2.10 KCAL/MOL
REMARK 922        TOTAL FREE ENERGY PREDICTED BY IDOCK:   -2.43 KCAL/MOL
REMARK 923 INTER-LIGAND FREE ENERGY PREDICTED BY IDOCK:   -2.35 KCAL/MOL
REMARK 924 INTRA-LIGAND FREE ENERGY PREDICTED BY IDOCK:   -0.08 KCAL/MOL
REMARK 927      BINDING AFFINITY PREDICTED BY RF-SCORE:    0.00 PKD
ROOT
HETATM    1  C   UNL     1     -10.512   6.383  67.718  1.00  0.00    -0.281 C  
HETATM    2  C   UNL     1     -11.231   6.580  69.044  1.00  0.00    -0.284 C  
ENDROOT
BRANCH   2   3
HETATM    3  O   UNL     1     -10.501   5.908  70.078  1.00  0.00    -0.218 OA 
BRANCH   3   4
HETATM    4  C   UNL     1     -10.665   6.418  71.328  1.00  0.00    -0.241 C  
HETATM    5  O   UNL     1     -11.173   7.515  71.548  1.00  0.00    -0.239 OA 
HETATM    6  N   UNL     1     -10.318   5.507  72.330  1.00  0.00    -0.202 N  
HETATM    7  C   UNL     1     -10.818   5.660  73.619  1.00  0.00    -0.221 C  
HETATM    8  C   UNL     1     -10.437   4.635  74.388  1.00  0.00    -0.282 C  
HETATM    9  N   UNL     1      -9.648   3.784  73.647  1.00  0.00    -0.102 N  
HETATM   10  C   UNL     1      -9.513   4.299  72.320  1.00  0.00    -0.132 C  
HETATM   11  C   UNL     1      -9.027   2.591  74.179  1.00  0.00    -0.074 C  
HETATM   12  S   UNL     1      -8.595   3.645  71.096  1.00  0.00    -0.074 S  
ENDBRANCH   3   4
ENDBRANCH   2   3
TORSDOF 2
ENDMDL
MODEL      178
REMARK 921   NORMALIZED FREE ENERGY PREDICTED BY IDOCK:   -2.06 KCAL/MOL
REMARK 922        TOTAL FREE ENERGY PREDICTED BY IDOCK:   -2.40 KCAL/MOL
REMARK 923 INTER-LIGAND FREE ENERGY PREDICTED BY IDOCK:   -2.28 KCAL/MOL
REMARK 924 INTRA-LIGAND FREE ENERGY PREDICTED BY IDOCK:   -0.12 KCAL/MOL
REMARK 927      BINDING AFFINITY PREDICTED BY RF-SCORE:    0.00 PKD
ROOT
HETATM    1  C   UNL     1     -11.957   8.674  71.216  1.00  0.00    -0.339 C  
HETATM    2  C   UNL     1     -11.053   9.815  70.774  1.00  0.00    -0.345 C  
ENDROOT
BRANCH   2   3
HETATM    3  O   UNL     1     -10.247   9.374  69.673  1.00  0.00    -0.191 OA 
BRANCH   3   4
HETATM    4  C   UNL     1      -8.981   8.998  69.997  1.00  0.00    -0.175 C  
HETATM    5  O   UNL     1      -8.418   9.344  71.034  1.00  0.00    -0.285 OA 
HETATM    6  N   UNL     1      -8.446   8.075  69.094  1.00  0.00    -0.135 N  
HETATM    7  C   UNL     1      -7.386   7.257  69.472  1.00  0.00    -0.086 C  
HETATM    8  C   UNL     1      -7.095   6.395  68.494  1.00  0.00    -0.083 C  
HETATM    9  N   UNL     1      -7.928   6.629  67.423  1.00  0.00    -0.113 N  
HETATM   10  C   UNL     1      -8.806   7.714  67.734  1.00  0.00    -0.125 C  
HETATM   11  C   UNL     1      -7.858   5.904  66.173  1.00  0.00    -0.104 C  
HETATM   12  S   UNL     1      -9.935   8.393  66.719  1.00  0.00    -0.301 S  
ENDBRANCH   3   4
ENDBRANCH   2   3
TORSDOF 2
ENDMDL
MODEL      179
REMARK 921   NORMALIZED FREE ENERGY PREDICTED BY IDOCK:   -2.05 KCAL/MOL
REMARK 922        TOTAL FREE ENERGY PREDICTED BY IDOCK:   -2.39 KCAL/MOL
REMARK 923 INTER-LIGAND FREE ENERGY PREDICTED BY IDOCK:   -2.23 KCAL/MOL
REMARK 924 INTRA-LIGAND FREE ENERGY PREDICTED BY IDOCK:   -0.16 KCAL/MOL
REMARK 927      BINDING AFFINITY PREDICTED BY RF-SCORE:    0.00 PKD
ROOT
HETATM    1  C   UNL     1     -11.180   9.064  71.265  1.00  0.00    -0.385 C  
HETATM    2  C   UNL     1      -9.681   9.238  71.073  1.00  0.00    -0.271 C  
ENDROOT
BRANCH   2   3
HETATM    3  O   UNL     1      -9.189   8.181  70.240  1.00  0.00    -0.150 OA 
BRANCH   3   4
HETATM    4  C   UNL     1      -9.248   8.422  68.903  1.00  0.00    -0.147 C  
HETATM    5  O   UNL     1      -9.178   9.550  68.417  1.00  0.00    -0.130 OA 
HETATM    6  N   UNL     1      -9.262   7.249  68.144  1.00  0.00    -0.133 N  
HETATM    7  C   UNL     1      -8.879   7.274  66.807  1.00  0.00    -0.134 C  
HETATM    8  C   UNL     1      -8.879   6.037  66.302  1.00  0.00    -0.141 C  
HETATM    9  N   UNL     1      -9.289   5.152  67.274  1.00  0.00    -0.118 N  
HETATM   10  C   UNL     1      -9.574   5.870  68.478  1.00  0.00    -0.123 C  
HETATM   11  C   UNL     1      -9.447   3.731  67.057  1.00  0.00    -0.200 C  
HETATM   12  S   UNL     1     -10.166   5.228  69.893  1.00  0.00    -0.300 S  
ENDBRANCH   3   4
ENDBRANCH   2   3
TORSDOF 2
ENDMDL
MODEL      180
REMARK 921   NORMALIZED FREE ENERGY PREDICTED BY IDOCK:   -2.05 KCAL/MOL
REMARK 922        TOTAL FREE ENERGY PREDICTED BY IDOCK:   -2.38 KCAL/MOL
REMARK 923 INTER-LIGAND FREE ENERGY PREDICTED BY IDOCK:   -2.29 KCAL/MOL
REMARK 924 INTRA-LIGAND FREE ENERGY PREDICTED BY IDOCK:   -0.09 KCAL/MOL
REMARK 927      BINDING AFFINITY PREDICTED BY RF-SCORE:    0.00 PKD
ROOT
HETATM    1  C   UNL     1     -12.914   8.394  72.053  1.00  0.00    -0.388 C  
HETATM    2  C   UNL     1     -11.464   8.846  71.972  1.00  0.00    -0.361 C  
ENDROOT
BRANCH   2   3
HETATM    3  O   UNL     1     -10.638   7.718  71.654  1.00  0.00    -0.211 OA 
BRANCH   3   4
HETATM    4  C   UNL     1      -9.512   7.596  72.407  1.00  0.00    -0.165 C  
HETATM    5  O   UNL     1      -9.052   8.510  73.088  1.00  0.00    -0.257 OA 
HETATM    6  N   UNL     1      -9.016   6.289  72.424  1.00  0.00    -0.139 N  
HETATM    7  C   UNL     1      -8.173   5.873  73.449  1.00  0.00    -0.115 C  
HETATM    8  C   UNL     1      -7.894   4.572  73.319  1.00  0.00    -0.091 C  
HETATM    9  N   UNL     1      -8.515   4.087  72.190  1.00  0.00    -0.102 N  
HETATM   10  C   UNL     1      -9.235   5.147  71.554  1.00  0.00    -0.146 C  
HETATM   11  C   UNL     1      -8.391   2.724  71.724  1.00  0.00    -0.057 C  
HETATM   12  S   UNL     1     -10.078   5.048  70.124  1.00  0.00    -0.262 S  
ENDBRANCH   3   4
ENDBRANCH   2   3
TORSDOF 2
ENDMDL
MODEL      181
REMARK 921   NORMALIZED FREE ENERGY PREDICTED BY IDOCK:   -2.04 KCAL/MOL
REMARK 922        TOTAL FREE ENERGY PREDICTED BY IDOCK:   -2.38 KCAL/MOL
REMARK 923 INTER-LIGAND FREE ENERGY PREDICTED BY IDOCK:   -2.25 KCAL/MOL
REMARK 924 INTRA-LIGAND FREE ENERGY PREDICTED BY IDOCK:   -0.12 KCAL/MOL
REMARK 927      BINDING AFFINITY PREDICTED BY RF-SCORE:    0.00 PKD
ROOT
HETATM    1  C   UNL     1     -11.888   8.337  71.368  1.00  0.00    -0.330 C  
HETATM    2  C   UNL     1     -10.847   7.338  71.853  1.00  0.00    -0.226 C  
ENDROOT
BRANCH   2   3
HETATM    3  O   UNL     1     -11.223   6.023  71.422  1.00  0.00    -0.284 OA 
BRANCH   3   4
HETATM    4  C   UNL     1     -10.562   5.003  72.031  1.00  0.00    -0.174 C  
HETATM    5  O   UNL     1     -10.548   4.839  73.250  1.00  0.00    -0.184 OA 
HETATM    6  N   UNL     1     -10.016   4.095  71.119  1.00  0.00    -0.174 N  
HETATM    7  C   UNL     1      -9.705   2.800  71.520  1.00  0.00    -0.155 C  
HETATM    8  C   UNL     1      -9.285   2.080  70.476  1.00  0.00    -0.109 C  
HETATM    9  N   UNL     1      -9.274   2.877  69.353  1.00  0.00    -0.133 N  
HETATM   10  C   UNL     1      -9.711   4.193  69.703  1.00  0.00    -0.199 C  
HETATM   11  C   UNL     1      -8.830   2.431  68.051  1.00  0.00    -0.128 C  
HETATM   12  S   UNL     1      -9.791   5.509  68.688  1.00  0.00    -0.159 S  
ENDBRANCH   3   4
ENDBRANCH   2   3
TORSDOF 2
ENDMDL
MODEL      182
REMARK 921   NORMALIZED FREE ENERGY PREDICTED BY IDOCK:   -2.04 KCAL/MOL
REMARK 922        TOTAL FREE ENERGY PREDICTED BY IDOCK:   -2.37 KCAL/MOL
REMARK 923 INTER-LIGAND FREE ENERGY PREDICTED BY IDOCK:   -2.16 KCAL/MOL
REMARK 924 INTRA-LIGAND FREE ENERGY PREDICTED BY IDOCK:   -0.21 KCAL/MOL
REMARK 927      BINDING AFFINITY PREDICTED BY RF-SCORE:    0.00 PKD
ROOT
HETATM    1  C   UNL     1      -7.894   8.547  69.746  1.00  0.00    -0.094 C  
HETATM    2  C   UNL     1      -9.373   8.749  70.040  1.00  0.00    -0.168 C  
ENDROOT
BRANCH   2   3
HETATM    3  O   UNL     1     -10.133   8.409  68.873  1.00  0.00    -0.189 OA 
BRANCH   3   4
HETATM    4  C   UNL     1     -10.422   9.451  68.048  1.00  0.00    -0.228 C  
HETATM    5  O   UNL     1     -11.091  10.422  68.394  1.00  0.00    -0.250 OA 
HETATM    6  N   UNL     1      -9.767   9.358  66.816  1.00  0.00    -0.183 N  
HETATM    7  C   UNL     1      -9.576  10.495  66.037  1.00  0.00    -0.194 C  
HETATM    8  C   UNL     1      -8.854  10.196  64.953  1.00  0.00    -0.190 C  
HETATM    9  N   UNL     1      -8.566   8.850  64.958  1.00  0.00    -0.176 N  
HETATM   10  C   UNL     1      -9.145   8.247  66.118  1.00  0.00    -0.189 C  
HETATM   11  C   UNL     1      -7.835   8.177  63.907  1.00  0.00    -0.147 C  
HETATM   12  S   UNL     1      -9.117   6.630  66.508  1.00  0.00    -0.150 S  
ENDBRANCH   3   4
ENDBRANCH   2   3
TORSDOF 2
ENDMDL
MODEL      183
REMARK 921   NORMALIZED FREE ENERGY PREDICTED BY IDOCK:   -2.03 KCAL/MOL
REMARK 922        TOTAL FREE ENERGY PREDICTED BY IDOCK:   -2.36 KCAL/MOL
REMARK 923 INTER-LIGAND FREE ENERGY PREDICTED BY IDOCK:   -2.32 KCAL/MOL
REMARK 924 INTRA-LIGAND FREE ENERGY PREDICTED BY IDOCK:   -0.04 KCAL/MOL
REMARK 927      BINDING AFFINITY PREDICTED BY RF-SCORE:    0.00 PKD
ROOT
HETATM    1  C   UNL     1     -11.827  12.410  65.516  1.00  0.00    -0.469 C  
HETATM    2  C   UNL     1     -10.912  12.213  66.715  1.00  0.00    -0.280 C  
ENDROOT
BRANCH   2   3
HETATM    3  O   UNL     1      -9.573  11.996  66.252  1.00  0.00    -0.222 OA 
BRANCH   3   4
HETATM    4  C   UNL     1      -8.612  12.047  67.213  1.00  0.00    -0.177 C  
HETATM    5  O   UNL     1      -8.031  13.082  67.533  1.00  0.00    -0.155 OA 
HETATM    6  N   UNL     1      -8.456  10.830  67.882  1.00  0.00    -0.120 N  
HETATM    7  C   UNL     1      -7.873  10.794  69.145  1.00  0.00    -0.142 C  
HETATM    8  C   UNL     1      -7.906   9.551  69.635  1.00  0.00    -0.116 C  
HETATM    9  N   UNL     1      -8.482   8.715  68.706  1.00  0.00    -0.128 N  
HETATM   10  C   UNL     1      -8.838   9.470  67.544  1.00  0.00    -0.125 C  
HETATM   11  C   UNL     1      -8.638   7.289  68.891  1.00  0.00    -0.129 C  
HETATM   12  S   UNL     1      -9.497   8.870  66.140  1.00  0.00    -0.254 S  
ENDBRANCH   3   4
ENDBRANCH   2   3
TORSDOF 2
ENDMDL
MODEL      184
REMARK 921   NORMALIZED FREE ENERGY PREDICTED BY IDOCK:   -2.03 KCAL/MOL
REMARK 922        TOTAL FREE ENERGY PREDICTED BY IDOCK:   -2.36 KCAL/MOL
REMARK 923 INTER-LIGAND FREE ENERGY PREDICTED BY IDOCK:   -2.27 KCAL/MOL
REMARK 924 INTRA-LIGAND FREE ENERGY PREDICTED BY IDOCK:   -0.09 KCAL/MOL
REMARK 927      BINDING AFFINITY PREDICTED BY RF-SCORE:    0.00 PKD
ROOT
HETATM    1  C   UNL     1     -12.394   9.713  71.129  1.00  0.00    -0.427 C  
HETATM    2  C   UNL     1     -10.933   9.925  70.761  1.00  0.00    -0.337 C  
ENDROOT
BRANCH   2   3
HETATM    3  O   UNL     1     -10.395   8.697  70.256  1.00  0.00    -0.190 OA 
BRANCH   3   4
HETATM    4  C   UNL     1      -9.152   8.379  70.709  1.00  0.00    -0.156 C  
HETATM    5  O   UNL     1      -8.481   9.126  71.419  1.00  0.00    -0.317 OA 
HETATM    6  N   UNL     1      -8.782   7.069  70.391  1.00  0.00    -0.146 N  
HETATM    7  C   UNL     1      -7.785   6.427  71.118  1.00  0.00    -0.098 C  
HETATM    8  C   UNL     1      -7.657   5.161  70.709  1.00  0.00    -0.079 C  
HETATM    9  N   UNL     1      -8.539   4.928  69.678  1.00  0.00    -0.082 N  
HETATM   10  C   UNL     1      -9.278   6.123  69.408  1.00  0.00    -0.133 C  
HETATM   11  C   UNL     1      -8.637   3.672  68.969  1.00  0.00    -0.084 C  
HETATM   12  S   UNL     1     -10.405   6.335  68.203  1.00  0.00    -0.222 S  
ENDBRANCH   3   4
ENDBRANCH   2   3
TORSDOF 2
ENDMDL
MODEL      185
REMARK 921   NORMALIZED FREE ENERGY PREDICTED BY IDOCK:   -2.03 KCAL/MOL
REMARK 922        TOTAL FREE ENERGY PREDICTED BY IDOCK:   -2.36 KCAL/MOL
REMARK 923 INTER-LIGAND FREE ENERGY PREDICTED BY IDOCK:   -2.18 KCAL/MOL
REMARK 924 INTRA-LIGAND FREE ENERGY PREDICTED BY IDOCK:   -0.18 KCAL/MOL
REMARK 927      BINDING AFFINITY PREDICTED BY RF-SCORE:    0.00 PKD
ROOT
HETATM    1  C   UNL     1     -10.216  14.048  67.665  1.00  0.00    -0.241 C  
HETATM    2  C   UNL     1      -9.865  13.204  66.449  1.00  0.00    -0.279 C  
ENDROOT
BRANCH   2   3
HETATM    3  O   UNL     1      -9.991  11.817  66.790  1.00  0.00    -0.198 OA 
BRANCH   3   4
HETATM    4  C   UNL     1      -8.816  11.158  66.976  1.00  0.00    -0.149 C  
HETATM    5  O   UNL     1      -7.886  11.197  66.174  1.00  0.00    -0.149 OA 
HETATM    6  N   UNL     1      -8.735  10.547  68.231  1.00  0.00    -0.130 N  
HETATM    7  C   UNL     1      -7.496  10.221  68.773  1.00  0.00    -0.089 C  
HETATM    8  C   UNL     1      -7.645   9.734  70.009  1.00  0.00    -0.163 C  
HETATM    9  N   UNL     1      -8.985   9.692  70.319  1.00  0.00    -0.241 N  
HETATM   10  C   UNL     1      -9.744  10.179  69.208  1.00  0.00    -0.224 C  
HETATM   11  C   UNL     1      -9.509   9.177  71.564  1.00  0.00    -0.169 C  
HETATM   12  S   UNL     1     -11.402  10.247  69.100  1.00  0.00    -0.145 S  
ENDBRANCH   3   4
ENDBRANCH   2   3
TORSDOF 2
ENDMDL
MODEL      186
REMARK 921   NORMALIZED FREE ENERGY PREDICTED BY IDOCK:   -2.03 KCAL/MOL
REMARK 922        TOTAL FREE ENERGY PREDICTED BY IDOCK:   -2.36 KCAL/MOL
REMARK 923 INTER-LIGAND FREE ENERGY PREDICTED BY IDOCK:   -2.23 KCAL/MOL
REMARK 924 INTRA-LIGAND FREE ENERGY PREDICTED BY IDOCK:   -0.13 KCAL/MOL
REMARK 927      BINDING AFFINITY PREDICTED BY RF-SCORE:    0.00 PKD
ROOT
HETATM    1  C   UNL     1      -7.499  10.342  69.600  1.00  0.00    -0.160 C  
HETATM    2  C   UNL     1      -8.853  10.557  68.940  1.00  0.00    -0.165 C  
ENDROOT
BRANCH   2   3
HETATM    3  O   UNL     1      -8.654  11.094  67.627  1.00  0.00    -0.124 OA 
BRANCH   3   4
HETATM    4  C   UNL     1      -9.705  10.948  66.776  1.00  0.00    -0.190 C  
HETATM    5  O   UNL     1     -10.879  11.042  67.131  1.00  0.00    -0.253 OA 
HETATM    6  N   UNL     1      -9.305  10.815  65.444  1.00  0.00    -0.196 N  
HETATM    7  C   UNL     1     -10.195  11.097  64.413  1.00  0.00    -0.330 C  
HETATM    8  C   UNL     1      -9.581  10.993  63.230  1.00  0.00    -0.345 C  
HETATM    9  N   UNL     1      -8.275  10.610  63.431  1.00  0.00    -0.094 N  
HETATM   10  C   UNL     1      -8.037  10.455  64.833  1.00  0.00    -0.130 C  
HETATM   11  C   UNL     1      -7.333  10.360  62.362  1.00  0.00    -0.143 C  
HETATM   12  S   UNL     1      -6.625   9.937  65.544  1.00  0.00    -0.099 S  
ENDBRANCH   3   4
ENDBRANCH   2   3
TORSDOF 2
ENDMDL
MODEL      187
REMARK 921   NORMALIZED FREE ENERGY PREDICTED BY IDOCK:   -2.00 KCAL/MOL
REMARK 922        TOTAL FREE ENERGY PREDICTED BY IDOCK:   -2.32 KCAL/MOL
REMARK 923 INTER-LIGAND FREE ENERGY PREDICTED BY IDOCK:   -2.20 KCAL/MOL
REMARK 924 INTRA-LIGAND FREE ENERGY PREDICTED BY IDOCK:   -0.12 KCAL/MOL
REMARK 927      BINDING AFFINITY PREDICTED BY RF-SCORE:    0.00 PKD
ROOT
HETATM    1  C   UNL     1      -6.540  20.292  67.868  1.00  0.00    -0.311 C  
HETATM    2  C   UNL     1      -7.645  19.293  68.179  1.00  0.00    -0.290 C  
ENDROOT
BRANCH   2   3
HETATM    3  O   UNL     1      -7.402  18.084  67.448  1.00  0.00    -0.200 OA 
BRANCH   3   4
HETATM    4  C   UNL     1      -8.449  17.217  67.400  1.00  0.00    -0.200 C  
HETATM    5  O   UNL     1      -9.557  17.520  66.961  1.00  0.00    -0.253 OA 
HETATM    6  N   UNL     1      -8.091  15.919  67.775  1.00  0.00    -0.140 N  
HETATM    7  C   UNL     1      -8.867  14.835  67.379  1.00  0.00    -0.193 C  
HETATM    8  C   UNL     1      -8.296  13.691  67.766  1.00  0.00    -0.181 C  
HETATM    9  N   UNL     1      -7.140  13.974  68.458  1.00  0.00    -0.094 N  
HETATM   10  C   UNL     1      -6.962  15.392  68.520  1.00  0.00    -0.113 C  
HETATM   11  C   UNL     1      -6.293  12.969  69.059  1.00  0.00    -0.099 C  
HETATM   12  S   UNL     1      -5.743  16.199  69.315  1.00  0.00    -0.128 S  
ENDBRANCH   3   4
ENDBRANCH   2   3
TORSDOF 2
ENDMDL
MODEL      188
REMARK 921   NORMALIZED FREE ENERGY PREDICTED BY IDOCK:   -1.99 KCAL/MOL
REMARK 922        TOTAL FREE ENERGY PREDICTED BY IDOCK:   -2.32 KCAL/MOL
REMARK 923 INTER-LIGAND FREE ENERGY PREDICTED BY IDOCK:   -2.17 KCAL/MOL
REMARK 924 INTRA-LIGAND FREE ENERGY PREDICTED BY IDOCK:   -0.15 KCAL/MOL
REMARK 927      BINDING AFFINITY PREDICTED BY RF-SCORE:    0.00 PKD
ROOT
HETATM    1  C   UNL     1      -9.206   7.617  68.710  1.00  0.00    -0.142 C  
HETATM    2  C   UNL     1      -8.898   8.134  67.312  1.00  0.00    -0.130 C  
ENDROOT
BRANCH   2   3
HETATM    3  O   UNL     1      -9.361   9.486  67.200  1.00  0.00    -0.139 OA 
BRANCH   3   4
HETATM    4  C   UNL     1      -8.428  10.441  67.459  1.00  0.00    -0.115 C  
HETATM    5  O   UNL     1      -7.219  10.253  67.339  1.00  0.00    -0.090 OA 
HETATM    6  N   UNL     1      -8.996  11.685  67.744  1.00  0.00    -0.164 N  
HETATM    7  C   UNL     1      -8.247  12.848  67.598  1.00  0.00    -0.177 C  
HETATM    8  C   UNL     1      -9.008  13.922  67.833  1.00  0.00    -0.191 C  
HETATM    9  N   UNL     1     -10.277  13.510  68.173  1.00  0.00    -0.242 N  
HETATM   10  C   UNL     1     -10.331  12.081  68.158  1.00  0.00    -0.198 C  
HETATM   11  C   UNL     1     -11.347  14.412  68.535  1.00  0.00    -0.282 C  
HETATM   12  S   UNL     1     -11.638  11.138  68.569  1.00  0.00    -0.305 S  
ENDBRANCH   3   4
ENDBRANCH   2   3
TORSDOF 2
ENDMDL
MODEL      189
REMARK 921   NORMALIZED FREE ENERGY PREDICTED BY IDOCK:   -1.99 KCAL/MOL
REMARK 922        TOTAL FREE ENERGY PREDICTED BY IDOCK:   -2.31 KCAL/MOL
REMARK 923 INTER-LIGAND FREE ENERGY PREDICTED BY IDOCK:   -2.15 KCAL/MOL
REMARK 924 INTRA-LIGAND FREE ENERGY PREDICTED BY IDOCK:   -0.16 KCAL/MOL
REMARK 927      BINDING AFFINITY PREDICTED BY RF-SCORE:    0.00 PKD
ROOT
HETATM    1  C   UNL     1      -7.005   3.935  70.091  1.00  0.00    -0.041 C  
HETATM    2  C   UNL     1      -8.154   3.288  70.851  1.00  0.00    -0.054 C  
ENDROOT
BRANCH   2   3
HETATM    3  O   UNL     1      -9.358   4.022  70.593  1.00  0.00    -0.117 OA 
BRANCH   3   4
HETATM    4  C   UNL     1     -10.078   4.360  71.696  1.00  0.00    -0.160 C  
HETATM    5  O   UNL     1     -10.445   3.543  72.539  1.00  0.00    -0.151 OA 
HETATM    6  N   UNL     1     -10.237   5.742  71.832  1.00  0.00    -0.195 N  
HETATM    7  C   UNL     1     -10.537   6.294  73.073  1.00  0.00    -0.239 C  
HETATM    8  C   UNL     1     -10.554   7.628  72.995  1.00  0.00    -0.375 C  
HETATM    9  N   UNL     1     -10.297   8.007  71.697  1.00  0.00    -0.206 N  
HETATM   10  C   UNL     1     -10.107   6.840  70.892  1.00  0.00    -0.190 C  
HETATM   11  C   UNL     1     -10.282   9.380  71.246  1.00  0.00    -0.270 C  
HETATM   12  S   UNL     1      -9.841   6.806  69.250  1.00  0.00    -0.157 S  
ENDBRANCH   3   4
ENDBRANCH   2   3
TORSDOF 2
ENDMDL
MODEL      190
REMARK 921   NORMALIZED FREE ENERGY PREDICTED BY IDOCK:   -1.97 KCAL/MOL
REMARK 922        TOTAL FREE ENERGY PREDICTED BY IDOCK:   -2.30 KCAL/MOL
REMARK 923 INTER-LIGAND FREE ENERGY PREDICTED BY IDOCK:   -2.17 KCAL/MOL
REMARK 924 INTRA-LIGAND FREE ENERGY PREDICTED BY IDOCK:   -0.13 KCAL/MOL
REMARK 927      BINDING AFFINITY PREDICTED BY RF-SCORE:    0.00 PKD
ROOT
HETATM    1  C   UNL     1     -12.009  14.563  68.623  1.00  0.00    -0.320 C  
HETATM    2  C   UNL     1     -10.585  14.162  68.980  1.00  0.00    -0.213 C  
ENDROOT
BRANCH   2   3
HETATM    3  O   UNL     1      -9.765  14.255  67.809  1.00  0.00    -0.215 OA 
BRANCH   3   4
HETATM    4  C   UNL     1      -8.514  13.737  67.936  1.00  0.00    -0.176 C  
HETATM    5  O   UNL     1      -7.568  14.362  68.413  1.00  0.00    -0.107 OA 
HETATM    6  N   UNL     1      -8.455  12.383  67.591  1.00  0.00    -0.158 N  
HETATM    7  C   UNL     1      -7.417  11.585  68.061  1.00  0.00    -0.098 C  
HETATM    8  C   UNL     1      -7.605  10.315  67.689  1.00  0.00    -0.090 C  
HETATM    9  N   UNL     1      -8.754  10.231  66.936  1.00  0.00    -0.126 N  
HETATM   10  C   UNL     1      -9.337  11.531  66.815  1.00  0.00    -0.181 C  
HETATM   11  C   UNL     1      -9.235   9.008  66.333  1.00  0.00    -0.188 C  
HETATM   12  S   UNL     1     -10.694  11.927  65.937  1.00  0.00    -0.294 S  
ENDBRANCH   3   4
ENDBRANCH   2   3
TORSDOF 2
ENDMDL
MODEL      191
REMARK 921   NORMALIZED FREE ENERGY PREDICTED BY IDOCK:   -1.97 KCAL/MOL
REMARK 922        TOTAL FREE ENERGY PREDICTED BY IDOCK:   -2.29 KCAL/MOL
REMARK 923 INTER-LIGAND FREE ENERGY PREDICTED BY IDOCK:   -2.21 KCAL/MOL
REMARK 924 INTRA-LIGAND FREE ENERGY PREDICTED BY IDOCK:   -0.08 KCAL/MOL
REMARK 927      BINDING AFFINITY PREDICTED BY RF-SCORE:    0.00 PKD
ROOT
HETATM    1  C   UNL     1     -12.671   8.611  71.844  1.00  0.00    -0.413 C  
HETATM    2  C   UNL     1     -11.396   8.205  72.568  1.00  0.00    -0.401 C  
ENDROOT
BRANCH   2   3
HETATM    3  O   UNL     1     -11.109   6.832  72.276  1.00  0.00    -0.235 OA 
BRANCH   3   4
HETATM    4  C   UNL     1     -10.251   6.223  73.138  1.00  0.00    -0.202 C  
HETATM    5  O   UNL     1     -10.511   6.027  74.324  1.00  0.00    -0.280 OA 
HETATM    6  N   UNL     1      -9.108   5.731  72.503  1.00  0.00    -0.137 N  
HETATM    7  C   UNL     1      -8.354   4.724  73.097  1.00  0.00    -0.100 C  
HETATM    8  C   UNL     1      -7.366   4.343  72.282  1.00  0.00    -0.068 C  
HETATM    9  N   UNL     1      -7.410   5.101  71.134  1.00  0.00    -0.071 N  
HETATM   10  C   UNL     1      -8.494   6.031  71.222  1.00  0.00    -0.128 C  
HETATM   11  C   UNL     1      -6.457   4.984  70.053  1.00  0.00    -0.035 C  
HETATM   12  S   UNL     1      -8.888   7.195  70.101  1.00  0.00    -0.145 S  
ENDBRANCH   3   4
ENDBRANCH   2   3
TORSDOF 2
ENDMDL
MODEL      192
REMARK 921   NORMALIZED FREE ENERGY PREDICTED BY IDOCK:   -1.97 KCAL/MOL
REMARK 922        TOTAL FREE ENERGY PREDICTED BY IDOCK:   -2.29 KCAL/MOL
REMARK 923 INTER-LIGAND FREE ENERGY PREDICTED BY IDOCK:   -2.16 KCAL/MOL
REMARK 924 INTRA-LIGAND FREE ENERGY PREDICTED BY IDOCK:   -0.13 KCAL/MOL
REMARK 927      BINDING AFFINITY PREDICTED BY RF-SCORE:    0.00 PKD
ROOT
HETATM    1  C   UNL     1      -6.607  13.401  67.786  1.00  0.00    -0.168 C  
HETATM    2  C   UNL     1      -7.043  11.975  68.089  1.00  0.00    -0.086 C  
ENDROOT
BRANCH   2   3
HETATM    3  O   UNL     1      -8.448  11.965  68.374  1.00  0.00    -0.162 OA 
BRANCH   3   4
HETATM    4  C   UNL     1      -9.238  11.496  67.371  1.00  0.00    -0.166 C  
HETATM    5  O   UNL     1      -9.592  12.182  66.413  1.00  0.00    -0.224 OA 
HETATM    6  N   UNL     1      -9.490  10.126  67.481  1.00  0.00    -0.151 N  
HETATM    7  C   UNL     1      -9.882   9.394  66.365  1.00  0.00    -0.269 C  
HETATM    8  C   UNL     1      -9.979   8.097  66.673  1.00  0.00    -0.269 C  
HETATM    9  N   UNL     1      -9.687   7.926  68.007  1.00  0.00    -0.155 N  
HETATM   10  C   UNL     1      -9.386   9.197  68.592  1.00  0.00    -0.135 C  
HETATM   11  C   UNL     1      -9.739   6.652  68.688  1.00  0.00    -0.129 C  
HETATM   12  S   UNL     1      -9.044   9.490  70.193  1.00  0.00    -0.243 S  
ENDBRANCH   3   4
ENDBRANCH   2   3
TORSDOF 2
ENDMDL
MODEL      193
REMARK 921   NORMALIZED FREE ENERGY PREDICTED BY IDOCK:   -1.96 KCAL/MOL
REMARK 922        TOTAL FREE ENERGY PREDICTED BY IDOCK:   -2.28 KCAL/MOL
REMARK 923 INTER-LIGAND FREE ENERGY PREDICTED BY IDOCK:   -2.31 KCAL/MOL
REMARK 924 INTRA-LIGAND FREE ENERGY PREDICTED BY IDOCK:    0.03 KCAL/MOL
REMARK 927      BINDING AFFINITY PREDICTED BY RF-SCORE:    0.00 PKD
ROOT
HETATM    1  C   UNL     1     -10.237  14.031  67.644  1.00  0.00    -0.241 C  
HETATM    2  C   UNL     1      -9.898  13.313  66.346  1.00  0.00    -0.281 C  
ENDROOT
BRANCH   2   3
HETATM    3  O   UNL     1     -10.097  11.905  66.525  1.00  0.00    -0.199 OA 
BRANCH   3   4
HETATM    4  C   UNL     1      -8.961  11.177  66.698  1.00  0.00    -0.170 C  
HETATM    5  O   UNL     1      -8.300  11.193  67.734  1.00  0.00    -0.118 OA 
HETATM    6  N   UNL     1      -8.707  10.314  65.628  1.00  0.00    -0.155 N  
HETATM    7  C   UNL     1      -7.883   9.207  65.801  1.00  0.00    -0.098 C  
HETATM    8  C   UNL     1      -7.851   8.475  64.683  1.00  0.00    -0.131 C  
HETATM    9  N   UNL     1      -8.625   9.084  63.722  1.00  0.00    -0.170 N  
HETATM   10  C   UNL     1      -9.186  10.286  64.257  1.00  0.00    -0.257 C  
HETATM   11  C   UNL     1      -8.779   8.584  62.374  1.00  0.00    -0.070 C  
HETATM   12  S   UNL     1     -10.130  11.385  63.440  1.00  0.00    -0.420 S  
ENDBRANCH   3   4
ENDBRANCH   2   3
TORSDOF 2
ENDMDL
MODEL      194
REMARK 921   NORMALIZED FREE ENERGY PREDICTED BY IDOCK:   -1.93 KCAL/MOL
REMARK 922        TOTAL FREE ENERGY PREDICTED BY IDOCK:   -2.25 KCAL/MOL
REMARK 923 INTER-LIGAND FREE ENERGY PREDICTED BY IDOCK:   -2.33 KCAL/MOL
REMARK 924 INTRA-LIGAND FREE ENERGY PREDICTED BY IDOCK:    0.07 KCAL/MOL
REMARK 927      BINDING AFFINITY PREDICTED BY RF-SCORE:    0.00 PKD
ROOT
HETATM    1  C   UNL     1     -10.916   6.349  66.873  1.00  0.00    -0.413 C  
HETATM    2  C   UNL     1     -10.745   6.114  68.367  1.00  0.00    -0.293 C  
ENDROOT
BRANCH   2   3
HETATM    3  O   UNL     1     -10.459   7.364  69.008  1.00  0.00    -0.207 OA 
BRANCH   3   4
HETATM    4  C   UNL     1      -9.159   7.549  69.361  1.00  0.00    -0.142 C  
HETATM    5  O   UNL     1      -8.274   7.833  68.556  1.00  0.00    -0.125 OA 
HETATM    6  N   UNL     1      -8.967   7.512  70.745  1.00  0.00    -0.149 N  
HETATM    7  C   UNL     1      -7.843   8.103  71.313  1.00  0.00    -0.097 C  
HETATM    8  C   UNL     1      -7.907   8.032  72.646  1.00  0.00    -0.126 C  
HETATM    9  N   UNL     1      -9.056   7.367  73.009  1.00  0.00    -0.143 N  
HETATM   10  C   UNL     1      -9.773   6.984  71.832  1.00  0.00    -0.157 C  
HETATM   11  C   UNL     1      -9.420   7.073  74.377  1.00  0.00    -0.194 C  
HETATM   12  S   UNL     1     -11.181   6.101  71.778  1.00  0.00    -0.282 S  
ENDBRANCH   3   4
ENDBRANCH   2   3
TORSDOF 2
ENDMDL
MODEL      195
REMARK 921   NORMALIZED FREE ENERGY PREDICTED BY IDOCK:   -1.93 KCAL/MOL
REMARK 922        TOTAL FREE ENERGY PREDICTED BY IDOCK:   -2.25 KCAL/MOL
REMARK 923 INTER-LIGAND FREE ENERGY PREDICTED BY IDOCK:   -2.19 KCAL/MOL
REMARK 924 INTRA-LIGAND FREE ENERGY PREDICTED BY IDOCK:   -0.06 KCAL/MOL
REMARK 927      BINDING AFFINITY PREDICTED BY RF-SCORE:    0.00 PKD
ROOT
HETATM    1  C   UNL     1      -9.151   7.689  73.886  1.00  0.00    -0.316 C  
HETATM    2  C   UNL     1      -8.831   6.502  72.989  1.00  0.00    -0.128 C  
ENDROOT
BRANCH   2   3
HETATM    3  O   UNL     1      -8.999   6.891  71.620  1.00  0.00    -0.136 OA 
BRANCH   3   4
HETATM    4  C   UNL     1     -10.155   6.472  71.037  1.00  0.00    -0.184 C  
HETATM    5  O   UNL     1     -11.246   6.503  71.602  1.00  0.00    -0.247 OA 
HETATM    6  N   UNL     1      -9.987   6.132  69.692  1.00  0.00    -0.162 N  
HETATM    7  C   UNL     1     -11.080   6.114  68.831  1.00  0.00    -0.345 C  
HETATM    8  C   UNL     1     -10.681   5.855  67.582  1.00  0.00    -0.270 C  
HETATM    9  N   UNL     1      -9.318   5.662  67.574  1.00  0.00    -0.109 N  
HETATM   10  C   UNL     1      -8.812   5.803  68.904  1.00  0.00    -0.110 C  
HETATM   11  C   UNL     1      -8.560   5.318  66.392  1.00  0.00    -0.114 C  
HETATM   12  S   UNL     1      -7.235   5.587  69.388  1.00  0.00    -0.067 S  
ENDBRANCH   3   4
ENDBRANCH   2   3
TORSDOF 2
ENDMDL
MODEL      196
REMARK 921   NORMALIZED FREE ENERGY PREDICTED BY IDOCK:   -1.90 KCAL/MOL
REMARK 922        TOTAL FREE ENERGY PREDICTED BY IDOCK:   -2.22 KCAL/MOL
REMARK 923 INTER-LIGAND FREE ENERGY PREDICTED BY IDOCK:   -2.10 KCAL/MOL
REMARK 924 INTRA-LIGAND FREE ENERGY PREDICTED BY IDOCK:   -0.12 KCAL/MOL
REMARK 927      BINDING AFFINITY PREDICTED BY RF-SCORE:    0.00 PKD
ROOT
HETATM    1  C   UNL     1      -8.430   3.903  70.152  1.00  0.00    -0.091 C  
HETATM    2  C   UNL     1      -9.310   4.218  68.952  1.00  0.00    -0.158 C  
ENDROOT
BRANCH   2   3
HETATM    3  O   UNL     1      -9.002   5.536  68.479  1.00  0.00    -0.110 OA 
BRANCH   3   4
HETATM    4  C   UNL     1     -10.054   6.398  68.442  1.00  0.00    -0.157 C  
HETATM    5  O   UNL     1     -11.003   6.340  69.222  1.00  0.00    -0.297 OA 
HETATM    6  N   UNL     1      -9.872   7.428  67.515  1.00  0.00    -0.149 N  
HETATM    7  C   UNL     1     -10.590   8.614  67.636  1.00  0.00    -0.203 C  
HETATM    8  C   UNL     1     -10.197   9.489  66.705  1.00  0.00    -0.243 C  
HETATM    9  N   UNL     1      -9.230   8.907  65.917  1.00  0.00    -0.217 N  
HETATM   10  C   UNL     1      -8.991   7.572  66.370  1.00  0.00    -0.167 C  
HETATM   11  C   UNL     1      -8.614   9.559  64.783  1.00  0.00    -0.176 C  
HETATM   12  S   UNL     1      -7.959   6.465  65.679  1.00  0.00    -0.127 S  
ENDBRANCH   3   4
ENDBRANCH   2   3
TORSDOF 2
ENDMDL
MODEL      197
REMARK 921   NORMALIZED FREE ENERGY PREDICTED BY IDOCK:   -1.90 KCAL/MOL
REMARK 922        TOTAL FREE ENERGY PREDICTED BY IDOCK:   -2.21 KCAL/MOL
REMARK 923 INTER-LIGAND FREE ENERGY PREDICTED BY IDOCK:   -2.05 KCAL/MOL
REMARK 924 INTRA-LIGAND FREE ENERGY PREDICTED BY IDOCK:   -0.16 KCAL/MOL
REMARK 927      BINDING AFFINITY PREDICTED BY RF-SCORE:    0.00 PKD
ROOT
HETATM    1  C   UNL     1      -6.299   7.753  63.939  1.00  0.00    -0.058 C  
HETATM    2  C   UNL     1      -7.767   8.061  64.191  1.00  0.00    -0.129 C  
ENDROOT
BRANCH   2   3
HETATM    3  O   UNL     1      -7.905   8.655  65.488  1.00  0.00    -0.092 OA 
BRANCH   3   4
HETATM    4  C   UNL     1      -9.175   8.704  65.970  1.00  0.00    -0.216 C  
HETATM    5  O   UNL     1      -9.988   9.569  65.647  1.00  0.00    -0.305 OA 
HETATM    6  N   UNL     1      -9.493   7.598  66.763  1.00  0.00    -0.180 N  
HETATM    7  C   UNL     1     -10.822   7.243  66.972  1.00  0.00    -0.280 C  
HETATM    8  C   UNL     1     -10.893   6.111  67.678  1.00  0.00    -0.332 C  
HETATM    9  N   UNL     1      -9.619   5.691  67.988  1.00  0.00    -0.116 N  
HETATM   10  C   UNL     1      -8.671   6.617  67.449  1.00  0.00    -0.118 C  
HETATM   11  C   UNL     1      -9.328   4.519  68.784  1.00  0.00    -0.146 C  
HETATM   12  S   UNL     1      -7.019   6.557  67.633  1.00  0.00    -0.081 S  
ENDBRANCH   3   4
ENDBRANCH   2   3
TORSDOF 2
ENDMDL
MODEL      198
REMARK 921   NORMALIZED FREE ENERGY PREDICTED BY IDOCK:   -1.87 KCAL/MOL
REMARK 922        TOTAL FREE ENERGY PREDICTED BY IDOCK:   -2.18 KCAL/MOL
REMARK 923 INTER-LIGAND FREE ENERGY PREDICTED BY IDOCK:   -2.06 KCAL/MOL
REMARK 924 INTRA-LIGAND FREE ENERGY PREDICTED BY IDOCK:   -0.12 KCAL/MOL
REMARK 927      BINDING AFFINITY PREDICTED BY RF-SCORE:    0.00 PKD
ROOT
HETATM    1  C   UNL     1      -6.994  17.137  68.097  1.00  0.00    -0.178 C  
HETATM    2  C   UNL     1      -6.710  15.732  67.585  1.00  0.00    -0.172 C  
ENDROOT
BRANCH   2   3
HETATM    3  O   UNL     1      -7.798  15.308  66.754  1.00  0.00    -0.176 OA 
BRANCH   3   4
HETATM    4  C   UNL     1      -8.363  14.121  67.102  1.00  0.00    -0.169 C  
HETATM    5  O   UNL     1      -7.833  13.032  66.891  1.00  0.00    -0.033 OA 
HETATM    6  N   UNL     1      -9.540  14.282  67.840  1.00  0.00    -0.215 N  
HETATM    7  C   UNL     1     -10.009  13.248  68.644  1.00  0.00    -0.122 C  
HETATM    8  C   UNL     1     -11.088  13.646  69.325  1.00  0.00    -0.193 C  
HETATM    9  N   UNL     1     -11.392  14.942  68.975  1.00  0.00    -0.276 N  
HETATM   10  C   UNL     1     -10.447  15.403  68.004  1.00  0.00    -0.257 C  
HETATM   11  C   UNL     1     -12.528  15.672  69.490  1.00  0.00     0.003 C  
HETATM   12  S   UNL     1     -10.459  16.881  67.241  1.00  0.00    -0.270 S  
ENDBRANCH   3   4
ENDBRANCH   2   3
TORSDOF 2
ENDMDL
MODEL      199
REMARK 921   NORMALIZED FREE ENERGY PREDICTED BY IDOCK:   -1.85 KCAL/MOL
REMARK 922        TOTAL FREE ENERGY PREDICTED BY IDOCK:   -2.16 KCAL/MOL
REMARK 923 INTER-LIGAND FREE ENERGY PREDICTED BY IDOCK:   -1.97 KCAL/MOL
REMARK 924 INTRA-LIGAND FREE ENERGY PREDICTED BY IDOCK:   -0.18 KCAL/MOL
REMARK 927      BINDING AFFINITY PREDICTED BY RF-SCORE:    0.00 PKD
ROOT
HETATM    1  C   UNL     1      -8.224   4.824  69.084  1.00  0.00    -0.081 C  
HETATM    2  C   UNL     1      -9.728   4.831  69.315  1.00  0.00    -0.196 C  
ENDROOT
BRANCH   2   3
HETATM    3  O   UNL     1     -10.261   6.091  68.888  1.00  0.00    -0.164 OA 
BRANCH   3   4
HETATM    4  C   UNL     1     -10.351   7.040  69.858  1.00  0.00    -0.210 C  
HETATM    5  O   UNL     1     -10.838   6.828  70.967  1.00  0.00    -0.230 OA 
HETATM    6  N   UNL     1      -9.713   8.232  69.506  1.00  0.00    -0.172 N  
HETATM    7  C   UNL     1      -9.315   9.132  70.489  1.00  0.00    -0.240 C  
HETATM    8  C   UNL     1      -8.648  10.152  69.941  1.00  0.00    -0.072 C  
HETATM    9  N   UNL     1      -8.607   9.983  68.575  1.00  0.00    -0.116 N  
HETATM   10  C   UNL     1      -9.295   8.778  68.227  1.00  0.00    -0.137 C  
HETATM   11  C   UNL     1      -8.000  10.926  67.663  1.00  0.00    -0.114 C  
HETATM   12  S   UNL     1      -9.562   8.203  66.689  1.00  0.00    -0.240 S  
ENDBRANCH   3   4
ENDBRANCH   2   3
TORSDOF 2
ENDMDL
MODEL      200
REMARK 921   NORMALIZED FREE ENERGY PREDICTED BY IDOCK:   -1.82 KCAL/MOL
REMARK 922        TOTAL FREE ENERGY PREDICTED BY IDOCK:   -2.13 KCAL/MOL
REMARK 923 INTER-LIGAND FREE ENERGY PREDICTED BY IDOCK:   -1.96 KCAL/MOL
REMARK 924 INTRA-LIGAND FREE ENERGY PREDICTED BY IDOCK:   -0.17 KCAL/MOL
REMARK 927      BINDING AFFINITY PREDICTED BY RF-SCORE:    0.00 PKD
ROOT
HETATM    1  C   UNL     1      -6.617  13.154  67.824  1.00  0.00    -0.151 C  
HETATM    2  C   UNL     1      -6.702  11.700  67.383  1.00  0.00    -0.108 C  
ENDROOT
BRANCH   2   3
HETATM    3  O   UNL     1      -7.960  11.481  66.731  1.00  0.00    -0.156 OA 
BRANCH   3   4
HETATM    4  C   UNL     1      -8.353  10.182  66.654  1.00  0.00    -0.123 C  
HETATM    5  O   UNL     1      -7.893   9.383  65.840  1.00  0.00    -0.098 OA 
HETATM    6  N   UNL     1      -9.232   9.824  67.680  1.00  0.00    -0.131 N  
HETATM    7  C   UNL     1      -9.392   8.488  68.033  1.00  0.00    -0.136 C  
HETATM    8  C   UNL     1     -10.203   8.382  69.090  1.00  0.00    -0.211 C  
HETATM    9  N   UNL     1     -10.635   9.637  69.456  1.00  0.00    -0.218 N  
HETATM   10  C   UNL     1     -10.065  10.609  68.574  1.00  0.00    -0.172 C  
HETATM   11  C   UNL     1     -11.562   9.888  70.536  1.00  0.00    -0.309 C  
HETATM   12  S   UNL     1     -10.359  12.246  68.588  1.00  0.00    -0.143 S  
ENDBRANCH   3   4
ENDBRANCH   2   3
TORSDOF 2
ENDMDL
MODEL      201
REMARK 921   NORMALIZED FREE ENERGY PREDICTED BY IDOCK:   -1.82 KCAL/MOL
REMARK 922        TOTAL FREE ENERGY PREDICTED BY IDOCK:   -2.12 KCAL/MOL
REMARK 923 INTER-LIGAND FREE ENERGY PREDICTED BY IDOCK:   -2.03 KCAL/MOL
REMARK 924 INTRA-LIGAND FREE ENERGY PREDICTED BY IDOCK:   -0.09 KCAL/MOL
REMARK 927      BINDING AFFINITY PREDICTED BY RF-SCORE:    0.00 PKD
ROOT
HETATM    1  C   UNL     1      -8.103   6.351  69.100  1.00  0.00    -0.111 C  
HETATM    2  C   UNL     1      -7.857   6.490  67.605  1.00  0.00    -0.110 C  
ENDROOT
BRANCH   2   3
HETATM    3  O   UNL     1      -8.615   7.600  67.107  1.00  0.00    -0.119 OA 
BRANCH   3   4
HETATM    4  C   UNL     1      -8.391   7.916  65.803  1.00  0.00    -0.136 C  
HETATM    5  O   UNL     1      -7.935   7.120  64.984  1.00  0.00    -0.119 OA 
HETATM    6  N   UNL     1      -8.858   9.191  65.471  1.00  0.00    -0.179 N  
HETATM    7  C   UNL     1      -9.124   9.516  64.145  1.00  0.00    -0.153 C  
HETATM    8  C   UNL     1      -9.643  10.744  64.065  1.00  0.00    -0.291 C  
HETATM    9  N   UNL     1      -9.712  11.289  65.327  1.00  0.00    -0.230 N  
HETATM   10  C   UNL     1      -9.200  10.349  66.276  1.00  0.00    -0.166 C  
HETATM   11  C   UNL     1     -10.185  12.627  65.604  1.00  0.00    -0.273 C  
HETATM   12  S   UNL     1      -9.020  10.596  67.911  1.00  0.00    -0.140 S  
ENDBRANCH   3   4
ENDBRANCH   2   3
TORSDOF 2
ENDMDL
MODEL      202
REMARK 921   NORMALIZED FREE ENERGY PREDICTED BY IDOCK:   -1.81 KCAL/MOL
REMARK 922        TOTAL FREE ENERGY PREDICTED BY IDOCK:   -2.12 KCAL/MOL
REMARK 923 INTER-LIGAND FREE ENERGY PREDICTED BY IDOCK:   -1.96 KCAL/MOL
REMARK 924 INTRA-LIGAND FREE ENERGY PREDICTED BY IDOCK:   -0.16 KCAL/MOL
REMARK 927      BINDING AFFINITY PREDICTED BY RF-SCORE:    0.00 PKD
ROOT
HETATM    1  C   UNL     1      -6.006  11.537  69.747  1.00  0.00    -0.116 C  
HETATM    2  C   UNL     1      -6.677  10.297  70.319  1.00  0.00    -0.142 C  
ENDROOT
BRANCH   2   3
HETATM    3  O   UNL     1      -7.942  10.109  69.672  1.00  0.00    -0.152 OA 
BRANCH   3   4
HETATM    4  C   UNL     1      -7.916   9.312  68.570  1.00  0.00    -0.101 C  
HETATM    5  O   UNL     1      -7.317   8.239  68.527  1.00  0.00    -0.089 OA 
HETATM    6  N   UNL     1      -8.747   9.779  67.548  1.00  0.00    -0.125 N  
HETATM    7  C   UNL     1      -9.194   8.911  66.557  1.00  0.00    -0.183 C  
HETATM    8  C   UNL     1     -10.044   9.541  65.740  1.00  0.00    -0.153 C  
HETATM    9  N   UNL     1     -10.168  10.852  66.140  1.00  0.00    -0.242 N  
HETATM   10  C   UNL     1      -9.340  11.078  67.285  1.00  0.00    -0.156 C  
HETATM   11  C   UNL     1     -10.976  11.833  65.451  1.00  0.00    -0.297 C  
HETATM   12  S   UNL     1      -9.114  12.527  68.069  1.00  0.00    -0.203 S  
ENDBRANCH   3   4
ENDBRANCH   2   3
TORSDOF 2
ENDMDL
MODEL      203
REMARK 921   NORMALIZED FREE ENERGY PREDICTED BY IDOCK:   -1.78 KCAL/MOL
REMARK 922        TOTAL FREE ENERGY PREDICTED BY IDOCK:   -2.09 KCAL/MOL
REMARK 923 INTER-LIGAND FREE ENERGY PREDICTED BY IDOCK:   -2.05 KCAL/MOL
REMARK 924 INTRA-LIGAND FREE ENERGY PREDICTED BY IDOCK:   -0.03 KCAL/MOL
REMARK 927      BINDING AFFINITY PREDICTED BY RF-SCORE:    0.00 PKD
ROOT
HETATM    1  C   UNL     1      -8.932   3.772  70.763  1.00  0.00    -0.157 C  
HETATM    2  C   UNL     1      -8.436   4.605  69.590  1.00  0.00    -0.074 C  
ENDROOT
BRANCH   2   3
HETATM    3  O   UNL     1      -9.564   5.083  68.846  1.00  0.00    -0.130 OA 
BRANCH   3   4
HETATM    4  C   UNL     1      -9.261   5.842  67.758  1.00  0.00    -0.105 C  
HETATM    5  O   UNL     1      -8.758   5.383  66.734  1.00  0.00    -0.114 OA 
HETATM    6  N   UNL     1      -9.703   7.162  67.882  1.00  0.00    -0.136 N  
HETATM    7  C   UNL     1      -9.888   7.949  66.750  1.00  0.00    -0.248 C  
HETATM    8  C   UNL     1     -10.398   9.136  67.090  1.00  0.00    -0.267 C  
HETATM    9  N   UNL     1     -10.541   9.191  68.458  1.00  0.00    -0.199 N  
HETATM   10  C   UNL     1     -10.089   7.961  69.031  1.00  0.00    -0.200 C  
HETATM   11  C   UNL     1     -11.025  10.351  69.173  1.00  0.00    -0.241 C  
HETATM   12  S   UNL     1     -10.008   7.599  70.653  1.00  0.00    -0.182 S  
ENDBRANCH   3   4
ENDBRANCH   2   3
TORSDOF 2
ENDMDL
MODEL      204
REMARK 921   NORMALIZED FREE ENERGY PREDICTED BY IDOCK:   -1.73 KCAL/MOL
REMARK 922        TOTAL FREE ENERGY PREDICTED BY IDOCK:   -2.03 KCAL/MOL
REMARK 923 INTER-LIGAND FREE ENERGY PREDICTED BY IDOCK:   -1.89 KCAL/MOL
REMARK 924 INTRA-LIGAND FREE ENERGY PREDICTED BY IDOCK:   -0.14 KCAL/MOL
REMARK 927      BINDING AFFINITY PREDICTED BY RF-SCORE:    0.00 PKD
ROOT
HETATM    1  C   UNL     1      -9.601   3.811  64.903  1.00  0.00    -0.177 C  
HETATM    2  C   UNL     1      -9.697   4.339  66.327  1.00  0.00    -0.213 C  
ENDROOT
BRANCH   2   3
HETATM    3  O   UNL     1      -9.442   5.750  66.322  1.00  0.00    -0.157 OA 
BRANCH   3   4
HETATM    4  C   UNL     1     -10.170   6.473  67.215  1.00  0.00    -0.188 C  
HETATM    5  O   UNL     1     -11.364   6.726  67.065  1.00  0.00    -0.337 OA 
HETATM    6  N   UNL     1      -9.450   6.778  68.374  1.00  0.00    -0.127 N  
HETATM    7  C   UNL     1     -10.120   7.103  69.549  1.00  0.00    -0.179 C  
HETATM    8  C   UNL     1      -9.247   7.267  70.548  1.00  0.00    -0.158 C  
HETATM    9  N   UNL     1      -7.970   7.087  70.067  1.00  0.00    -0.113 N  
HETATM   10  C   UNL     1      -8.029   6.793  68.668  1.00  0.00    -0.119 C  
HETATM   11  C   UNL     1      -6.777   7.235  70.870  1.00  0.00    -0.048 C  
HETATM   12  S   UNL     1      -6.731   6.569  67.652  1.00  0.00    -0.070 S  
ENDBRANCH   3   4
ENDBRANCH   2   3
TORSDOF 2
ENDMDL
MODEL      205
REMARK 921   NORMALIZED FREE ENERGY PREDICTED BY IDOCK:   -1.71 KCAL/MOL
REMARK 922        TOTAL FREE ENERGY PREDICTED BY IDOCK:   -2.00 KCAL/MOL
REMARK 923 INTER-LIGAND FREE ENERGY PREDICTED BY IDOCK:   -1.95 KCAL/MOL
REMARK 924 INTRA-LIGAND FREE ENERGY PREDICTED BY IDOCK:   -0.05 KCAL/MOL
REMARK 927      BINDING AFFINITY PREDICTED BY RF-SCORE:    0.00 PKD
ROOT
HETATM    1  C   UNL     1      -7.821  10.438  63.407  1.00  0.00    -0.093 C  
HETATM    2  C   UNL     1      -8.911   9.433  63.750  1.00  0.00    -0.171 C  
ENDROOT
BRANCH   2   3
HETATM    3  O   UNL     1      -9.412   9.716  65.063  1.00  0.00    -0.261 OA 
BRANCH   3   4
HETATM    4  C   UNL     1      -8.481   9.697  66.054  1.00  0.00    -0.124 C  
HETATM    5  O   UNL     1      -7.725   8.748  66.253  1.00  0.00    -0.095 OA 
HETATM    6  N   UNL     1      -8.390  10.917  66.730  1.00  0.00    -0.133 N  
HETATM    7  C   UNL     1      -7.240  11.239  67.444  1.00  0.00    -0.110 C  
HETATM    8  C   UNL     1      -7.329  12.480  67.931  1.00  0.00    -0.115 C  
HETATM    9  N   UNL     1      -8.550  13.014  67.586  1.00  0.00    -0.177 N  
HETATM   10  C   UNL     1      -9.292  12.051  66.832  1.00  0.00    -0.200 C  
HETATM   11  C   UNL     1      -8.999  14.328  67.988  1.00  0.00    -0.183 C  
HETATM   12  S   UNL     1     -10.844  12.226  66.262  1.00  0.00    -0.291 S  
ENDBRANCH   3   4
ENDBRANCH   2   3
TORSDOF 2
ENDMDL
MODEL      206
REMARK 921   NORMALIZED FREE ENERGY PREDICTED BY IDOCK:   -1.70 KCAL/MOL
REMARK 922        TOTAL FREE ENERGY PREDICTED BY IDOCK:   -2.00 KCAL/MOL
REMARK 923 INTER-LIGAND FREE ENERGY PREDICTED BY IDOCK:   -1.88 KCAL/MOL
REMARK 924 INTRA-LIGAND FREE ENERGY PREDICTED BY IDOCK:   -0.12 KCAL/MOL
REMARK 927      BINDING AFFINITY PREDICTED BY RF-SCORE:    0.00 PKD
ROOT
HETATM    1  C   UNL     1      -5.668   9.287  64.094  1.00  0.00    -0.070 C  
HETATM    2  C   UNL     1      -6.960  10.090  64.066  1.00  0.00    -0.124 C  
ENDROOT
BRANCH   2   3
HETATM    3  O   UNL     1      -7.791   9.676  65.159  1.00  0.00    -0.108 OA 
BRANCH   3   4
HETATM    4  C   UNL     1      -8.773  10.553  65.503  1.00  0.00    -0.185 C  
HETATM    5  O   UNL     1      -9.339  11.285  64.694  1.00  0.00    -0.208 OA 
HETATM    6  N   UNL     1      -9.155  10.433  66.843  1.00  0.00    -0.143 N  
HETATM    7  C   UNL     1     -10.396  10.900  67.261  1.00  0.00    -0.216 C  
HETATM    8  C   UNL     1     -10.592  10.604  68.550  1.00  0.00    -0.200 C  
HETATM    9  N   UNL     1      -9.478   9.959  69.039  1.00  0.00    -0.174 N  
HETATM   10  C   UNL     1      -8.505   9.839  67.997  1.00  0.00    -0.118 C  
HETATM   11  C   UNL     1      -9.330   9.534  70.413  1.00  0.00    -0.257 C  
HETATM   12  S   UNL     1      -6.979   9.193  68.141  1.00  0.00    -0.077 S  
ENDBRANCH   3   4
ENDBRANCH   2   3
TORSDOF 2
ENDMDL
MODEL      207
REMARK 921   NORMALIZED FREE ENERGY PREDICTED BY IDOCK:   -1.70 KCAL/MOL
REMARK 922        TOTAL FREE ENERGY PREDICTED BY IDOCK:   -1.99 KCAL/MOL
REMARK 923 INTER-LIGAND FREE ENERGY PREDICTED BY IDOCK:   -1.84 KCAL/MOL
REMARK 924 INTRA-LIGAND FREE ENERGY PREDICTED BY IDOCK:   -0.15 KCAL/MOL
REMARK 927      BINDING AFFINITY PREDICTED BY RF-SCORE:    0.00 PKD
ROOT
HETATM    1  C   UNL     1      -9.236   3.191  65.138  1.00  0.00    -0.150 C  
HETATM    2  C   UNL     1     -10.168   4.325  65.538  1.00  0.00    -0.207 C  
ENDROOT
BRANCH   2   3
HETATM    3  O   UNL     1      -9.464   5.228  66.399  1.00  0.00    -0.140 OA 
BRANCH   3   4
HETATM    4  C   UNL     1     -10.061   6.437  66.582  1.00  0.00    -0.145 C  
HETATM    5  O   UNL     1     -11.209   6.566  67.002  1.00  0.00    -0.397 OA 
HETATM    6  N   UNL     1      -9.186   7.506  66.371  1.00  0.00    -0.172 N  
HETATM    7  C   UNL     1      -9.459   8.754  66.922  1.00  0.00    -0.177 C  
HETATM    8  C   UNL     1      -8.453   9.599  66.673  1.00  0.00    -0.123 C  
HETATM    9  N   UNL     1      -7.495   8.954  65.926  1.00  0.00    -0.092 N  
HETATM   10  C   UNL     1      -7.915   7.609  65.676  1.00  0.00    -0.116 C  
HETATM   11  C   UNL     1      -6.288   9.586  65.442  1.00  0.00    -0.069 C  
HETATM   12  S   UNL     1      -7.112   6.479  64.757  1.00  0.00    -0.056 S  
ENDBRANCH   3   4
ENDBRANCH   2   3
TORSDOF 2
ENDMDL
MODEL      208
REMARK 921   NORMALIZED FREE ENERGY PREDICTED BY IDOCK:   -1.68 KCAL/MOL
REMARK 922        TOTAL FREE ENERGY PREDICTED BY IDOCK:   -1.97 KCAL/MOL
REMARK 923 INTER-LIGAND FREE ENERGY PREDICTED BY IDOCK:   -2.32 KCAL/MOL
REMARK 924 INTRA-LIGAND FREE ENERGY PREDICTED BY IDOCK:    0.35 KCAL/MOL
REMARK 927      BINDING AFFINITY PREDICTED BY RF-SCORE:    0.00 PKD
ROOT
HETATM    1  C   UNL     1     -10.949   9.280  71.266  1.00  0.00    -0.421 C  
HETATM    2  C   UNL     1      -9.473   8.912  71.221  1.00  0.00    -0.272 C  
ENDROOT
BRANCH   2   3
HETATM    3  O   UNL     1      -9.343   7.547  70.806  1.00  0.00    -0.162 OA 
BRANCH   3   4
HETATM    4  C   UNL     1     -10.115   7.188  69.745  1.00  0.00    -0.195 C  
HETATM    5  O   UNL     1     -11.262   6.759  69.859  1.00  0.00    -0.296 OA 
HETATM    6  N   UNL     1      -9.516   7.486  68.518  1.00  0.00    -0.145 N  
HETATM    7  C   UNL     1     -10.292   7.611  67.371  1.00  0.00    -0.277 C  
HETATM    8  C   UNL     1      -9.532   7.987  66.337  1.00  0.00    -0.201 C  
HETATM    9  N   UNL     1      -8.224   8.094  66.753  1.00  0.00    -0.106 N  
HETATM   10  C   UNL     1      -8.141   7.762  68.142  1.00  0.00    -0.123 C  
HETATM   11  C   UNL     1      -7.126   8.438  65.878  1.00  0.00    -0.072 C  
HETATM   12  S   UNL     1      -6.753   7.685  69.056  1.00  0.00    -0.050 S  
ENDBRANCH   3   4
ENDBRANCH   2   3
TORSDOF 2
ENDMDL
MODEL      209
REMARK 921   NORMALIZED FREE ENERGY PREDICTED BY IDOCK:   -1.67 KCAL/MOL
REMARK 922        TOTAL FREE ENERGY PREDICTED BY IDOCK:   -1.95 KCAL/MOL
REMARK 923 INTER-LIGAND FREE ENERGY PREDICTED BY IDOCK:   -2.17 KCAL/MOL
REMARK 924 INTRA-LIGAND FREE ENERGY PREDICTED BY IDOCK:    0.22 KCAL/MOL
REMARK 927      BINDING AFFINITY PREDICTED BY RF-SCORE:    0.00 PKD
ROOT
HETATM    1  C   UNL     1      -6.534  11.966  69.668  1.00  0.00    -0.101 C  
HETATM    2  C   UNL     1      -5.839  13.057  68.866  1.00  0.00    -0.076 C  
ENDROOT
BRANCH   2   3
HETATM    3  O   UNL     1      -6.579  13.298  67.663  1.00  0.00    -0.147 OA 
BRANCH   3   4
HETATM    4  C   UNL     1      -7.079  12.187  67.059  1.00  0.00    -0.064 C  
HETATM    5  O   UNL     1      -6.387  11.221  66.742  1.00  0.00    -0.112 OA 
HETATM    6  N   UNL     1      -8.473  12.208  66.961  1.00  0.00    -0.181 N  
HETATM    7  C   UNL     1      -9.183  11.023  66.795  1.00  0.00    -0.161 C  
HETATM    8  C   UNL     1     -10.497  11.264  66.818  1.00  0.00    -0.248 C  
HETATM    9  N   UNL     1     -10.706  12.616  66.969  1.00  0.00    -0.243 N  
HETATM   10  C   UNL     1      -9.444  13.285  67.043  1.00  0.00    -0.243 C  
HETATM   11  C   UNL     1     -12.014  13.232  66.990  1.00  0.00    -0.365 C  
HETATM   12  S   UNL     1      -9.202  14.926  67.156  1.00  0.00    -0.231 S  
ENDBRANCH   3   4
ENDBRANCH   2   3
TORSDOF 2
ENDMDL
MODEL      210
REMARK 921   NORMALIZED FREE ENERGY PREDICTED BY IDOCK:   -1.65 KCAL/MOL
REMARK 922        TOTAL FREE ENERGY PREDICTED BY IDOCK:   -1.94 KCAL/MOL
REMARK 923 INTER-LIGAND FREE ENERGY PREDICTED BY IDOCK:   -1.82 KCAL/MOL
REMARK 924 INTRA-LIGAND FREE ENERGY PREDICTED BY IDOCK:   -0.11 KCAL/MOL
REMARK 927      BINDING AFFINITY PREDICTED BY RF-SCORE:    0.00 PKD
ROOT
HETATM    1  C   UNL     1     -10.219  12.456  67.315  1.00  0.00    -0.224 C  
HETATM    2  C   UNL     1     -10.760  11.546  66.223  1.00  0.00    -0.272 C  
ENDROOT
BRANCH   2   3
HETATM    3  O   UNL     1     -10.354  10.198  66.493  1.00  0.00    -0.231 OA 
BRANCH   3   4
HETATM    4  C   UNL     1      -9.220   9.796  65.859  1.00  0.00    -0.187 C  
HETATM    5  O   UNL     1      -8.764  10.362  64.867  1.00  0.00    -0.171 OA 
HETATM    6  N   UNL     1      -8.564   8.762  66.533  1.00  0.00    -0.115 N  
HETATM    7  C   UNL     1      -7.212   8.525  66.307  1.00  0.00    -0.078 C  
HETATM    8  C   UNL     1      -6.770   7.558  67.116  1.00  0.00    -0.067 C  
HETATM    9  N   UNL     1      -7.816   7.099  67.884  1.00  0.00    -0.112 N  
HETATM   10  C   UNL     1      -9.005   7.816  67.542  1.00  0.00    -0.123 C  
HETATM   11  C   UNL     1      -7.702   6.020  68.840  1.00  0.00    -0.092 C  
HETATM   12  S   UNL     1     -10.528   7.555  68.159  1.00  0.00    -0.154 S  
ENDBRANCH   3   4
ENDBRANCH   2   3
TORSDOF 2
ENDMDL
MODEL      211
REMARK 921   NORMALIZED FREE ENERGY PREDICTED BY IDOCK:   -1.64 KCAL/MOL
REMARK 922        TOTAL FREE ENERGY PREDICTED BY IDOCK:   -1.93 KCAL/MOL
REMARK 923 INTER-LIGAND FREE ENERGY PREDICTED BY IDOCK:   -2.06 KCAL/MOL
REMARK 924 INTRA-LIGAND FREE ENERGY PREDICTED BY IDOCK:    0.14 KCAL/MOL
REMARK 927      BINDING AFFINITY PREDICTED BY RF-SCORE:    0.00 PKD
ROOT
HETATM    1  C   UNL     1      -9.680   9.806  70.027  1.00  0.00    -0.292 C  
HETATM    2  C   UNL     1      -8.986   9.230  68.802  1.00  0.00    -0.132 C  
ENDROOT
BRANCH   2   3
HETATM    3  O   UNL     1      -8.560   7.892  69.092  1.00  0.00    -0.135 OA 
BRANCH   3   4
HETATM    4  C   UNL     1      -7.901   7.737  70.272  1.00  0.00    -0.091 C  
HETATM    5  O   UNL     1      -6.772   8.177  70.478  1.00  0.00    -0.037 OA 
HETATM    6  N   UNL     1      -8.696   7.145  71.257  1.00  0.00    -0.128 N  
HETATM    7  C   UNL     1      -8.379   7.302  72.602  1.00  0.00    -0.107 C  
HETATM    8  C   UNL     1      -9.315   6.735  73.368  1.00  0.00    -0.148 C  
HETATM    9  N   UNL     1     -10.269   6.155  72.562  1.00  0.00    -0.182 N  
HETATM   10  C   UNL     1      -9.918   6.362  71.191  1.00  0.00    -0.180 C  
HETATM   11  C   UNL     1     -11.406   5.415  73.061  1.00  0.00    -0.293 C  
HETATM   12  S   UNL     1     -10.736   5.781  69.864  1.00  0.00    -0.336 S  
ENDBRANCH   3   4
ENDBRANCH   2   3
TORSDOF 2
ENDMDL
MODEL      212
REMARK 921   NORMALIZED FREE ENERGY PREDICTED BY IDOCK:   -1.62 KCAL/MOL
REMARK 922        TOTAL FREE ENERGY PREDICTED BY IDOCK:   -1.91 KCAL/MOL
REMARK 923 INTER-LIGAND FREE ENERGY PREDICTED BY IDOCK:   -1.96 KCAL/MOL
REMARK 924 INTRA-LIGAND FREE ENERGY PREDICTED BY IDOCK:    0.05 KCAL/MOL
REMARK 927      BINDING AFFINITY PREDICTED BY RF-SCORE:    0.00 PKD
ROOT
HETATM    1  C   UNL     1     -11.255   9.061  71.244  1.00  0.00    -0.385 C  
HETATM    2  C   UNL     1      -9.833   9.421  70.841  1.00  0.00    -0.268 C  
ENDROOT
BRANCH   2   3
HETATM    3  O   UNL     1      -9.364   8.469  69.878  1.00  0.00    -0.156 OA 
BRANCH   3   4
HETATM    4  C   UNL     1      -9.748   8.706  68.595  1.00  0.00    -0.163 C  
HETATM    5  O   UNL     1     -10.775   8.244  68.101  1.00  0.00    -0.151 OA 
HETATM    6  N   UNL     1      -8.925   9.633  67.949  1.00  0.00    -0.119 N  
HETATM    7  C   UNL     1      -9.388  10.325  66.835  1.00  0.00    -0.158 C  
HETATM    8  C   UNL     1      -8.478  11.219  66.435  1.00  0.00    -0.169 C  
HETATM    9  N   UNL     1      -7.371  11.131  67.248  1.00  0.00    -0.111 N  
HETATM   10  C   UNL     1      -7.583  10.113  68.229  1.00  0.00    -0.087 C  
HETATM   11  C   UNL     1      -6.176  11.926  67.071  1.00  0.00    -0.145 C  
HETATM   12  S   UNL     1      -6.492   9.606  69.378  1.00  0.00    -0.045 S  
ENDBRANCH   3   4
ENDBRANCH   2   3
TORSDOF 2
ENDMDL
MODEL      213
REMARK 921   NORMALIZED FREE ENERGY PREDICTED BY IDOCK:   -1.62 KCAL/MOL
REMARK 922        TOTAL FREE ENERGY PREDICTED BY IDOCK:   -1.90 KCAL/MOL
REMARK 923 INTER-LIGAND FREE ENERGY PREDICTED BY IDOCK:   -1.93 KCAL/MOL
REMARK 924 INTRA-LIGAND FREE ENERGY PREDICTED BY IDOCK:    0.03 KCAL/MOL
REMARK 927      BINDING AFFINITY PREDICTED BY RF-SCORE:    0.00 PKD
ROOT
HETATM    1  C   UNL     1     -11.527  10.516  68.575  1.00  0.00    -0.284 C  
HETATM    2  C   UNL     1     -10.227   9.739  68.720  1.00  0.00    -0.194 C  
ENDROOT
BRANCH   2   3
HETATM    3  O   UNL     1     -10.499   8.487  69.362  1.00  0.00    -0.217 OA 
BRANCH   3   4
HETATM    4  C   UNL     1     -10.200   8.439  70.688  1.00  0.00    -0.194 C  
HETATM    5  O   UNL     1     -10.859   9.017  71.550  1.00  0.00    -0.292 OA 
HETATM    6  N   UNL     1      -9.151   7.560  70.972  1.00  0.00    -0.148 N  
HETATM    7  C   UNL     1      -8.996   7.045  72.254  1.00  0.00    -0.133 C  
HETATM    8  C   UNL     1      -7.993   6.161  72.280  1.00  0.00    -0.105 C  
HETATM    9  N   UNL     1      -7.429   6.082  71.027  1.00  0.00    -0.089 N  
HETATM   10  C   UNL     1      -8.112   6.975  70.143  1.00  0.00    -0.130 C  
HETATM   11  C   UNL     1      -6.289   5.252  70.707  1.00  0.00    -0.023 C  
HETATM   12  S   UNL     1      -7.734   7.267  68.549  1.00  0.00    -0.122 S  
ENDBRANCH   3   4
ENDBRANCH   2   3
TORSDOF 2
ENDMDL
MODEL      214
REMARK 921   NORMALIZED FREE ENERGY PREDICTED BY IDOCK:   -1.61 KCAL/MOL
REMARK 922        TOTAL FREE ENERGY PREDICTED BY IDOCK:   -1.90 KCAL/MOL
REMARK 923 INTER-LIGAND FREE ENERGY PREDICTED BY IDOCK:   -1.83 KCAL/MOL
REMARK 924 INTRA-LIGAND FREE ENERGY PREDICTED BY IDOCK:   -0.07 KCAL/MOL
REMARK 927      BINDING AFFINITY PREDICTED BY RF-SCORE:    0.00 PKD
ROOT
HETATM    1  C   UNL     1      -8.589   3.225  63.484  1.00  0.00    -0.089 C  
HETATM    2  C   UNL     1      -8.230   3.552  64.926  1.00  0.00    -0.090 C  
ENDROOT
BRANCH   2   3
HETATM    3  O   UNL     1      -8.528   4.930  65.182  1.00  0.00    -0.127 OA 
BRANCH   3   4
HETATM    4  C   UNL     1      -9.690   5.156  65.850  1.00  0.00    -0.140 C  
HETATM    5  O   UNL     1     -10.510   4.274  66.098  1.00  0.00    -0.163 OA 
HETATM    6  N   UNL     1      -9.786   6.463  66.337  1.00  0.00    -0.132 N  
HETATM    7  C   UNL     1     -10.648   6.759  67.388  1.00  0.00    -0.302 C  
HETATM    8  C   UNL     1     -10.514   8.038  67.751  1.00  0.00    -0.214 C  
HETATM    9  N   UNL     1      -9.583   8.643  66.937  1.00  0.00    -0.177 N  
HETATM   10  C   UNL     1      -9.092   7.691  65.989  1.00  0.00    -0.105 C  
HETATM   11  C   UNL     1      -9.223  10.041  67.023  1.00  0.00    -0.146 C  
HETATM   12  S   UNL     1      -8.008   7.987  64.763  1.00  0.00    -0.142 S  
ENDBRANCH   3   4
ENDBRANCH   2   3
TORSDOF 2
ENDMDL
MODEL      215
REMARK 921   NORMALIZED FREE ENERGY PREDICTED BY IDOCK:   -1.61 KCAL/MOL
REMARK 922        TOTAL FREE ENERGY PREDICTED BY IDOCK:   -1.90 KCAL/MOL
REMARK 923 INTER-LIGAND FREE ENERGY PREDICTED BY IDOCK:   -1.81 KCAL/MOL
REMARK 924 INTRA-LIGAND FREE ENERGY PREDICTED BY IDOCK:   -0.08 KCAL/MOL
REMARK 927      BINDING AFFINITY PREDICTED BY RF-SCORE:    0.00 PKD
ROOT
HETATM    1  C   UNL     1      -8.563   7.747  71.579  1.00  0.00    -0.133 C  
HETATM    2  C   UNL     1      -9.465   7.615  70.361  1.00  0.00    -0.164 C  
ENDROOT
BRANCH   2   3
HETATM    3  O   UNL     1      -9.185   8.689  69.453  1.00  0.00    -0.148 OA 
BRANCH   3   4
HETATM    4  C   UNL     1      -9.653   8.513  68.188  1.00  0.00    -0.143 C  
HETATM    5  O   UNL     1     -10.089   7.442  67.771  1.00  0.00    -0.164 OA 
HETATM    6  N   UNL     1      -9.706   9.708  67.464  1.00  0.00    -0.153 N  
HETATM    7  C   UNL     1     -10.540   9.819  66.356  1.00  0.00    -0.047 C  
HETATM    8  C   UNL     1     -10.504  11.064  65.873  1.00  0.00    -0.240 C  
HETATM    9  N   UNL     1      -9.624  11.814  66.621  1.00  0.00    -0.200 N  
HETATM   10  C   UNL     1      -9.058  10.994  67.647  1.00  0.00    -0.145 C  
HETATM   11  C   UNL     1      -9.308  13.198  66.347  1.00  0.00    -0.179 C  
HETATM   12  S   UNL     1      -7.896  11.450  68.746  1.00  0.00    -0.099 S  
ENDBRANCH   3   4
ENDBRANCH   2   3
TORSDOF 2
ENDMDL
MODEL      216
REMARK 921   NORMALIZED FREE ENERGY PREDICTED BY IDOCK:   -1.61 KCAL/MOL
REMARK 922        TOTAL FREE ENERGY PREDICTED BY IDOCK:   -1.89 KCAL/MOL
REMARK 923 INTER-LIGAND FREE ENERGY PREDICTED BY IDOCK:   -1.72 KCAL/MOL
REMARK 924 INTRA-LIGAND FREE ENERGY PREDICTED BY IDOCK:   -0.17 KCAL/MOL
REMARK 927      BINDING AFFINITY PREDICTED BY RF-SCORE:    0.00 PKD
ROOT
HETATM    1  C   UNL     1      -6.210   4.846  69.560  1.00  0.00    -0.026 C  
HETATM    2  C   UNL     1      -6.601   6.271  69.197  1.00  0.00    -0.048 C  
ENDROOT
BRANCH   2   3
HETATM    3  O   UNL     1      -6.889   6.998  70.399  1.00  0.00    -0.055 OA 
BRANCH   3   4
HETATM    4  C   UNL     1      -7.565   8.165  70.221  1.00  0.00    -0.080 C  
HETATM    5  O   UNL     1      -7.042   9.189  69.786  1.00  0.00    -0.055 OA 
HETATM    6  N   UNL     1      -8.936   8.034  70.459  1.00  0.00    -0.150 N  
HETATM    7  C   UNL     1      -9.832   8.951  69.920  1.00  0.00    -0.182 C  
HETATM    8  C   UNL     1     -11.088   8.587  70.194  1.00  0.00    -0.188 C  
HETATM    9  N   UNL     1     -11.071   7.436  70.948  1.00  0.00    -0.257 N  
HETATM   10  C   UNL     1      -9.716   7.039  71.175  1.00  0.00    -0.172 C  
HETATM   11  C   UNL     1     -12.258   6.788  71.459  1.00  0.00    -0.366 C  
HETATM   12  S   UNL     1      -9.205   5.749  72.092  1.00  0.00    -0.145 S  
ENDBRANCH   3   4
ENDBRANCH   2   3
TORSDOF 2
ENDMDL
MODEL      217
REMARK 921   NORMALIZED FREE ENERGY PREDICTED BY IDOCK:   -1.58 KCAL/MOL
REMARK 922        TOTAL FREE ENERGY PREDICTED BY IDOCK:   -1.86 KCAL/MOL
REMARK 923 INTER-LIGAND FREE ENERGY PREDICTED BY IDOCK:   -1.72 KCAL/MOL
REMARK 924 INTRA-LIGAND FREE ENERGY PREDICTED BY IDOCK:   -0.14 KCAL/MOL
REMARK 927      BINDING AFFINITY PREDICTED BY RF-SCORE:    0.00 PKD
ROOT
HETATM    1  C   UNL     1      -8.139   5.123  69.145  1.00  0.00    -0.084 C  
HETATM    2  C   UNL     1      -7.058   5.818  68.330  1.00  0.00    -0.077 C  
ENDROOT
BRANCH   2   3
HETATM    3  O   UNL     1      -7.570   7.064  67.841  1.00  0.00    -0.105 OA 
BRANCH   3   4
HETATM    4  C   UNL     1      -7.452   8.115  68.696  1.00  0.00    -0.098 C  
HETATM    5  O   UNL     1      -6.564   8.199  69.544  1.00  0.00    -0.037 OA 
HETATM    6  N   UNL     1      -8.361   9.140  68.419  1.00  0.00    -0.119 N  
HETATM    7  C   UNL     1      -8.116  10.433  68.867  1.00  0.00    -0.129 C  
HETATM    8  C   UNL     1      -9.059  11.266  68.415  1.00  0.00    -0.170 C  
HETATM    9  N   UNL     1      -9.977  10.551  67.679  1.00  0.00    -0.169 N  
HETATM   10  C   UNL     1      -9.599   9.172  67.662  1.00  0.00    -0.149 C  
HETATM   11  C   UNL     1     -11.157  11.132  67.078  1.00  0.00    -0.273 C  
HETATM   12  S   UNL     1     -10.445   7.925  66.956  1.00  0.00    -0.305 S  
ENDBRANCH   3   4
ENDBRANCH   2   3
TORSDOF 2
ENDMDL
MODEL      218
REMARK 921   NORMALIZED FREE ENERGY PREDICTED BY IDOCK:   -1.57 KCAL/MOL
REMARK 922        TOTAL FREE ENERGY PREDICTED BY IDOCK:   -1.85 KCAL/MOL
REMARK 923 INTER-LIGAND FREE ENERGY PREDICTED BY IDOCK:   -1.73 KCAL/MOL
REMARK 924 INTRA-LIGAND FREE ENERGY PREDICTED BY IDOCK:   -0.12 KCAL/MOL
REMARK 927      BINDING AFFINITY PREDICTED BY RF-SCORE:    0.00 PKD
ROOT
HETATM    1  C   UNL     1      -5.762   4.680  68.777  1.00  0.00    -0.020 C  
HETATM    2  C   UNL     1      -6.204   3.781  69.922  1.00  0.00    -0.027 C  
ENDROOT
BRANCH   2   3
HETATM    3  O   UNL     1      -7.617   3.561  69.827  1.00  0.00    -0.048 OA 
BRANCH   3   4
HETATM    4  C   UNL     1      -8.230   3.222  70.992  1.00  0.00    -0.062 C  
HETATM    5  O   UNL     1      -7.819   2.336  71.739  1.00  0.00    -0.044 OA 
HETATM    6  N   UNL     1      -9.291   4.075  71.310  1.00  0.00    -0.132 N  
HETATM    7  C   UNL     1      -9.740   4.176  72.622  1.00  0.00    -0.144 C  
HETATM    8  C   UNL     1     -10.693   5.109  72.715  1.00  0.00    -0.241 C  
HETATM    9  N   UNL     1     -10.930   5.637  71.466  1.00  0.00    -0.234 N  
HETATM   10  C   UNL     1     -10.077   4.999  70.512  1.00  0.00    -0.253 C  
HETATM   11  C   UNL     1     -11.933   6.643  71.193  1.00  0.00    -0.357 C  
HETATM   12  S   UNL     1     -10.062   5.263  68.870  1.00  0.00    -0.169 S  
ENDBRANCH   3   4
ENDBRANCH   2   3
TORSDOF 2
ENDMDL
MODEL      219
REMARK 921   NORMALIZED FREE ENERGY PREDICTED BY IDOCK:   -1.57 KCAL/MOL
REMARK 922        TOTAL FREE ENERGY PREDICTED BY IDOCK:   -1.84 KCAL/MOL
REMARK 923 INTER-LIGAND FREE ENERGY PREDICTED BY IDOCK:   -1.92 KCAL/MOL
REMARK 924 INTRA-LIGAND FREE ENERGY PREDICTED BY IDOCK:    0.08 KCAL/MOL
REMARK 927      BINDING AFFINITY PREDICTED BY RF-SCORE:    0.00 PKD
ROOT
HETATM    1  C   UNL     1     -11.753   9.878  71.456  1.00  0.00    -0.414 C  
HETATM    2  C   UNL     1     -11.778   9.099  70.149  1.00  0.00     0.065 C  
ENDROOT
BRANCH   2   3
HETATM    3  O   UNL     1     -10.435   8.769  69.775  1.00  0.00    -0.211 OA 
BRANCH   3   4
HETATM    4  C   UNL     1      -9.797   9.705  69.022  1.00  0.00    -0.182 C  
HETATM    5  O   UNL     1      -9.681  10.881  69.363  1.00  0.00    -0.131 OA 
HETATM    6  N   UNL     1      -9.177   9.158  67.895  1.00  0.00    -0.134 N  
HETATM    7  C   UNL     1      -8.139   9.838  67.267  1.00  0.00    -0.117 C  
HETATM    8  C   UNL     1      -7.636   9.099  66.274  1.00  0.00    -0.092 C  
HETATM    9  N   UNL     1      -8.339   7.919  66.188  1.00  0.00    -0.120 N  
HETATM   10  C   UNL     1      -9.362   7.903  67.188  1.00  0.00    -0.153 C  
HETATM   11  C   UNL     1      -8.088   6.900  65.193  1.00  0.00    -0.132 C  
HETATM   12  S   UNL     1     -10.501   6.713  67.417  1.00  0.00    -0.304 S  
ENDBRANCH   3   4
ENDBRANCH   2   3
TORSDOF 2
ENDMDL
MODEL      220
REMARK 921   NORMALIZED FREE ENERGY PREDICTED BY IDOCK:   -1.56 KCAL/MOL
REMARK 922        TOTAL FREE ENERGY PREDICTED BY IDOCK:   -1.84 KCAL/MOL
REMARK 923 INTER-LIGAND FREE ENERGY PREDICTED BY IDOCK:   -1.63 KCAL/MOL
REMARK 924 INTRA-LIGAND FREE ENERGY PREDICTED BY IDOCK:   -0.21 KCAL/MOL
REMARK 927      BINDING AFFINITY PREDICTED BY RF-SCORE:    0.00 PKD
ROOT
HETATM    1  C   UNL     1     -10.179   7.594  66.650  1.00  0.00    -0.272 C  
HETATM    2  C   UNL     1      -8.785   7.918  66.135  1.00  0.00    -0.158 C  
ENDROOT
BRANCH   2   3
HETATM    3  O   UNL     1      -7.823   7.575  67.140  1.00  0.00    -0.112 OA 
BRANCH   3   4
HETATM    4  C   UNL     1      -7.502   8.577  68.001  1.00  0.00    -0.097 C  
HETATM    5  O   UNL     1      -7.027   9.652  67.639  1.00  0.00    -0.084 OA 
HETATM    6  N   UNL     1      -7.893   8.304  69.315  1.00  0.00    -0.106 N  
HETATM    7  C   UNL     1      -8.059   9.341  70.227  1.00  0.00    -0.154 C  
HETATM    8  C   UNL     1      -8.521   8.866  71.388  1.00  0.00    -0.153 C  
HETATM    9  N   UNL     1      -8.648   7.498  71.298  1.00  0.00    -0.120 N  
HETATM   10  C   UNL     1      -8.237   7.069  69.997  1.00  0.00    -0.133 C  
HETATM   11  C   UNL     1      -9.082   6.655  72.390  1.00  0.00    -0.135 C  
HETATM   12  S   UNL     1      -8.154   5.498  69.457  1.00  0.00    -0.102 S  
ENDBRANCH   3   4
ENDBRANCH   2   3
TORSDOF 2
ENDMDL
MODEL      221
REMARK 921   NORMALIZED FREE ENERGY PREDICTED BY IDOCK:   -1.54 KCAL/MOL
REMARK 922        TOTAL FREE ENERGY PREDICTED BY IDOCK:   -1.82 KCAL/MOL
REMARK 923 INTER-LIGAND FREE ENERGY PREDICTED BY IDOCK:   -1.84 KCAL/MOL
REMARK 924 INTRA-LIGAND FREE ENERGY PREDICTED BY IDOCK:    0.03 KCAL/MOL
REMARK 927      BINDING AFFINITY PREDICTED BY RF-SCORE:    0.00 PKD
ROOT
HETATM    1  C   UNL     1     -10.576   4.049  72.667  1.00  0.00    -0.186 C  
HETATM    2  C   UNL     1      -9.841   5.340  72.337  1.00  0.00    -0.162 C  
ENDROOT
BRANCH   2   3
HETATM    3  O   UNL     1     -10.698   6.179  71.553  1.00  0.00    -0.234 OA 
BRANCH   3   4
HETATM    4  C   UNL     1     -10.182   7.396  71.233  1.00  0.00    -0.188 C  
HETATM    5  O   UNL     1     -10.386   8.412  71.895  1.00  0.00    -0.233 OA 
HETATM    6  N   UNL     1      -9.293   7.337  70.155  1.00  0.00    -0.155 N  
HETATM    7  C   UNL     1      -8.352   8.343  69.966  1.00  0.00    -0.123 C  
HETATM    8  C   UNL     1      -7.552   8.042  68.939  1.00  0.00    -0.099 C  
HETATM    9  N   UNL     1      -7.951   6.844  68.392  1.00  0.00    -0.121 N  
HETATM   10  C   UNL     1      -9.082   6.348  69.113  1.00  0.00    -0.131 C  
HETATM   11  C   UNL     1      -7.331   6.239  67.234  1.00  0.00    -0.083 C  
HETATM   12  S   UNL     1      -9.946   4.968  68.768  1.00  0.00    -0.128 S  
ENDBRANCH   3   4
ENDBRANCH   2   3
TORSDOF 2
ENDMDL
MODEL      222
REMARK 921   NORMALIZED FREE ENERGY PREDICTED BY IDOCK:   -1.53 KCAL/MOL
REMARK 922        TOTAL FREE ENERGY PREDICTED BY IDOCK:   -1.80 KCAL/MOL
REMARK 923 INTER-LIGAND FREE ENERGY PREDICTED BY IDOCK:   -1.68 KCAL/MOL
REMARK 924 INTRA-LIGAND FREE ENERGY PREDICTED BY IDOCK:   -0.12 KCAL/MOL
REMARK 927      BINDING AFFINITY PREDICTED BY RF-SCORE:    0.00 PKD
ROOT
HETATM    1  C   UNL     1      -5.446   9.252  64.007  1.00  0.00    -0.061 C  
HETATM    2  C   UNL     1      -6.863   9.679  64.363  1.00  0.00    -0.111 C  
ENDROOT
BRANCH   2   3
HETATM    3  O   UNL     1      -7.272   8.996  65.555  1.00  0.00    -0.083 OA 
BRANCH   3   4
HETATM    4  C   UNL     1      -8.282   8.100  65.390  1.00  0.00    -0.146 C  
HETATM    5  O   UNL     1      -8.389   7.376  64.402  1.00  0.00    -0.048 OA 
HETATM    6  N   UNL     1      -9.102   8.001  66.518  1.00  0.00    -0.164 N  
HETATM    7  C   UNL     1      -9.884   6.868  66.718  1.00  0.00    -0.181 C  
HETATM    8  C   UNL     1     -10.514   6.942  67.894  1.00  0.00    -0.212 C  
HETATM    9  N   UNL     1     -10.197   8.137  68.501  1.00  0.00    -0.204 N  
HETATM   10  C   UNL     1      -9.311   8.876  67.657  1.00  0.00    -0.136 C  
HETATM   11  C   UNL     1     -10.740   8.565  69.771  1.00  0.00    -0.213 C  
HETATM   12  S   UNL     1      -8.719  10.404  67.945  1.00  0.00    -0.119 S  
ENDBRANCH   3   4
ENDBRANCH   2   3
TORSDOF 2
ENDMDL
MODEL      223
REMARK 921   NORMALIZED FREE ENERGY PREDICTED BY IDOCK:   -1.51 KCAL/MOL
REMARK 922        TOTAL FREE ENERGY PREDICTED BY IDOCK:   -1.78 KCAL/MOL
REMARK 923 INTER-LIGAND FREE ENERGY PREDICTED BY IDOCK:   -1.60 KCAL/MOL
REMARK 924 INTRA-LIGAND FREE ENERGY PREDICTED BY IDOCK:   -0.17 KCAL/MOL
REMARK 927      BINDING AFFINITY PREDICTED BY RF-SCORE:    0.00 PKD
ROOT
HETATM    1  C   UNL     1      -5.518   3.924  69.293  1.00  0.00    -0.012 C  
HETATM    2  C   UNL     1      -6.251   3.337  70.490  1.00  0.00    -0.023 C  
ENDROOT
BRANCH   2   3
HETATM    3  O   UNL     1      -7.660   3.348  70.227  1.00  0.00    -0.044 OA 
BRANCH   3   4
HETATM    4  C   UNL     1      -8.371   4.279  70.918  1.00  0.00    -0.079 C  
HETATM    5  O   UNL     1      -8.269   4.442  72.133  1.00  0.00    -0.102 OA 
HETATM    6  N   UNL     1      -9.121   5.112  70.083  1.00  0.00    -0.125 N  
HETATM    7  C   UNL     1      -9.543   6.359  70.533  1.00  0.00    -0.165 C  
HETATM    8  C   UNL     1     -10.161   7.021  69.550  1.00  0.00    -0.199 C  
HETATM    9  N   UNL     1     -10.199   6.227  68.426  1.00  0.00    -0.156 N  
HETATM   10  C   UNL     1      -9.567   4.975  68.708  1.00  0.00    -0.150 C  
HETATM   11  C   UNL     1     -10.835   6.614  67.186  1.00  0.00    -0.401 C  
HETATM   12  S   UNL     1      -9.439   3.679  67.674  1.00  0.00    -0.148 S  
ENDBRANCH   3   4
ENDBRANCH   2   3
TORSDOF 2
ENDMDL
MODEL      224
REMARK 921   NORMALIZED FREE ENERGY PREDICTED BY IDOCK:   -1.50 KCAL/MOL
REMARK 922        TOTAL FREE ENERGY PREDICTED BY IDOCK:   -1.77 KCAL/MOL
REMARK 923 INTER-LIGAND FREE ENERGY PREDICTED BY IDOCK:   -1.63 KCAL/MOL
REMARK 924 INTRA-LIGAND FREE ENERGY PREDICTED BY IDOCK:   -0.14 KCAL/MOL
REMARK 927      BINDING AFFINITY PREDICTED BY RF-SCORE:    0.00 PKD
ROOT
HETATM    1  C   UNL     1      -9.947   3.488  63.020  1.00  0.00    -0.140 C  
HETATM    2  C   UNL     1     -10.422   3.806  64.430  1.00  0.00    -0.216 C  
ENDROOT
BRANCH   2   3
HETATM    3  O   UNL     1      -9.320   4.314  65.193  1.00  0.00    -0.147 OA 
BRANCH   3   4
HETATM    4  C   UNL     1      -8.937   3.539  66.243  1.00  0.00    -0.144 C  
HETATM    5  O   UNL     1      -8.648   2.349  66.135  1.00  0.00    -0.100 OA 
HETATM    6  N   UNL     1      -8.780   4.272  67.423  1.00  0.00    -0.104 N  
HETATM    7  C   UNL     1      -7.992   3.776  68.457  1.00  0.00    -0.070 C  
HETATM    8  C   UNL     1      -7.907   4.672  69.444  1.00  0.00    -0.062 C  
HETATM    9  N   UNL     1      -8.657   5.779  69.116  1.00  0.00    -0.110 N  
HETATM   10  C   UNL     1      -9.265   5.577  67.837  1.00  0.00    -0.108 C  
HETATM   11  C   UNL     1      -8.823   6.926  69.980  1.00  0.00    -0.142 C  
HETATM   12  S   UNL     1     -10.313   6.614  67.068  1.00  0.00    -0.284 S  
ENDBRANCH   3   4
ENDBRANCH   2   3
TORSDOF 2
ENDMDL
MODEL      225
REMARK 921   NORMALIZED FREE ENERGY PREDICTED BY IDOCK:   -1.49 KCAL/MOL
REMARK 922        TOTAL FREE ENERGY PREDICTED BY IDOCK:   -1.76 KCAL/MOL
REMARK 923 INTER-LIGAND FREE ENERGY PREDICTED BY IDOCK:   -1.97 KCAL/MOL
REMARK 924 INTRA-LIGAND FREE ENERGY PREDICTED BY IDOCK:    0.21 KCAL/MOL
REMARK 927      BINDING AFFINITY PREDICTED BY RF-SCORE:    0.00 PKD
ROOT
HETATM    1  C   UNL     1     -10.078   9.891  69.795  1.00  0.00    -0.274 C  
HETATM    2  C   UNL     1     -10.025  10.207  68.308  1.00  0.00    -0.148 C  
ENDROOT
BRANCH   2   3
HETATM    3  O   UNL     1      -9.263  11.405  68.111  1.00  0.00    -0.164 OA 
BRANCH   3   4
HETATM    4  C   UNL     1      -7.983  11.215  67.693  1.00  0.00    -0.116 C  
HETATM    5  O   UNL     1      -7.010  11.282  68.443  1.00  0.00    -0.063 OA 
HETATM    6  N   UNL     1      -7.907  10.806  66.358  1.00  0.00    -0.143 N  
HETATM    7  C   UNL     1      -6.774  10.150  65.889  1.00  0.00    -0.107 C  
HETATM    8  C   UNL     1      -6.951   9.771  64.620  1.00  0.00    -0.124 C  
HETATM    9  N   UNL     1      -8.191  10.188  64.193  1.00  0.00    -0.161 N  
HETATM   10  C   UNL     1      -8.850  10.882  65.256  1.00  0.00    -0.167 C  
HETATM   11  C   UNL     1      -8.694   9.984  62.852  1.00  0.00    -0.211 C  
HETATM   12  S   UNL     1     -10.337  11.622  65.180  1.00  0.00    -0.291 S  
ENDBRANCH   3   4
ENDBRANCH   2   3
TORSDOF 2
ENDMDL
MODEL      226
REMARK 921   NORMALIZED FREE ENERGY PREDICTED BY IDOCK:   -1.45 KCAL/MOL
REMARK 922        TOTAL FREE ENERGY PREDICTED BY IDOCK:   -1.71 KCAL/MOL
REMARK 923 INTER-LIGAND FREE ENERGY PREDICTED BY IDOCK:   -1.51 KCAL/MOL
REMARK 924 INTRA-LIGAND FREE ENERGY PREDICTED BY IDOCK:   -0.20 KCAL/MOL
REMARK 927      BINDING AFFINITY PREDICTED BY RF-SCORE:    0.00 PKD
ROOT
HETATM    1  C   UNL     1      -7.122  10.388  66.016  1.00  0.00    -0.133 C  
HETATM    2  C   UNL     1      -7.149   9.990  67.485  1.00  0.00    -0.087 C  
ENDROOT
BRANCH   2   3
HETATM    3  O   UNL     1      -7.930  10.945  68.214  1.00  0.00    -0.110 OA 
BRANCH   3   4
HETATM    4  C   UNL     1      -7.278  11.570  69.231  1.00  0.00    -0.048 C  
HETATM    5  O   UNL     1      -6.855  10.982  70.224  1.00  0.00    -0.217 OA 
HETATM    6  N   UNL     1      -7.028  12.919  68.961  1.00  0.00    -0.088 N  
HETATM    7  C   UNL     1      -6.022  13.595  69.642  1.00  0.00    -0.115 C  
HETATM    8  C   UNL     1      -5.895  14.838  69.167  1.00  0.00    -0.099 C  
HETATM    9  N   UNL     1      -6.830  15.040  68.177  1.00  0.00    -0.119 N  
HETATM   10  C   UNL     1      -7.608  13.852  68.011  1.00  0.00    -0.144 C  
HETATM   11  C   UNL     1      -7.003  16.292  67.475  1.00  0.00    -0.156 C  
HETATM   12  S   UNL     1      -8.899  13.653  66.981  1.00  0.00    -0.192 S  
ENDBRANCH   3   4
ENDBRANCH   2   3
TORSDOF 2
ENDMDL
MODEL      227
REMARK 921   NORMALIZED FREE ENERGY PREDICTED BY IDOCK:   -1.44 KCAL/MOL
REMARK 922        TOTAL FREE ENERGY PREDICTED BY IDOCK:   -1.70 KCAL/MOL
REMARK 923 INTER-LIGAND FREE ENERGY PREDICTED BY IDOCK:   -1.60 KCAL/MOL
REMARK 924 INTRA-LIGAND FREE ENERGY PREDICTED BY IDOCK:   -0.10 KCAL/MOL
REMARK 927      BINDING AFFINITY PREDICTED BY RF-SCORE:    0.00 PKD
ROOT
HETATM    1  C   UNL     1     -10.727   3.220  62.677  1.00  0.00    -0.182 C  
HETATM    2  C   UNL     1      -9.777   3.094  63.859  1.00  0.00    -0.145 C  
ENDROOT
BRANCH   2   3
HETATM    3  O   UNL     1      -9.208   4.380  64.141  1.00  0.00    -0.153 OA 
BRANCH   3   4
HETATM    4  C   UNL     1      -9.527   4.899  65.356  1.00  0.00    -0.123 C  
HETATM    5  O   UNL     1     -10.329   4.374  66.126  1.00  0.00    -0.242 OA 
HETATM    6  N   UNL     1      -8.748   6.012  65.687  1.00  0.00    -0.153 N  
HETATM    7  C   UNL     1      -8.607   6.400  67.015  1.00  0.00    -0.112 C  
HETATM    8  C   UNL     1      -7.754   7.424  67.110  1.00  0.00    -0.115 C  
HETATM    9  N   UNL     1      -7.322   7.771  65.850  1.00  0.00    -0.072 N  
HETATM   10  C   UNL     1      -7.943   6.917  64.885  1.00  0.00    -0.124 C  
HETATM   11  C   UNL     1      -6.423   8.870  65.580  1.00  0.00    -0.067 C  
HETATM   12  S   UNL     1      -7.777   7.010  63.233  1.00  0.00    -0.109 S  
ENDBRANCH   3   4
ENDBRANCH   2   3
TORSDOF 2
ENDMDL
MODEL      228
REMARK 921   NORMALIZED FREE ENERGY PREDICTED BY IDOCK:   -1.42 KCAL/MOL
REMARK 922        TOTAL FREE ENERGY PREDICTED BY IDOCK:   -1.67 KCAL/MOL
REMARK 923 INTER-LIGAND FREE ENERGY PREDICTED BY IDOCK:   -1.80 KCAL/MOL
REMARK 924 INTRA-LIGAND FREE ENERGY PREDICTED BY IDOCK:    0.12 KCAL/MOL
REMARK 927      BINDING AFFINITY PREDICTED BY RF-SCORE:    0.00 PKD
ROOT
HETATM    1  C   UNL     1      -6.948   3.763  67.896  1.00  0.00    -0.051 C  
HETATM    2  C   UNL     1      -8.230   2.952  68.021  1.00  0.00    -0.077 C  
ENDROOT
BRANCH   2   3
HETATM    3  O   UNL     1      -9.342   3.849  68.130  1.00  0.00    -0.147 OA 
BRANCH   3   4
HETATM    4  C   UNL     1      -9.324   4.901  67.269  1.00  0.00    -0.131 C  
HETATM    5  O   UNL     1      -9.094   4.786  66.066  1.00  0.00    -0.124 OA 
HETATM    6  N   UNL     1      -9.725   6.097  67.872  1.00  0.00    -0.114 N  
HETATM    7  C   UNL     1     -10.191   7.152  67.095  1.00  0.00    -0.257 C  
HETATM    8  C   UNL     1     -10.602   8.156  67.876  1.00  0.00    -0.147 C  
HETATM    9  N   UNL     1     -10.397   7.816  69.194  1.00  0.00    -0.213 N  
HETATM   10  C   UNL     1      -9.812   6.512  69.261  1.00  0.00    -0.148 C  
HETATM   11  C   UNL     1     -10.689   8.690  70.308  1.00  0.00    -0.227 C  
HETATM   12  S   UNL     1      -9.325   5.718  70.639  1.00  0.00    -0.161 S  
ENDBRANCH   3   4
ENDBRANCH   2   3
TORSDOF 2
ENDMDL
MODEL      229
REMARK 921   NORMALIZED FREE ENERGY PREDICTED BY IDOCK:   -1.41 KCAL/MOL
REMARK 922        TOTAL FREE ENERGY PREDICTED BY IDOCK:   -1.67 KCAL/MOL
REMARK 923 INTER-LIGAND FREE ENERGY PREDICTED BY IDOCK:   -1.55 KCAL/MOL
REMARK 924 INTRA-LIGAND FREE ENERGY PREDICTED BY IDOCK:   -0.11 KCAL/MOL
REMARK 927      BINDING AFFINITY PREDICTED BY RF-SCORE:    0.00 PKD
ROOT
HETATM    1  C   UNL     1      -9.776   3.048  63.983  1.00  0.00    -0.148 C  
HETATM    2  C   UNL     1      -8.906   3.662  65.070  1.00  0.00    -0.123 C  
ENDROOT
BRANCH   2   3
HETATM    3  O   UNL     1      -9.271   5.038  65.239  1.00  0.00    -0.159 OA 
BRANCH   3   4
HETATM    4  C   UNL     1      -8.320   5.938  64.871  1.00  0.00    -0.115 C  
HETATM    5  O   UNL     1      -7.493   5.724  63.987  1.00  0.00    -0.059 OA 
HETATM    6  N   UNL     1      -8.472   7.173  65.509  1.00  0.00    -0.132 N  
HETATM    7  C   UNL     1      -7.907   8.319  64.961  1.00  0.00    -0.126 C  
HETATM    8  C   UNL     1      -8.250   9.393  65.679  1.00  0.00    -0.120 C  
HETATM    9  N   UNL     1      -9.028   8.996  66.743  1.00  0.00    -0.132 N  
HETATM   10  C   UNL     1      -9.189   7.575  66.706  1.00  0.00    -0.156 C  
HETATM   11  C   UNL     1      -9.538   9.898  67.750  1.00  0.00    -0.141 C  
HETATM   12  S   UNL     1      -9.991   6.643  67.827  1.00  0.00    -0.142 S  
ENDBRANCH   3   4
ENDBRANCH   2   3
TORSDOF 2
ENDMDL
MODEL      230
REMARK 921   NORMALIZED FREE ENERGY PREDICTED BY IDOCK:   -1.40 KCAL/MOL
REMARK 922        TOTAL FREE ENERGY PREDICTED BY IDOCK:   -1.65 KCAL/MOL
REMARK 923 INTER-LIGAND FREE ENERGY PREDICTED BY IDOCK:   -1.74 KCAL/MOL
REMARK 924 INTRA-LIGAND FREE ENERGY PREDICTED BY IDOCK:    0.08 KCAL/MOL
REMARK 927      BINDING AFFINITY PREDICTED BY RF-SCORE:    0.00 PKD
ROOT
HETATM    1  C   UNL     1     -10.112   5.965  69.493  1.00  0.00    -0.262 C  
HETATM    2  C   UNL     1      -9.267   7.148  69.045  1.00  0.00    -0.135 C  
ENDROOT
BRANCH   2   3
HETATM    3  O   UNL     1     -10.126   8.263  68.778  1.00  0.00    -0.189 OA 
BRANCH   3   4
HETATM    4  C   UNL     1      -9.631   9.476  69.142  1.00  0.00    -0.170 C  
HETATM    5  O   UNL     1      -9.892  10.018  70.215  1.00  0.00    -0.227 OA 
HETATM    6  N   UNL     1      -8.696   9.972  68.230  1.00  0.00    -0.118 N  
HETATM    7  C   UNL     1      -7.776  10.939  68.623  1.00  0.00    -0.122 C  
HETATM    8  C   UNL     1      -6.925  11.200  67.627  1.00  0.00    -0.084 C  
HETATM    9  N   UNL     1      -7.265  10.442  66.530  1.00  0.00    -0.111 N  
HETATM   10  C   UNL     1      -8.412   9.646  66.843  1.00  0.00    -0.120 C  
HETATM   11  C   UNL     1      -6.579  10.507  65.260  1.00  0.00    -0.060 C  
HETATM   12  S   UNL     1      -9.220   8.628  65.805  1.00  0.00    -0.139 S  
ENDBRANCH   3   4
ENDBRANCH   2   3
TORSDOF 2
ENDMDL
MODEL      231
REMARK 921   NORMALIZED FREE ENERGY PREDICTED BY IDOCK:   -1.38 KCAL/MOL
REMARK 922        TOTAL FREE ENERGY PREDICTED BY IDOCK:   -1.63 KCAL/MOL
REMARK 923 INTER-LIGAND FREE ENERGY PREDICTED BY IDOCK:   -1.48 KCAL/MOL
REMARK 924 INTRA-LIGAND FREE ENERGY PREDICTED BY IDOCK:   -0.16 KCAL/MOL
REMARK 927      BINDING AFFINITY PREDICTED BY RF-SCORE:    0.00 PKD
ROOT
HETATM    1  C   UNL     1     -10.661   3.484  63.558  1.00  0.00    -0.263 C  
HETATM    2  C   UNL     1      -9.783   3.319  64.790  1.00  0.00    -0.131 C  
ENDROOT
BRANCH   2   3
HETATM    3  O   UNL     1      -9.246   4.596  65.156  1.00  0.00    -0.151 OA 
BRANCH   3   4
HETATM    4  C   UNL     1      -9.718   5.110  66.323  1.00  0.00    -0.174 C  
HETATM    5  O   UNL     1     -10.814   5.659  66.426  1.00  0.00    -0.253 OA 
HETATM    6  N   UNL     1      -8.886   4.829  67.411  1.00  0.00    -0.103 N  
HETATM    7  C   UNL     1      -9.389   4.869  68.707  1.00  0.00    -0.135 C  
HETATM    8  C   UNL     1      -8.453   4.481  69.579  1.00  0.00    -0.076 C  
HETATM    9  N   UNL     1      -7.291   4.198  68.898  1.00  0.00    -0.055 N  
HETATM   10  C   UNL     1      -7.494   4.424  67.500  1.00  0.00    -0.073 C  
HETATM   11  C   UNL     1      -6.060   3.790  69.538  1.00  0.00    -0.027 C  
HETATM   12  S   UNL     1      -6.351   4.282  66.301  1.00  0.00    -0.033 S  
ENDBRANCH   3   4
ENDBRANCH   2   3
TORSDOF 2
ENDMDL
MODEL      232
REMARK 921   NORMALIZED FREE ENERGY PREDICTED BY IDOCK:   -1.34 KCAL/MOL
REMARK 922        TOTAL FREE ENERGY PREDICTED BY IDOCK:   -1.59 KCAL/MOL
REMARK 923 INTER-LIGAND FREE ENERGY PREDICTED BY IDOCK:   -1.47 KCAL/MOL
REMARK 924 INTRA-LIGAND FREE ENERGY PREDICTED BY IDOCK:   -0.12 KCAL/MOL
REMARK 927      BINDING AFFINITY PREDICTED BY RF-SCORE:    0.00 PKD
ROOT
HETATM    1  C   UNL     1      -5.611  10.707  65.460  1.00  0.00    -0.135 C  
HETATM    2  C   UNL     1      -5.578   9.228  65.817  1.00  0.00    -0.045 C  
ENDROOT
BRANCH   2   3
HETATM    3  O   UNL     1      -6.914   8.712  65.797  1.00  0.00    -0.073 OA 
BRANCH   3   4
HETATM    4  C   UNL     1      -7.413   8.349  67.010  1.00  0.00    -0.088 C  
HETATM    5  O   UNL     1      -7.152   8.946  68.053  1.00  0.00    -0.077 OA 
HETATM    6  N   UNL     1      -8.351   7.317  66.919  1.00  0.00    -0.116 N  
HETATM    7  C   UNL     1      -9.273   7.116  67.942  1.00  0.00    -0.129 C  
HETATM    8  C   UNL     1     -10.127   6.143  67.610  1.00  0.00    -0.155 C  
HETATM    9  N   UNL     1      -9.785   5.645  66.373  1.00  0.00    -0.157 N  
HETATM   10  C   UNL     1      -8.636   6.341  65.883  1.00  0.00    -0.148 C  
HETATM   11  C   UNL     1     -10.474   4.550  65.727  1.00  0.00    -0.233 C  
HETATM   12  S   UNL     1      -7.826   6.032  64.463  1.00  0.00    -0.116 S  
ENDBRANCH   3   4
ENDBRANCH   2   3
TORSDOF 2
ENDMDL
MODEL      233
REMARK 921   NORMALIZED FREE ENERGY PREDICTED BY IDOCK:   -1.34 KCAL/MOL
REMARK 922        TOTAL FREE ENERGY PREDICTED BY IDOCK:   -1.58 KCAL/MOL
REMARK 923 INTER-LIGAND FREE ENERGY PREDICTED BY IDOCK:   -1.44 KCAL/MOL
REMARK 924 INTRA-LIGAND FREE ENERGY PREDICTED BY IDOCK:   -0.15 KCAL/MOL
REMARK 927      BINDING AFFINITY PREDICTED BY RF-SCORE:    0.00 PKD
ROOT
HETATM    1  C   UNL     1      -8.946   6.386  69.224  1.00  0.00    -0.133 C  
HETATM    2  C   UNL     1      -9.905   7.274  68.446  1.00  0.00    -0.155 C  
ENDROOT
BRANCH   2   3
HETATM    3  O   UNL     1      -9.938   6.843  67.079  1.00  0.00    -0.169 OA 
BRANCH   3   4
HETATM    4  C   UNL     1      -9.109   7.518  66.239  1.00  0.00    -0.157 C  
HETATM    5  O   UNL     1      -8.901   8.727  66.322  1.00  0.00    -0.139 OA 
HETATM    6  N   UNL     1      -8.424   6.671  65.363  1.00  0.00    -0.138 N  
HETATM    7  C   UNL     1      -7.245   7.094  64.757  1.00  0.00    -0.072 C  
HETATM    8  C   UNL     1      -6.713   6.101  64.038  1.00  0.00    -0.037 C  
HETATM    9  N   UNL     1      -7.532   4.997  64.115  1.00  0.00    -0.062 N  
HETATM   10  C   UNL     1      -8.663   5.304  64.934  1.00  0.00    -0.122 C  
HETATM   11  C   UNL     1      -7.280   3.756  63.419  1.00  0.00    -0.050 C  
HETATM   12  S   UNL     1      -9.951   4.302  65.254  1.00  0.00    -0.203 S  
ENDBRANCH   3   4
ENDBRANCH   2   3
TORSDOF 2
ENDMDL
MODEL      234
REMARK 921   NORMALIZED FREE ENERGY PREDICTED BY IDOCK:   -1.33 KCAL/MOL
REMARK 922        TOTAL FREE ENERGY PREDICTED BY IDOCK:   -1.58 KCAL/MOL
REMARK 923 INTER-LIGAND FREE ENERGY PREDICTED BY IDOCK:   -1.43 KCAL/MOL
REMARK 924 INTRA-LIGAND FREE ENERGY PREDICTED BY IDOCK:   -0.16 KCAL/MOL
REMARK 927      BINDING AFFINITY PREDICTED BY RF-SCORE:    0.00 PKD
ROOT
HETATM    1  C   UNL     1      -7.767   4.748  68.924  1.00  0.00    -0.072 C  
HETATM    2  C   UNL     1      -7.646   4.103  67.552  1.00  0.00    -0.069 C  
ENDROOT
BRANCH   2   3
HETATM    3  O   UNL     1      -8.229   4.973  66.573  1.00  0.00    -0.108 OA 
BRANCH   3   4
HETATM    4  C   UNL     1      -7.341   5.607  65.761  1.00  0.00    -0.073 C  
HETATM    5  O   UNL     1      -6.350   5.058  65.283  1.00  0.00    -0.033 OA 
HETATM    6  N   UNL     1      -7.748   6.902  65.427  1.00  0.00    -0.100 N  
HETATM    7  C   UNL     1      -7.233   7.529  64.297  1.00  0.00    -0.079 C  
HETATM    8  C   UNL     1      -7.822   8.715  64.116  1.00  0.00    -0.141 C  
HETATM    9  N   UNL     1      -8.724   8.931  65.134  1.00  0.00    -0.186 N  
HETATM   10  C   UNL     1      -8.708   7.812  66.025  1.00  0.00    -0.161 C  
HETATM   11  C   UNL     1      -9.508  10.137  65.275  1.00  0.00    -0.248 C  
HETATM   12  S   UNL     1      -9.580   7.660  67.434  1.00  0.00    -0.157 S  
ENDBRANCH   3   4
ENDBRANCH   2   3
TORSDOF 2
ENDMDL
MODEL      235
REMARK 921   NORMALIZED FREE ENERGY PREDICTED BY IDOCK:   -1.32 KCAL/MOL
REMARK 922        TOTAL FREE ENERGY PREDICTED BY IDOCK:   -1.56 KCAL/MOL
REMARK 923 INTER-LIGAND FREE ENERGY PREDICTED BY IDOCK:   -1.45 KCAL/MOL
REMARK 924 INTRA-LIGAND FREE ENERGY PREDICTED BY IDOCK:   -0.11 KCAL/MOL
REMARK 927      BINDING AFFINITY PREDICTED BY RF-SCORE:    0.00 PKD
ROOT
HETATM    1  C   UNL     1      -6.392  11.946  69.585  1.00  0.00    -0.124 C  
HETATM    2  C   UNL     1      -7.575  11.166  69.031  1.00  0.00    -0.119 C  
ENDROOT
BRANCH   2   3
HETATM    3  O   UNL     1      -7.655   9.900  69.698  1.00  0.00    -0.101 OA 
BRANCH   3   4
HETATM    4  C   UNL     1      -8.856   9.268  69.599  1.00  0.00    -0.155 C  
HETATM    5  O   UNL     1      -9.928   9.809  69.863  1.00  0.00    -0.217 OA 
HETATM    6  N   UNL     1      -8.747   7.992  69.040  1.00  0.00    -0.137 N  
HETATM    7  C   UNL     1      -9.856   7.384  68.458  1.00  0.00    -0.159 C  
HETATM    8  C   UNL     1      -9.509   6.216  67.909  1.00  0.00    -0.115 C  
HETATM    9  N   UNL     1      -8.169   5.993  68.132  1.00  0.00    -0.113 N  
HETATM   10  C   UNL     1      -7.624   7.087  68.875  1.00  0.00    -0.104 C  
HETATM   11  C   UNL     1      -7.469   4.799  67.711  1.00  0.00    -0.078 C  
HETATM   12  S   UNL     1      -6.063   7.219  69.434  1.00  0.00    -0.031 S  
ENDBRANCH   3   4
ENDBRANCH   2   3
TORSDOF 2
ENDMDL
MODEL      236
REMARK 921   NORMALIZED FREE ENERGY PREDICTED BY IDOCK:   -1.24 KCAL/MOL
REMARK 922        TOTAL FREE ENERGY PREDICTED BY IDOCK:   -1.48 KCAL/MOL
REMARK 923 INTER-LIGAND FREE ENERGY PREDICTED BY IDOCK:   -1.32 KCAL/MOL
REMARK 924 INTRA-LIGAND FREE ENERGY PREDICTED BY IDOCK:   -0.16 KCAL/MOL
REMARK 927      BINDING AFFINITY PREDICTED BY RF-SCORE:    0.00 PKD
ROOT
HETATM    1  C   UNL     1      -9.625   7.474  66.215  1.00  0.00    -0.134 C  
HETATM    2  C   UNL     1      -8.151   7.634  65.876  1.00  0.00    -0.122 C  
ENDROOT
BRANCH   2   3
HETATM    3  O   UNL     1      -7.378   6.788  66.736  1.00  0.00    -0.078 OA 
BRANCH   3   4
HETATM    4  C   UNL     1      -7.255   7.223  68.018  1.00  0.00    -0.091 C  
HETATM    5  O   UNL     1      -6.745   8.301  68.320  1.00  0.00    -0.062 OA 
HETATM    6  N   UNL     1      -7.886   6.378  68.936  1.00  0.00    -0.108 N  
HETATM    7  C   UNL     1      -8.252   6.854  70.190  1.00  0.00    -0.133 C  
HETATM    8  C   UNL     1      -8.918   5.914  70.867  1.00  0.00    -0.146 C  
HETATM    9  N   UNL     1      -8.991   4.773  70.100  1.00  0.00    -0.096 N  
HETATM   10  C   UNL     1      -8.326   4.997  68.853  1.00  0.00    -0.083 C  
HETATM   11  C   UNL     1      -9.607   3.542  70.542  1.00  0.00    -0.176 C  
HETATM   12  S   UNL     1      -8.100   3.881  67.641  1.00  0.00    -0.090 S  
ENDBRANCH   3   4
ENDBRANCH   2   3
TORSDOF 2
ENDMDL
MODEL      237
REMARK 921   NORMALIZED FREE ENERGY PREDICTED BY IDOCK:   -1.18 KCAL/MOL
REMARK 922        TOTAL FREE ENERGY PREDICTED BY IDOCK:   -1.41 KCAL/MOL
REMARK 923 INTER-LIGAND FREE ENERGY PREDICTED BY IDOCK:   -2.02 KCAL/MOL
REMARK 924 INTRA-LIGAND FREE ENERGY PREDICTED BY IDOCK:    0.61 KCAL/MOL
REMARK 927      BINDING AFFINITY PREDICTED BY RF-SCORE:    0.00 PKD
ROOT
HETATM    1  C   UNL     1      -8.688   9.380  65.006  1.00  0.00    -0.216 C  
HETATM    2  C   UNL     1      -9.606  10.546  64.668  1.00  0.00    -0.292 C  
ENDROOT
BRANCH   2   3
HETATM    3  O   UNL     1      -9.971  11.221  65.879  1.00  0.00    -0.216 OA 
BRANCH   3   4
HETATM    4  C   UNL     1      -9.735  10.524  67.023  1.00  0.00    -0.177 C  
HETATM    5  O   UNL     1     -10.210   9.413  67.248  1.00  0.00    -0.212 OA 
HETATM    6  N   UNL     1      -8.795  11.148  67.849  1.00  0.00    -0.133 N  
HETATM    7  C   UNL     1      -8.107  10.412  68.808  1.00  0.00    -0.125 C  
HETATM    8  C   UNL     1      -7.199  11.180  69.417  1.00  0.00    -0.091 C  
HETATM    9  N   UNL     1      -7.273  12.457  68.908  1.00  0.00    -0.093 N  
HETATM   10  C   UNL     1      -8.297  12.510  67.911  1.00  0.00    -0.167 C  
HETATM   11  C   UNL     1      -6.461  13.559  69.373  1.00  0.00    -0.103 C  
HETATM   12  S   UNL     1      -8.791  13.861  67.075  1.00  0.00    -0.190 S  
ENDBRANCH   3   4
ENDBRANCH   2   3
TORSDOF 2
ENDMDL
MODEL      238
REMARK 921   NORMALIZED FREE ENERGY PREDICTED BY IDOCK:   -1.13 KCAL/MOL
REMARK 922        TOTAL FREE ENERGY PREDICTED BY IDOCK:   -1.36 KCAL/MOL
REMARK 923 INTER-LIGAND FREE ENERGY PREDICTED BY IDOCK:   -1.22 KCAL/MOL
REMARK 924 INTRA-LIGAND FREE ENERGY PREDICTED BY IDOCK:   -0.14 KCAL/MOL
REMARK 927      BINDING AFFINITY PREDICTED BY RF-SCORE:    0.00 PKD
ROOT
HETATM    1  C   UNL     1      -6.339  10.260  68.948  1.00  0.00    -0.047 C  
HETATM    2  C   UNL     1      -6.651   9.061  69.832  1.00  0.00    -0.042 C  
ENDROOT
BRANCH   2   3
HETATM    3  O   UNL     1      -8.057   8.790  69.774  1.00  0.00    -0.103 OA 
BRANCH   3   4
HETATM    4  C   UNL     1      -8.404   7.678  69.071  1.00  0.00    -0.128 C  
HETATM    5  O   UNL     1      -8.515   7.661  67.846  1.00  0.00    -0.122 OA 
HETATM    6  N   UNL     1      -8.487   6.537  69.874  1.00  0.00    -0.134 N  
HETATM    7  C   UNL     1      -8.387   5.272  69.306  1.00  0.00    -0.091 C  
HETATM    8  C   UNL     1      -8.401   4.335  70.259  1.00  0.00    -0.065 C  
HETATM    9  N   UNL     1      -8.541   4.941  71.487  1.00  0.00    -0.120 N  
HETATM   10  C   UNL     1      -8.626   6.358  71.308  1.00  0.00    -0.127 C  
HETATM   11  C   UNL     1      -8.637   4.220  72.737  1.00  0.00    -0.101 C  
HETATM   12  S   UNL     1      -8.870   7.490  72.502  1.00  0.00    -0.141 S  
ENDBRANCH   3   4
ENDBRANCH   2   3
TORSDOF 2
ENDMDL
MODEL      239
REMARK 921   NORMALIZED FREE ENERGY PREDICTED BY IDOCK:   -0.72 KCAL/MOL
REMARK 922        TOTAL FREE ENERGY PREDICTED BY IDOCK:   -0.89 KCAL/MOL
REMARK 923 INTER-LIGAND FREE ENERGY PREDICTED BY IDOCK:   -1.62 KCAL/MOL
REMARK 924 INTRA-LIGAND FREE ENERGY PREDICTED BY IDOCK:    0.73 KCAL/MOL
REMARK 927      BINDING AFFINITY PREDICTED BY RF-SCORE:    0.00 PKD
ROOT
HETATM    1  C   UNL     1      -8.828  11.283  62.615  1.00  0.00    -0.259 C  
HETATM    2  C   UNL     1      -9.731  10.187  63.161  1.00  0.00    -0.046 C  
ENDROOT
BRANCH   2   3
HETATM    3  O   UNL     1      -9.561  10.105  64.582  1.00  0.00    -0.278 OA 
BRANCH   3   4
HETATM    4  C   UNL     1      -8.287   9.878  65.001  1.00  0.00    -0.148 C  
HETATM    5  O   UNL     1      -7.314   9.908  64.250  1.00  0.00    -0.125 OA 
HETATM    6  N   UNL     1      -8.193   9.741  66.389  1.00  0.00    -0.119 N  
HETATM    7  C   UNL     1      -6.977   9.946  67.032  1.00  0.00    -0.088 C  
HETATM    8  C   UNL     1      -7.134   9.854  68.357  1.00  0.00    -0.072 C  
HETATM    9  N   UNL     1      -8.448   9.555  68.637  1.00  0.00    -0.117 N  
HETATM   10  C   UNL     1      -9.179   9.445  67.412  1.00  0.00    -0.126 C  
HETATM   11  C   UNL     1      -8.960   9.341  69.972  1.00  0.00    -0.198 C  
HETATM   12  S   UNL     1     -10.782   9.029  67.254  1.00  0.00    -0.041 S  
ENDBRANCH   3   4
ENDBRANCH   2   3
TORSDOF 2
ENDMDL
MODEL      240
REMARK 921   NORMALIZED FREE ENERGY PREDICTED BY IDOCK:   -0.60 KCAL/MOL
REMARK 922        TOTAL FREE ENERGY PREDICTED BY IDOCK:   -0.76 KCAL/MOL
REMARK 923 INTER-LIGAND FREE ENERGY PREDICTED BY IDOCK:   -1.53 KCAL/MOL
REMARK 924 INTRA-LIGAND FREE ENERGY PREDICTED BY IDOCK:    0.77 KCAL/MOL
REMARK 927      BINDING AFFINITY PREDICTED BY RF-SCORE:    0.00 PKD
ROOT
HETATM    1  C   UNL     1     -10.205  10.652  65.027  1.00  0.00    -0.380 C  
HETATM    2  C   UNL     1      -8.998  11.094  65.841  1.00  0.00    -0.199 C  
ENDROOT
BRANCH   2   3
HETATM    3  O   UNL     1      -7.862  10.309  65.459  1.00  0.00    -0.142 OA 
BRANCH   3   4
HETATM    4  C   UNL     1      -8.117   8.991  65.238  1.00  0.00    -0.126 C  
HETATM    5  O   UNL     1      -8.531   8.554  64.166  1.00  0.00    -0.137 OA 
HETATM    6  N   UNL     1      -7.732   8.181  66.310  1.00  0.00    -0.092 N  
HETATM    7  C   UNL     1      -7.498   6.824  66.114  1.00  0.00    -0.081 C  
HETATM    8  C   UNL     1      -7.056   6.263  67.244  1.00  0.00    -0.073 C  
HETATM    9  N   UNL     1      -7.009   7.218  68.234  1.00  0.00    -0.073 N  
HETATM   10  C   UNL     1      -7.454   8.470  67.705  1.00  0.00    -0.097 C  
HETATM   11  C   UNL     1      -6.616   6.946  69.599  1.00  0.00    -0.048 C  
HETATM   12  S   UNL     1      -7.633   9.891  68.551  1.00  0.00    -0.081 S  
ENDBRANCH   3   4
ENDBRANCH   2   3
TORSDOF 2
ENDMDL
MODEL      241
REMARK 921   NORMALIZED FREE ENERGY PREDICTED BY IDOCK:   -0.57 KCAL/MOL
REMARK 922        TOTAL FREE ENERGY PREDICTED BY IDOCK:   -0.73 KCAL/MOL
REMARK 923 INTER-LIGAND FREE ENERGY PREDICTED BY IDOCK:   -0.60 KCAL/MOL
REMARK 924 INTRA-LIGAND FREE ENERGY PREDICTED BY IDOCK:   -0.12 KCAL/MOL
REMARK 927      BINDING AFFINITY PREDICTED BY RF-SCORE:    0.00 PKD
ROOT
HETATM    1  C   UNL     1      -7.486  12.882  69.277  1.00  0.00     0.312 C  
HETATM    2  C   UNL     1      -7.213  11.453  68.833  1.00  0.00    -0.113 C  
ENDROOT
BRANCH   2   3
HETATM    3  O   UNL     1      -8.228  11.048  67.905  1.00  0.00    -0.114 OA 
BRANCH   3   4
HETATM    4  C   UNL     1      -7.812  10.902  66.619  1.00  0.00    -0.145 C  
HETATM    5  O   UNL     1      -7.265  11.800  65.980  1.00  0.00     0.322 OA 
HETATM    6  N   UNL     1      -7.951   9.592  66.153  1.00  0.00    -0.107 N  
HETATM    7  C   UNL     1      -7.200   9.149  65.069  1.00  0.00    -0.096 C  
HETATM    8  C   UNL     1      -7.422   7.849  64.852  1.00  0.00    -0.082 C  
HETATM    9  N   UNL     1      -8.348   7.391  65.762  1.00  0.00    -0.134 N  
HETATM   10  C   UNL     1      -8.748   8.469  66.614  1.00  0.00    -0.125 C  
HETATM   11  C   UNL     1      -8.854   6.037  65.786  1.00  0.00    -0.135 C  
HETATM   12  S   UNL     1      -9.898   8.403  67.814  1.00  0.00    -0.186 S  
ENDBRANCH   3   4
ENDBRANCH   2   3
TORSDOF 2
ENDMDL
MODEL      242
REMARK 921   NORMALIZED FREE ENERGY PREDICTED BY IDOCK:   -0.17 KCAL/MOL
REMARK 922        TOTAL FREE ENERGY PREDICTED BY IDOCK:   -0.28 KCAL/MOL
REMARK 923 INTER-LIGAND FREE ENERGY PREDICTED BY IDOCK:   -0.23 KCAL/MOL
REMARK 924 INTRA-LIGAND FREE ENERGY PREDICTED BY IDOCK:   -0.06 KCAL/MOL
REMARK 927      BINDING AFFINITY PREDICTED BY RF-SCORE:    0.00 PKD
ROOT
HETATM    1  C   UNL     1      -5.790  20.389  68.587  1.00  0.00    -0.337 C  
HETATM    2  C   UNL     1      -6.387  20.614  69.969  1.00  0.00     0.170 C  
ENDROOT
BRANCH   2   3
HETATM    3  O   UNL     1      -6.765  19.349  70.527  1.00  0.00     0.099 OA 
BRANCH   3   4
HETATM    4  C   UNL     1      -5.831  18.765  71.324  1.00  0.00     0.255 C  
HETATM    5  O   UNL     1      -5.270  19.351  72.249  1.00  0.00    -0.578 OA 
HETATM    6  N   UNL     1      -5.678  17.400  71.064  1.00  0.00     0.209 N  
HETATM    7  C   UNL     1      -5.129  16.560  72.026  1.00  0.00     0.673 C  
HETATM    8  C   UNL     1      -5.161  15.292  71.606  1.00  0.00    -0.117 C  
HETATM    9  N   UNL     1      -5.703  15.248  70.342  1.00  0.00    -0.139 N  
HETATM   10  C   UNL     1      -6.036  16.575  69.924  1.00  0.00    -0.201 C  
HETATM   11  C   UNL     1      -5.847  14.036  69.567  1.00  0.00    -0.097 C  
HETATM   12  S   UNL     1      -6.651  17.018  68.443  1.00  0.00    -0.163 S  
ENDBRANCH   3   4
ENDBRANCH   2   3
TORSDOF 2
ENDMDL
MODEL      243
REMARK 921   NORMALIZED FREE ENERGY PREDICTED BY IDOCK:    2.37 KCAL/MOL
REMARK 922        TOTAL FREE ENERGY PREDICTED BY IDOCK:    2.55 KCAL/MOL
REMARK 923 INTER-LIGAND FREE ENERGY PREDICTED BY IDOCK:    1.86 KCAL/MOL
REMARK 924 INTRA-LIGAND FREE ENERGY PREDICTED BY IDOCK:    0.69 KCAL/MOL
REMARK 927      BINDING AFFINITY PREDICTED BY RF-SCORE:    0.00 PKD
ROOT
HETATM    1  C   UNL     1     -12.667  15.221  68.739  1.00  0.00     0.667 C  
HETATM    2  C   UNL     1     -11.797  16.347  68.201  1.00  0.00     0.343 C  
ENDROOT
BRANCH   2   3
HETATM    3  O   UNL     1     -10.419  16.012  68.406  1.00  0.00    -0.245 OA 
BRANCH   3   4
HETATM    4  C   UNL     1      -9.595  16.284  67.358  1.00  0.00    -0.230 C  
HETATM    5  O   UNL     1      -9.026  15.414  66.702  1.00  0.00    -0.242 OA 
HETATM    6  N   UNL     1      -9.574  17.643  67.029  1.00  0.00    -0.267 N  
HETATM    7  C   UNL     1      -9.168  18.051  65.763  1.00  0.00     0.385 C  
HETATM    8  C   UNL     1      -9.311  19.373  65.635  1.00  0.00     0.413 C  
HETATM    9  N   UNL     1      -9.786  19.893  66.818  1.00  0.00    -0.395 N  
HETATM   10  C   UNL     1      -9.954  18.835  67.766  1.00  0.00    -0.350 C  
HETATM   11  C   UNL     1     -10.016  21.302  67.046  1.00  0.00     0.897 C  
HETATM   12  S   UNL     1     -10.439  18.995  69.349  1.00  0.00     0.883 S  
ENDBRANCH   3   4
ENDBRANCH   2   3
TORSDOF 2
ENDMDL
MODEL      244
REMARK 921   NORMALIZED FREE ENERGY PREDICTED BY IDOCK:    6.29 KCAL/MOL
REMARK 922        TOTAL FREE ENERGY PREDICTED BY IDOCK:    6.93 KCAL/MOL
REMARK 923 INTER-LIGAND FREE ENERGY PREDICTED BY IDOCK:    6.76 KCAL/MOL
REMARK 924 INTRA-LIGAND FREE ENERGY PREDICTED BY IDOCK:    0.17 KCAL/MOL
REMARK 927      BINDING AFFINITY PREDICTED BY RF-SCORE:    0.00 PKD
ROOT
HETATM    1  C   UNL     1     -10.624  19.094  72.390  1.00  0.00     3.670 C  
HETATM    2  C   UNL     1     -10.183  17.877  71.592  1.00  0.00     4.656 C  
ENDROOT
BRANCH   2   3
HETATM    3  O   UNL     1     -11.238  17.493  70.701  1.00  0.00     0.994 OA 
BRANCH   3   4
HETATM    4  C   UNL     1     -11.595  16.182  70.757  1.00  0.00    -0.351 C  
HETATM    5  O   UNL     1     -12.341  15.721  71.618  1.00  0.00    -0.392 OA 
HETATM    6  N   UNL     1     -11.131  15.451  69.659  1.00  0.00    -0.255 N  
HETATM    7  C   UNL     1     -11.741  14.251  69.308  1.00  0.00    -0.321 C  
HETATM    8  C   UNL     1     -11.202  13.770  68.184  1.00  0.00    -0.271 C  
HETATM    9  N   UNL     1     -10.199  14.614  67.766  1.00  0.00    -0.228 N  
HETATM   10  C   UNL     1     -10.086  15.705  68.684  1.00  0.00    -0.210 C  
HETATM   11  C   UNL     1      -9.375  14.374  66.603  1.00  0.00    -0.278 C  
HETATM   12  S   UNL     1      -8.966  16.933  68.624  1.00  0.00    -0.258 S  
ENDBRANCH   3   4
ENDBRANCH   2   3
TORSDOF 2
ENDMDL
MODEL      245
REMARK 921   NORMALIZED FREE ENERGY PREDICTED BY IDOCK:   10.69 KCAL/MOL
REMARK 922        TOTAL FREE ENERGY PREDICTED BY IDOCK:   11.84 KCAL/MOL
REMARK 923 INTER-LIGAND FREE ENERGY PREDICTED BY IDOCK:    6.61 KCAL/MOL
REMARK 924 INTRA-LIGAND FREE ENERGY PREDICTED BY IDOCK:    5.23 KCAL/MOL
REMARK 927      BINDING AFFINITY PREDICTED BY RF-SCORE:    0.00 PKD
ROOT
HETATM    1  C   UNL     1      -6.249  20.430  66.775  1.00  0.00    -0.235 C  
HETATM    2  C   UNL     1      -5.383  19.180  66.709  1.00  0.00    -0.162 C  
ENDROOT
BRANCH   2   3
HETATM    3  O   UNL     1      -5.301  18.738  65.348  1.00  0.00    -0.152 OA 
BRANCH   3   4
HETATM    4  C   UNL     1      -6.396  18.078  64.887  1.00  0.00     0.630 C  
HETATM    5  O   UNL     1      -6.798  18.164  63.728  1.00  0.00     3.675 OA 
HETATM    6  N   UNL     1      -6.930  17.195  65.830  1.00  0.00     0.115 N  
HETATM    7  C   UNL     1      -7.739  16.139  65.423  1.00  0.00     3.377 C  
HETATM    8  C   UNL     1      -8.061  15.373  66.470  1.00  0.00     0.013 C  
HETATM    9  N   UNL     1      -7.505  15.908  67.610  1.00  0.00    -0.139 N  
HETATM   10  C   UNL     1      -6.783  17.096  67.271  1.00  0.00    -0.160 C  
HETATM   11  C   UNL     1      -7.690  15.357  68.933  1.00  0.00    -0.165 C  
HETATM   12  S   UNL     1      -6.007  18.115  68.332  1.00  0.00    -0.182 S  
ENDBRANCH   3   4
ENDBRANCH   2   3
TORSDOF 2
ENDMDL
MODEL      246
REMARK 921   NORMALIZED FREE ENERGY PREDICTED BY IDOCK:   18.12 KCAL/MOL
REMARK 922        TOTAL FREE ENERGY PREDICTED BY IDOCK:   20.15 KCAL/MOL
REMARK 923 INTER-LIGAND FREE ENERGY PREDICTED BY IDOCK:   13.23 KCAL/MOL
REMARK 924 INTRA-LIGAND FREE ENERGY PREDICTED BY IDOCK:    6.92 KCAL/MOL
REMARK 927      BINDING AFFINITY PREDICTED BY RF-SCORE:    0.00 PKD
ROOT
HETATM    1  C   UNL     1      -5.662  19.948  63.908  1.00  0.00    -0.316 C  
HETATM    2  C   UNL     1      -5.345  18.678  64.684  1.00  0.00    -0.180 C  
ENDROOT
BRANCH   2   3
HETATM    3  O   UNL     1      -6.001  17.570  64.055  1.00  0.00     2.098 OA 
BRANCH   3   4
HETATM    4  C   UNL     1      -6.872  16.888  64.846  1.00  0.00     4.859 C  
HETATM    5  O   UNL     1      -7.642  16.030  64.419  1.00  0.00     8.009 OA 
HETATM    6  N   UNL     1      -6.702  17.173  66.204  1.00  0.00    -0.176 N  
HETATM    7  C   UNL     1      -7.163  16.284  67.169  1.00  0.00    -0.208 C  
HETATM    8  C   UNL     1      -6.817  16.706  68.389  1.00  0.00    -0.151 C  
HETATM    9  N   UNL     1      -6.143  17.901  68.280  1.00  0.00    -0.174 N  
HETATM   10  C   UNL     1      -6.055  18.270  66.900  1.00  0.00    -0.156 C  
HETATM   11  C   UNL     1      -5.660  18.662  69.411  1.00  0.00    -0.222 C  
HETATM   12  S   UNL     1      -5.389  19.668  66.293  1.00  0.00    -0.159 S  
ENDBRANCH   3   4
ENDBRANCH   2   3
TORSDOF 2
ENDMDL
