MODEL        1
REMARK 921   NORMALIZED FREE ENERGY PREDICTED BY IDOCK:   -6.05 KCAL/MOL
REMARK 922        TOTAL FREE ENERGY PREDICTED BY IDOCK:   -6.97 KCAL/MOL
REMARK 923 INTER-LIGAND FREE ENERGY PREDICTED BY IDOCK:   -6.76 KCAL/MOL
REMARK 924 INTRA-LIGAND FREE ENERGY PREDICTED BY IDOCK:   -0.22 KCAL/MOL
REMARK 927      BINDING AFFINITY PREDICTED BY RF-SCORE:    0.00 PKD
ROOT
HETATM    1  C   UNL     1     -10.752  15.404  66.119  1.00  0.00    -0.316 C  
HETATM    2  C   UNL     1     -10.510  16.773  66.707  1.00  0.00    -0.258 C  
HETATM    3  C   UNL     1     -10.510  17.112  68.018  1.00  0.00    -0.369 C  
HETATM    4  S   UNL     1     -10.026  18.716  68.516  1.00  0.00    -0.391 SA 
HETATM    5  O   UNL     1     -10.193  17.637  65.679  1.00  0.00    -0.593 OA 
HETATM    6  C   UNL     1     -10.481  19.025  65.752  1.00  0.00    -0.309 C  
HETATM    7  C   UNL     1     -10.617  19.681  67.118  1.00  0.00    -0.487 C  
ENDROOT
BRANCH   3   8
HETATM    8  C   UNL     1     -10.761  16.107  69.143  1.00  0.00    -0.292 C  
HETATM    9  N   UNL     1     -12.087  15.748  69.326  1.00  0.00    -0.512 N  
HETATM   10  H   UNL     1     -12.761  16.134  68.664  1.00  0.00     0.000 HD 
HETATM   11  O   UNL     1      -9.839  15.637  69.800  1.00  0.00    -0.281 OA 
BRANCH   9  12
HETATM   12  C   UNL     1     -12.603  14.901  70.339  1.00  0.00    -0.343 A  
HETATM   13  C   UNL     1     -12.370  13.525  70.378  1.00  0.00    -0.397 A  
HETATM   14  C   UNL     1     -12.926  12.733  71.390  1.00  0.00    -0.359 A  
HETATM   15  C   UNL     1     -13.721  13.315  72.371  1.00  0.00    -0.678 A  
HETATM   16  C   UNL     1     -13.943  14.688  72.354  1.00  0.00    -0.578 A  
HETATM   17  C   UNL     1     -13.372  15.483  71.351  1.00  0.00    -0.592 A  
ENDBRANCH   9  12
ENDBRANCH   3   8
TORSDOF 2
ENDMDL
MODEL        2
REMARK 921   NORMALIZED FREE ENERGY PREDICTED BY IDOCK:   -5.97 KCAL/MOL
REMARK 922        TOTAL FREE ENERGY PREDICTED BY IDOCK:   -6.89 KCAL/MOL
REMARK 923 INTER-LIGAND FREE ENERGY PREDICTED BY IDOCK:   -6.59 KCAL/MOL
REMARK 924 INTRA-LIGAND FREE ENERGY PREDICTED BY IDOCK:   -0.30 KCAL/MOL
REMARK 927      BINDING AFFINITY PREDICTED BY RF-SCORE:    0.00 PKD
ROOT
HETATM    1  C   UNL     1      -8.938  14.152  67.446  1.00  0.00    -0.205 C  
HETATM    2  C   UNL     1     -10.179  14.002  66.600  1.00  0.00    -0.275 C  
HETATM    3  C   UNL     1     -11.454  13.866  67.036  1.00  0.00    -0.346 C  
HETATM    4  S   UNL     1     -12.783  13.889  65.900  1.00  0.00    -0.311 SA 
HETATM    5  O   UNL     1      -9.818  14.115  65.273  1.00  0.00    -0.290 OA 
HETATM    6  C   UNL     1     -10.545  13.467  64.241  1.00  0.00    -0.341 C  
HETATM    7  C   UNL     1     -12.006  13.113  64.476  1.00  0.00    -0.389 C  
ENDROOT
BRANCH   3   8
HETATM    8  C   UNL     1     -11.837  13.850  68.516  1.00  0.00    -0.366 C  
HETATM    9  N   UNL     1     -12.156  15.086  69.055  1.00  0.00    -0.543 N  
HETATM   10  H   UNL     1     -12.168  15.877  68.410  1.00  0.00     0.000 HD 
HETATM   11  O   UNL     1     -11.886  12.804  69.154  1.00  0.00    -0.298 OA 
BRANCH   9  12
HETATM   12  C   UNL     1     -12.469  15.365  70.409  1.00  0.00    -0.404 A  
HETATM   13  C   UNL     1     -11.543  15.884  71.317  1.00  0.00    -0.509 A  
HETATM   14  C   UNL     1     -11.903  16.117  72.650  1.00  0.00    -0.609 A  
HETATM   15  C   UNL     1     -13.193  15.831  73.084  1.00  0.00    -0.694 A  
HETATM   16  C   UNL     1     -14.128  15.335  72.183  1.00  0.00    -0.658 A  
HETATM   17  C   UNL     1     -13.774  15.118  70.845  1.00  0.00    -0.352 A  
ENDBRANCH   9  12
ENDBRANCH   3   8
TORSDOF 2
ENDMDL
MODEL        3
REMARK 921   NORMALIZED FREE ENERGY PREDICTED BY IDOCK:   -5.96 KCAL/MOL
REMARK 922        TOTAL FREE ENERGY PREDICTED BY IDOCK:   -6.88 KCAL/MOL
REMARK 923 INTER-LIGAND FREE ENERGY PREDICTED BY IDOCK:   -6.68 KCAL/MOL
REMARK 924 INTRA-LIGAND FREE ENERGY PREDICTED BY IDOCK:   -0.20 KCAL/MOL
REMARK 927      BINDING AFFINITY PREDICTED BY RF-SCORE:    0.00 PKD
ROOT
HETATM    1  C   UNL     1     -10.394  15.639  66.272  1.00  0.00    -0.316 C  
HETATM    2  C   UNL     1     -10.215  16.994  66.912  1.00  0.00    -0.305 C  
HETATM    3  C   UNL     1     -10.296  17.293  68.231  1.00  0.00    -0.361 C  
HETATM    4  S   UNL     1      -9.876  18.891  68.803  1.00  0.00    -0.386 SA 
HETATM    5  O   UNL     1      -9.858  17.895  65.930  1.00  0.00    -0.529 OA 
HETATM    6  C   UNL     1     -10.179  19.274  66.028  1.00  0.00    -0.435 C  
HETATM    7  C   UNL     1     -10.407  19.886  67.401  1.00  0.00    -0.426 C  
ENDROOT
BRANCH   3   8
HETATM    8  C   UNL     1     -10.590  16.250  69.310  1.00  0.00    -0.293 C  
HETATM    9  N   UNL     1     -11.931  15.950  69.489  1.00  0.00    -0.346 N  
HETATM   10  H   UNL     1     -12.589  16.400  68.852  1.00  0.00     0.000 HD 
HETATM   11  O   UNL     1      -9.688  15.704  69.935  1.00  0.00    -0.283 OA 
BRANCH   9  12
HETATM   12  C   UNL     1     -12.482  15.083  70.465  1.00  0.00    -0.371 A  
HETATM   13  C   UNL     1     -13.267  15.530  71.531  1.00  0.00    -0.589 A  
HETATM   14  C   UNL     1     -13.765  14.629  72.480  1.00  0.00    -0.572 A  
HETATM   15  C   UNL     1     -13.479  13.272  72.370  1.00  0.00    -0.670 A  
HETATM   16  C   UNL     1     -12.716  12.814  71.301  1.00  0.00    -0.364 A  
HETATM   17  C   UNL     1     -12.232  13.713  70.342  1.00  0.00    -0.434 A  
ENDBRANCH   9  12
ENDBRANCH   3   8
TORSDOF 2
ENDMDL
MODEL        4
REMARK 921   NORMALIZED FREE ENERGY PREDICTED BY IDOCK:   -5.93 KCAL/MOL
REMARK 922        TOTAL FREE ENERGY PREDICTED BY IDOCK:   -6.84 KCAL/MOL
REMARK 923 INTER-LIGAND FREE ENERGY PREDICTED BY IDOCK:   -6.54 KCAL/MOL
REMARK 924 INTRA-LIGAND FREE ENERGY PREDICTED BY IDOCK:   -0.30 KCAL/MOL
REMARK 927      BINDING AFFINITY PREDICTED BY RF-SCORE:    0.00 PKD
ROOT
HETATM    1  C   UNL     1      -8.943  13.514  67.831  1.00  0.00    -0.200 C  
HETATM    2  C   UNL     1     -10.133  13.608  66.907  1.00  0.00    -0.260 C  
HETATM    3  C   UNL     1     -11.437  13.710  67.259  1.00  0.00    -0.343 C  
HETATM    4  S   UNL     1     -12.661  13.996  66.044  1.00  0.00    -0.306 SA 
HETATM    5  O   UNL     1      -9.671  13.666  65.608  1.00  0.00    -0.209 OA 
HETATM    6  C   UNL     1     -10.438  13.177  64.518  1.00  0.00    -0.405 C  
HETATM    7  C   UNL     1     -11.951  13.103  64.653  1.00  0.00    -0.388 C  
ENDROOT
BRANCH   3   8
HETATM    8  C   UNL     1     -11.911  13.751  68.712  1.00  0.00    -0.363 C  
HETATM    9  N   UNL     1     -12.245  15.009  69.187  1.00  0.00    -0.564 N  
HETATM   10  H   UNL     1     -12.204  15.777  68.517  1.00  0.00     0.000 HD 
HETATM   11  O   UNL     1     -12.016  12.728  69.381  1.00  0.00    -0.301 OA 
BRANCH   9  12
HETATM   12  C   UNL     1     -12.637  15.339  70.509  1.00  0.00    -0.399 A  
HETATM   13  C   UNL     1     -13.933  15.147  70.993  1.00  0.00    -0.383 A  
HETATM   14  C   UNL     1     -14.270  15.514  72.301  1.00  0.00    -0.617 A  
HETATM   15  C   UNL     1     -13.311  16.077  73.136  1.00  0.00    -0.624 A  
HETATM   16  C   UNL     1     -12.011  16.252  72.671  1.00  0.00    -0.644 A  
HETATM   17  C   UNL     1     -11.670  15.869  71.367  1.00  0.00    -0.530 A  
ENDBRANCH   9  12
ENDBRANCH   3   8
TORSDOF 2
ENDMDL
MODEL        5
REMARK 921   NORMALIZED FREE ENERGY PREDICTED BY IDOCK:   -5.62 KCAL/MOL
REMARK 922        TOTAL FREE ENERGY PREDICTED BY IDOCK:   -6.49 KCAL/MOL
REMARK 923 INTER-LIGAND FREE ENERGY PREDICTED BY IDOCK:   -6.33 KCAL/MOL
REMARK 924 INTRA-LIGAND FREE ENERGY PREDICTED BY IDOCK:   -0.16 KCAL/MOL
REMARK 927      BINDING AFFINITY PREDICTED BY RF-SCORE:    0.00 PKD
ROOT
HETATM    1  C   UNL     1     -12.496  11.446  70.763  1.00  0.00    -0.460 C  
HETATM    2  C   UNL     1     -12.599  12.939  70.960  1.00  0.00    -0.287 C  
HETATM    3  C   UNL     1     -12.167  13.907  70.117  1.00  0.00    -0.358 C  
HETATM    4  S   UNL     1     -12.541  15.586  70.434  1.00  0.00    -0.300 SA 
HETATM    5  O   UNL     1     -13.299  13.176  72.125  1.00  0.00    -0.482 OA 
HETATM    6  C   UNL     1     -13.083  14.343  72.904  1.00  0.00    -0.517 C  
HETATM    7  C   UNL     1     -12.524  15.587  72.232  1.00  0.00    -0.393 C  
ENDROOT
BRANCH   3   8
HETATM    8  C   UNL     1     -11.487  13.612  68.780  1.00  0.00    -0.309 C  
HETATM    9  N   UNL     1     -12.345  13.482  67.699  1.00  0.00    -0.285 N  
HETATM   10  H   UNL     1     -13.334  13.654  67.878  1.00  0.00     0.000 HD 
HETATM   11  O   UNL     1     -10.267  13.535  68.685  1.00  0.00    -0.234 OA 
BRANCH   9  12
HETATM   12  C   UNL     1     -11.989  13.136  66.372  1.00  0.00    -0.402 A  
HETATM   13  C   UNL     1     -11.230  12.008  66.053  1.00  0.00    -0.385 A  
HETATM   14  C   UNL     1     -10.887  11.728  64.724  1.00  0.00    -0.358 A  
HETATM   15  C   UNL     1     -11.302  12.578  63.704  1.00  0.00    -0.555 A  
HETATM   16  C   UNL     1     -12.077  13.692  64.009  1.00  0.00    -0.474 A  
HETATM   17  C   UNL     1     -12.434  13.962  65.336  1.00  0.00    -0.528 A  
ENDBRANCH   9  12
ENDBRANCH   3   8
TORSDOF 2
ENDMDL
MODEL        6
REMARK 921   NORMALIZED FREE ENERGY PREDICTED BY IDOCK:   -5.57 KCAL/MOL
REMARK 922        TOTAL FREE ENERGY PREDICTED BY IDOCK:   -6.44 KCAL/MOL
REMARK 923 INTER-LIGAND FREE ENERGY PREDICTED BY IDOCK:   -6.72 KCAL/MOL
REMARK 924 INTRA-LIGAND FREE ENERGY PREDICTED BY IDOCK:    0.29 KCAL/MOL
REMARK 927      BINDING AFFINITY PREDICTED BY RF-SCORE:    0.00 PKD
ROOT
HETATM    1  C   UNL     1     -10.282  16.810  65.980  1.00  0.00    -0.361 C  
HETATM    2  C   UNL     1     -10.808  15.397  66.022  1.00  0.00    -0.314 C  
HETATM    3  C   UNL     1     -11.411  14.778  67.065  1.00  0.00    -0.353 C  
HETATM    4  S   UNL     1     -12.121  13.193  66.864  1.00  0.00    -0.241 SA 
HETATM    5  O   UNL     1     -10.657  14.839  64.768  1.00  0.00    -0.413 OA 
HETATM    6  C   UNL     1     -10.480  13.442  64.587  1.00  0.00    -0.411 C  
HETATM    7  C   UNL     1     -10.996  12.487  65.651  1.00  0.00    -0.288 C  
ENDROOT
BRANCH   3   8
HETATM    8  C   UNL     1     -11.661  15.459  68.411  1.00  0.00    -0.354 C  
HETATM    9  N   UNL     1     -12.164  14.634  69.404  1.00  0.00    -0.511 N  
HETATM   10  H   UNL     1     -12.264  13.646  69.170  1.00  0.00     0.000 HD 
HETATM   11  O   UNL     1     -11.394  16.643  68.590  1.00  0.00    -0.304 OA 
BRANCH   9  12
HETATM   12  C   UNL     1     -12.554  15.021  70.710  1.00  0.00    -0.370 A  
HETATM   13  C   UNL     1     -13.887  15.112  71.116  1.00  0.00    -0.495 A  
HETATM   14  C   UNL     1     -14.214  15.523  72.414  1.00  0.00    -0.571 A  
HETATM   15  C   UNL     1     -13.207  15.848  73.316  1.00  0.00    -0.698 A  
HETATM   16  C   UNL     1     -11.875  15.740  72.930  1.00  0.00    -0.568 A  
HETATM   17  C   UNL     1     -11.548  15.312  71.636  1.00  0.00    -0.473 A  
ENDBRANCH   9  12
ENDBRANCH   3   8
TORSDOF 2
ENDMDL
MODEL        7
REMARK 921   NORMALIZED FREE ENERGY PREDICTED BY IDOCK:   -5.56 KCAL/MOL
REMARK 922        TOTAL FREE ENERGY PREDICTED BY IDOCK:   -6.43 KCAL/MOL
REMARK 923 INTER-LIGAND FREE ENERGY PREDICTED BY IDOCK:   -6.15 KCAL/MOL
REMARK 924 INTRA-LIGAND FREE ENERGY PREDICTED BY IDOCK:   -0.27 KCAL/MOL
REMARK 927      BINDING AFFINITY PREDICTED BY RF-SCORE:    0.00 PKD
ROOT
HETATM    1  C   UNL     1     -12.070  13.066  66.156  1.00  0.00    -0.473 C  
HETATM    2  C   UNL     1     -11.435  14.431  66.057  1.00  0.00    -0.349 C  
HETATM    3  C   UNL     1     -11.011  15.213  67.079  1.00  0.00    -0.322 C  
HETATM    4  S   UNL     1     -10.130  16.688  66.757  1.00  0.00    -0.300 SA 
HETATM    5  O   UNL     1     -11.265  14.736  64.722  1.00  0.00    -0.381 OA 
HETATM    6  C   UNL     1     -11.270  16.076  64.254  1.00  0.00    -0.065 C  
HETATM    7  C   UNL     1     -10.904  17.196  65.214  1.00  0.00    -0.036 C  
ENDROOT
BRANCH   3   8
HETATM    8  C   UNL     1     -11.117  14.801  68.548  1.00  0.00    -0.264 C  
HETATM    9  N   UNL     1     -12.077  15.478  69.282  1.00  0.00    -0.545 N  
HETATM   10  H   UNL     1     -12.662  16.138  68.769  1.00  0.00     0.000 HD 
HETATM   11  O   UNL     1     -10.417  13.908  69.014  1.00  0.00    -0.218 OA 
BRANCH   9  12
HETATM   12  C   UNL     1     -12.330  15.348  70.670  1.00  0.00    -0.403 A  
HETATM   13  C   UNL     1     -13.140  14.346  71.210  1.00  0.00    -0.421 A  
HETATM   14  C   UNL     1     -13.374  14.280  72.589  1.00  0.00    -0.619 A  
HETATM   15  C   UNL     1     -12.798  15.219  73.438  1.00  0.00    -0.667 A  
HETATM   16  C   UNL     1     -11.973  16.208  72.914  1.00  0.00    -0.623 A  
HETATM   17  C   UNL     1     -11.725  16.263  71.536  1.00  0.00    -0.467 A  
ENDBRANCH   9  12
ENDBRANCH   3   8
TORSDOF 2
ENDMDL
MODEL        8
REMARK 921   NORMALIZED FREE ENERGY PREDICTED BY IDOCK:   -5.49 KCAL/MOL
REMARK 922        TOTAL FREE ENERGY PREDICTED BY IDOCK:   -6.35 KCAL/MOL
REMARK 923 INTER-LIGAND FREE ENERGY PREDICTED BY IDOCK:   -6.37 KCAL/MOL
REMARK 924 INTRA-LIGAND FREE ENERGY PREDICTED BY IDOCK:    0.03 KCAL/MOL
REMARK 927      BINDING AFFINITY PREDICTED BY RF-SCORE:    0.00 PKD
ROOT
HETATM    1  C   UNL     1     -12.626  13.698  65.649  1.00  0.00    -0.531 C  
HETATM    2  C   UNL     1     -11.664  12.787  66.370  1.00  0.00    -0.403 C  
HETATM    3  C   UNL     1     -11.226  12.904  67.646  1.00  0.00    -0.278 C  
HETATM    4  S   UNL     1     -10.252  11.643  68.367  1.00  0.00    -0.211 SA 
HETATM    5  O   UNL     1     -11.355  11.732  65.535  1.00  0.00    -0.300 OA 
HETATM    6  C   UNL     1     -10.110  11.054  65.615  1.00  0.00    -0.256 C  
HETATM    7  C   UNL     1      -9.338  11.077  66.925  1.00  0.00    -0.173 C  
ENDROOT
BRANCH   3   8
HETATM    8  C   UNL     1     -11.670  14.028  68.584  1.00  0.00    -0.354 C  
HETATM    9  N   UNL     1     -11.780  13.672  69.918  1.00  0.00    -0.396 N  
HETATM   10  H   UNL     1     -11.500  12.722  70.163  1.00  0.00     0.000 HD 
HETATM   11  O   UNL     1     -11.873  15.164  68.170  1.00  0.00    -0.333 OA 
BRANCH   9  12
HETATM   12  C   UNL     1     -12.241  14.492  70.978  1.00  0.00    -0.339 A  
HETATM   13  C   UNL     1     -11.434  15.428  71.629  1.00  0.00    -0.492 A  
HETATM   14  C   UNL     1     -11.938  16.194  72.687  1.00  0.00    -0.653 A  
HETATM   15  C   UNL     1     -13.255  16.028  73.102  1.00  0.00    -0.633 A  
HETATM   16  C   UNL     1     -14.073  15.115  72.447  1.00  0.00    -0.593 A  
HETATM   17  C   UNL     1     -13.574  14.360  71.377  1.00  0.00    -0.431 A  
ENDBRANCH   9  12
ENDBRANCH   3   8
TORSDOF 2
ENDMDL
MODEL        9
REMARK 921   NORMALIZED FREE ENERGY PREDICTED BY IDOCK:   -5.46 KCAL/MOL
REMARK 922        TOTAL FREE ENERGY PREDICTED BY IDOCK:   -6.32 KCAL/MOL
REMARK 923 INTER-LIGAND FREE ENERGY PREDICTED BY IDOCK:   -6.24 KCAL/MOL
REMARK 924 INTRA-LIGAND FREE ENERGY PREDICTED BY IDOCK:   -0.08 KCAL/MOL
REMARK 927      BINDING AFFINITY PREDICTED BY RF-SCORE:    0.00 PKD
ROOT
HETATM    1  C   UNL     1     -12.752  14.057  65.407  1.00  0.00    -0.499 C  
HETATM    2  C   UNL     1     -11.928  13.317  66.430  1.00  0.00    -0.410 C  
HETATM    3  C   UNL     1     -11.318  13.837  67.522  1.00  0.00    -0.309 C  
HETATM    4  S   UNL     1     -10.558  12.787  68.696  1.00  0.00    -0.199 SA 
HETATM    5  O   UNL     1     -11.963  11.971  66.126  1.00  0.00    -0.581 OA 
HETATM    6  C   UNL     1     -10.895  11.099  66.465  1.00  0.00    -0.245 C  
HETATM    7  C   UNL     1      -9.977  11.467  67.621  1.00  0.00    -0.184 C  
ENDROOT
BRANCH   3   8
HETATM    8  C   UNL     1     -11.386  15.319  67.892  1.00  0.00    -0.334 C  
HETATM    9  N   UNL     1     -10.563  16.150  67.148  1.00  0.00    -0.306 N  
HETATM   10  H   UNL     1     -10.039  15.714  66.390  1.00  0.00     0.000 HD 
HETATM   11  O   UNL     1     -12.146  15.728  68.763  1.00  0.00    -0.314 OA 
BRANCH   9  12
HETATM   12  C   UNL     1     -10.375  17.543  67.333  1.00  0.00    -0.351 A  
HETATM   13  C   UNL     1     -10.112  18.121  68.577  1.00  0.00    -0.413 A  
HETATM   14  C   UNL     1      -9.959  19.507  68.703  1.00  0.00    -0.538 A  
HETATM   15  C   UNL     1     -10.070  20.325  67.584  1.00  0.00    -0.515 A  
HETATM   16  C   UNL     1     -10.311  19.758  66.337  1.00  0.00    -0.619 A  
HETATM   17  C   UNL     1     -10.447  18.369  66.208  1.00  0.00    -0.421 A  
ENDBRANCH   9  12
ENDBRANCH   3   8
TORSDOF 2
ENDMDL
MODEL       10
REMARK 921   NORMALIZED FREE ENERGY PREDICTED BY IDOCK:   -5.39 KCAL/MOL
REMARK 922        TOTAL FREE ENERGY PREDICTED BY IDOCK:   -6.24 KCAL/MOL
REMARK 923 INTER-LIGAND FREE ENERGY PREDICTED BY IDOCK:   -6.42 KCAL/MOL
REMARK 924 INTRA-LIGAND FREE ENERGY PREDICTED BY IDOCK:    0.17 KCAL/MOL
REMARK 927      BINDING AFFINITY PREDICTED BY RF-SCORE:    0.00 PKD
ROOT
HETATM    1  C   UNL     1     -10.778  19.479  65.650  1.00  0.00    -0.420 C  
HETATM    2  C   UNL     1      -9.764  18.641  66.389  1.00  0.00    -0.345 C  
HETATM    3  C   UNL     1      -9.589  17.301  66.301  1.00  0.00    -0.248 C  
HETATM    4  S   UNL     1      -8.237  16.531  67.098  1.00  0.00    -0.196 SA 
HETATM    5  O   UNL     1      -8.956  19.484  67.125  1.00  0.00    -0.287 OA 
HETATM    6  C   UNL     1      -8.336  19.063  68.330  1.00  0.00    -0.348 C  
HETATM    7  C   UNL     1      -8.076  17.580  68.550  1.00  0.00    -0.275 C  
ENDROOT
BRANCH   3   8
HETATM    8  C   UNL     1     -10.432  16.405  65.393  1.00  0.00    -0.311 C  
HETATM    9  N   UNL     1     -10.454  15.065  65.745  1.00  0.00    -0.315 N  
HETATM   10  H   UNL     1      -9.963  14.809  66.602  1.00  0.00     0.000 HD 
HETATM   11  O   UNL     1     -11.065  16.864  64.448  1.00  0.00    -1.128 OA 
BRANCH   9  12
HETATM   12  C   UNL     1     -11.089  14.013  65.037  1.00  0.00    -0.363 A  
HETATM   13  C   UNL     1     -12.465  13.781  65.083  1.00  0.00    -0.483 A  
HETATM   14  C   UNL     1     -13.034  12.712  64.382  1.00  0.00    -0.232 A  
HETATM   15  C   UNL     1     -12.228  11.865  63.628  1.00  0.00    -0.586 A  
HETATM   16  C   UNL     1     -10.859  12.100  63.558  1.00  0.00    -0.518 A  
HETATM   17  C   UNL     1     -10.292  13.180  64.246  1.00  0.00    -0.361 A  
ENDBRANCH   9  12
ENDBRANCH   3   8
TORSDOF 2
ENDMDL
MODEL       11
REMARK 921   NORMALIZED FREE ENERGY PREDICTED BY IDOCK:   -5.39 KCAL/MOL
REMARK 922        TOTAL FREE ENERGY PREDICTED BY IDOCK:   -6.24 KCAL/MOL
REMARK 923 INTER-LIGAND FREE ENERGY PREDICTED BY IDOCK:   -6.05 KCAL/MOL
REMARK 924 INTRA-LIGAND FREE ENERGY PREDICTED BY IDOCK:   -0.19 KCAL/MOL
REMARK 927      BINDING AFFINITY PREDICTED BY RF-SCORE:    0.00 PKD
ROOT
HETATM    1  C   UNL     1     -10.968  16.460  69.924  1.00  0.00    -0.339 C  
HETATM    2  C   UNL     1     -11.912  15.509  70.617  1.00  0.00    -0.378 C  
HETATM    3  C   UNL     1     -12.260  14.263  70.215  1.00  0.00    -0.342 C  
HETATM    4  S   UNL     1     -13.227  13.237  71.249  1.00  0.00    -0.070 SA 
HETATM    5  O   UNL     1     -12.311  16.082  71.808  1.00  0.00    -0.452 OA 
HETATM    6  C   UNL     1     -13.571  15.789  72.394  1.00  0.00    -0.456 C  
HETATM    7  C   UNL     1     -14.254  14.472  72.060  1.00  0.00    -0.544 C  
ENDROOT
BRANCH   3   8
HETATM    8  C   UNL     1     -11.717  13.612  68.942  1.00  0.00    -0.338 C  
HETATM    9  N   UNL     1     -12.167  14.170  67.757  1.00  0.00    -0.569 N  
HETATM   10  H   UNL     1     -12.764  14.993  67.837  1.00  0.00     0.000 HD 
HETATM   11  O   UNL     1     -10.913  12.687  68.989  1.00  0.00    -0.238 OA 
BRANCH   9  12
HETATM   12  C   UNL     1     -11.883  13.715  66.445  1.00  0.00    -0.398 A  
HETATM   13  C   UNL     1     -12.784  12.968  65.682  1.00  0.00    -0.198 A  
HETATM   14  C   UNL     1     -12.439  12.525  64.399  1.00  0.00    -0.530 A  
HETATM   15  C   UNL     1     -11.189  12.826  63.870  1.00  0.00    -0.491 A  
HETATM   16  C   UNL     1     -10.293  13.588  64.613  1.00  0.00    -0.406 A  
HETATM   17  C   UNL     1     -10.644  14.046  65.890  1.00  0.00    -0.302 A  
ENDBRANCH   9  12
ENDBRANCH   3   8
TORSDOF 2
ENDMDL
MODEL       12
REMARK 921   NORMALIZED FREE ENERGY PREDICTED BY IDOCK:   -5.38 KCAL/MOL
REMARK 922        TOTAL FREE ENERGY PREDICTED BY IDOCK:   -6.22 KCAL/MOL
REMARK 923 INTER-LIGAND FREE ENERGY PREDICTED BY IDOCK:   -6.15 KCAL/MOL
REMARK 924 INTRA-LIGAND FREE ENERGY PREDICTED BY IDOCK:   -0.07 KCAL/MOL
REMARK 927      BINDING AFFINITY PREDICTED BY RF-SCORE:    0.00 PKD
ROOT
HETATM    1  C   UNL     1     -12.890  13.948  65.499  1.00  0.00    -0.471 C  
HETATM    2  C   UNL     1     -11.889  13.268  66.400  1.00  0.00    -0.396 C  
HETATM    3  C   UNL     1     -11.155  13.837  67.385  1.00  0.00    -0.296 C  
HETATM    4  S   UNL     1     -10.181  12.847  68.447  1.00  0.00    -0.216 SA 
HETATM    5  O   UNL     1     -11.900  11.916  66.119  1.00  0.00    -0.528 OA 
HETATM    6  C   UNL     1     -10.752  11.103  66.308  1.00  0.00    -0.240 C  
HETATM    7  C   UNL     1      -9.696  11.537  67.314  1.00  0.00    -0.182 C  
ENDROOT
BRANCH   3   8
HETATM    8  C   UNL     1     -11.243  15.321  67.744  1.00  0.00    -0.326 C  
HETATM    9  N   UNL     1     -10.428  16.157  66.997  1.00  0.00    -0.306 N  
HETATM   10  H   UNL     1      -9.895  15.722  66.244  1.00  0.00     0.000 HD 
HETATM   11  O   UNL     1     -12.012  15.726  68.609  1.00  0.00    -0.344 OA 
BRANCH   9  12
HETATM   12  C   UNL     1     -10.259  17.553  67.173  1.00  0.00    -0.323 A  
HETATM   13  C   UNL     1     -10.410  18.478  66.137  1.00  0.00    -0.457 A  
HETATM   14  C   UNL     1     -10.207  19.845  66.364  1.00  0.00    -0.617 A  
HETATM   15  C   UNL     1      -9.851  20.296  67.631  1.00  0.00    -0.563 A  
HETATM   16  C   UNL     1      -9.719  19.385  68.674  1.00  0.00    -0.504 A  
HETATM   17  C   UNL     1      -9.939  18.020  68.451  1.00  0.00    -0.382 A  
ENDBRANCH   9  12
ENDBRANCH   3   8
TORSDOF 2
ENDMDL
MODEL       13
REMARK 921   NORMALIZED FREE ENERGY PREDICTED BY IDOCK:   -5.36 KCAL/MOL
REMARK 922        TOTAL FREE ENERGY PREDICTED BY IDOCK:   -6.20 KCAL/MOL
REMARK 923 INTER-LIGAND FREE ENERGY PREDICTED BY IDOCK:   -6.25 KCAL/MOL
REMARK 924 INTRA-LIGAND FREE ENERGY PREDICTED BY IDOCK:    0.05 KCAL/MOL
REMARK 927      BINDING AFFINITY PREDICTED BY RF-SCORE:    0.00 PKD
ROOT
HETATM    1  C   UNL     1     -12.768  14.721  70.231  1.00  0.00    -0.324 C  
HETATM    2  C   UNL     1     -11.909  14.637  68.993  1.00  0.00    -0.310 C  
HETATM    3  C   UNL     1     -11.470  13.515  68.376  1.00  0.00    -0.311 C  
HETATM    4  S   UNL     1     -10.636  13.617  66.842  1.00  0.00    -0.272 SA 
HETATM    5  O   UNL     1     -11.706  15.917  68.518  1.00  0.00    -0.383 OA 
HETATM    6  C   UNL     1     -10.539  16.269  67.791  1.00  0.00    -0.314 C  
HETATM    7  C   UNL     1      -9.776  15.184  67.046  1.00  0.00    -0.231 C  
ENDROOT
BRANCH   3   8
HETATM    8  C   UNL     1     -11.801  12.105  68.867  1.00  0.00    -0.304 C  
HETATM    9  N   UNL     1     -11.631  11.900  70.227  1.00  0.00    -0.531 N  
HETATM   10  H   UNL     1     -11.363  12.713  70.781  1.00  0.00     0.000 HD 
HETATM   11  O   UNL     1     -12.220  11.243  68.102  1.00  0.00    -0.622 OA 
BRANCH   9  12
HETATM   12  C   UNL     1     -11.791  10.678  70.925  1.00  0.00    -0.331 A  
HETATM   13  C   UNL     1     -10.807   9.688  70.972  1.00  0.00    -0.412 A  
HETATM   14  C   UNL     1     -11.031   8.488  71.660  1.00  0.00    -0.362 A  
HETATM   15  C   UNL     1     -12.243   8.271  72.305  1.00  0.00    -0.428 A  
HETATM   16  C   UNL     1     -13.222   9.259  72.283  1.00  0.00    -0.535 A  
HETATM   17  C   UNL     1     -12.992  10.466  71.610  1.00  0.00    -0.581 A  
ENDBRANCH   9  12
ENDBRANCH   3   8
TORSDOF 2
ENDMDL
MODEL       14
REMARK 921   NORMALIZED FREE ENERGY PREDICTED BY IDOCK:   -5.35 KCAL/MOL
REMARK 922        TOTAL FREE ENERGY PREDICTED BY IDOCK:   -6.20 KCAL/MOL
REMARK 923 INTER-LIGAND FREE ENERGY PREDICTED BY IDOCK:   -6.17 KCAL/MOL
REMARK 924 INTRA-LIGAND FREE ENERGY PREDICTED BY IDOCK:   -0.02 KCAL/MOL
REMARK 927      BINDING AFFINITY PREDICTED BY RF-SCORE:    0.00 PKD
ROOT
HETATM    1  C   UNL     1     -12.542  13.824  65.459  1.00  0.00    -0.551 C  
HETATM    2  C   UNL     1     -11.557  13.267  66.458  1.00  0.00    -0.350 C  
HETATM    3  C   UNL     1     -10.470  13.892  66.971  1.00  0.00    -0.278 C  
HETATM    4  S   UNL     1      -9.550  13.150  68.260  1.00  0.00    -0.192 SA 
HETATM    5  O   UNL     1     -11.993  12.017  66.849  1.00  0.00    -0.612 OA 
HETATM    6  C   UNL     1     -11.089  11.007  67.270  1.00  0.00    -0.294 C  
HETATM    7  C   UNL     1      -9.734  11.413  67.830  1.00  0.00    -0.175 C  
ENDROOT
BRANCH   3   8
HETATM    8  C   UNL     1     -10.072  15.320  66.598  1.00  0.00    -0.261 C  
HETATM    9  N   UNL     1     -10.470  16.297  67.498  1.00  0.00    -0.297 N  
HETATM   10  H   UNL     1     -10.933  15.974  68.347  1.00  0.00     0.000 HD 
HETATM   11  O   UNL     1      -9.416  15.560  65.590  1.00  0.00    -0.320 OA 
BRANCH   9  12
HETATM   12  C   UNL     1     -10.299  17.697  67.358  1.00  0.00    -0.360 A  
HETATM   13  C   UNL     1     -10.442  18.368  66.142  1.00  0.00    -0.422 A  
HETATM   14  C   UNL     1     -10.238  19.751  66.060  1.00  0.00    -0.600 A  
HETATM   15  C   UNL     1      -9.887  20.472  67.196  1.00  0.00    -0.567 A  
HETATM   16  C   UNL     1      -9.763  19.817  68.416  1.00  0.00    -0.480 A  
HETATM   17  C   UNL     1      -9.984  18.436  68.502  1.00  0.00    -0.415 A  
ENDBRANCH   9  12
ENDBRANCH   3   8
TORSDOF 2
ENDMDL
MODEL       15
REMARK 921   NORMALIZED FREE ENERGY PREDICTED BY IDOCK:   -5.31 KCAL/MOL
REMARK 922        TOTAL FREE ENERGY PREDICTED BY IDOCK:   -6.15 KCAL/MOL
REMARK 923 INTER-LIGAND FREE ENERGY PREDICTED BY IDOCK:   -5.82 KCAL/MOL
REMARK 924 INTRA-LIGAND FREE ENERGY PREDICTED BY IDOCK:   -0.32 KCAL/MOL
REMARK 927      BINDING AFFINITY PREDICTED BY RF-SCORE:    0.00 PKD
ROOT
HETATM    1  C   UNL     1      -8.376  11.998  67.716  1.00  0.00    -0.156 C  
HETATM    2  C   UNL     1      -9.367  13.116  67.502  1.00  0.00    -0.207 C  
HETATM    3  C   UNL     1     -10.686  13.110  67.810  1.00  0.00    -0.240 C  
HETATM    4  S   UNL     1     -11.636  14.570  67.656  1.00  0.00    -0.388 SA 
HETATM    5  O   UNL     1      -8.687  14.211  67.010  1.00  0.00    -0.214 OA 
HETATM    6  C   UNL     1      -9.317  15.169  66.171  1.00  0.00    -0.311 C  
HETATM    7  C   UNL     1     -10.827  15.335  66.243  1.00  0.00    -0.312 C  
ENDROOT
BRANCH   3   8
HETATM    8  C   UNL     1     -11.391  11.916  68.454  1.00  0.00    -0.276 C  
HETATM    9  N   UNL     1     -11.267  11.832  69.831  1.00  0.00    -0.487 N  
HETATM   10  H   UNL     1     -10.776  12.597  70.293  1.00  0.00     0.000 HD 
HETATM   11  O   UNL     1     -12.043  11.121  67.786  1.00  0.00    -0.606 OA 
BRANCH   9  12
HETATM   12  C   UNL     1     -11.753  10.793  70.663  1.00  0.00    -0.342 A  
HETATM   13  C   UNL     1     -12.972  10.862  71.342  1.00  0.00    -0.527 A  
HETATM   14  C   UNL     1     -13.390   9.814  72.171  1.00  0.00    -0.527 A  
HETATM   15  C   UNL     1     -12.589   8.687  72.327  1.00  0.00    -0.457 A  
HETATM   16  C   UNL     1     -11.384   8.598  71.638  1.00  0.00    -0.377 A  
HETATM   17  C   UNL     1     -10.974   9.640  70.796  1.00  0.00    -0.397 A  
ENDBRANCH   9  12
ENDBRANCH   3   8
TORSDOF 2
ENDMDL
MODEL       16
REMARK 921   NORMALIZED FREE ENERGY PREDICTED BY IDOCK:   -5.30 KCAL/MOL
REMARK 922        TOTAL FREE ENERGY PREDICTED BY IDOCK:   -6.14 KCAL/MOL
REMARK 923 INTER-LIGAND FREE ENERGY PREDICTED BY IDOCK:   -5.98 KCAL/MOL
REMARK 924 INTRA-LIGAND FREE ENERGY PREDICTED BY IDOCK:   -0.16 KCAL/MOL
REMARK 927      BINDING AFFINITY PREDICTED BY RF-SCORE:    0.00 PKD
ROOT
HETATM    1  C   UNL     1     -10.785  15.505  65.208  1.00  0.00    -0.440 C  
HETATM    2  C   UNL     1     -10.480  16.665  66.123  1.00  0.00    -0.285 C  
HETATM    3  C   UNL     1     -10.313  16.625  67.467  1.00  0.00    -0.294 C  
HETATM    4  S   UNL     1      -9.780  18.046  68.335  1.00  0.00    -0.360 SA 
HETATM    5  O   UNL     1     -10.302  17.794  65.351  1.00  0.00    -0.602 OA 
HETATM    6  C   UNL     1     -10.588  19.093  65.846  1.00  0.00    -0.415 C  
HETATM    7  C   UNL     1     -10.552  19.337  67.347  1.00  0.00    -0.487 C  
ENDROOT
BRANCH   3   8
HETATM    8  C   UNL     1     -10.411  15.337  68.285  1.00  0.00    -0.244 C  
HETATM    9  N   UNL     1     -11.696  14.971  68.655  1.00  0.00    -0.392 N  
HETATM   10  H   UNL     1     -12.456  15.552  68.301  1.00  0.00     0.000 HD 
HETATM   11  O   UNL     1      -9.417  14.671  68.553  1.00  0.00    -0.205 OA 
BRANCH   9  12
HETATM   12  C   UNL     1     -12.061  13.873  69.473  1.00  0.00    -0.342 A  
HETATM   13  C   UNL     1     -12.677  14.018  70.719  1.00  0.00    -0.396 A  
HETATM   14  C   UNL     1     -12.994  12.896  71.495  1.00  0.00    -0.388 A  
HETATM   15  C   UNL     1     -12.695  11.620  71.030  1.00  0.00    -0.395 A  
HETATM   16  C   UNL     1     -12.102  11.463  69.782  1.00  0.00    -0.388 A  
HETATM   17  C   UNL     1     -11.801  12.585  68.997  1.00  0.00    -0.344 A  
ENDBRANCH   9  12
ENDBRANCH   3   8
TORSDOF 2
ENDMDL
MODEL       17
REMARK 921   NORMALIZED FREE ENERGY PREDICTED BY IDOCK:   -5.29 KCAL/MOL
REMARK 922        TOTAL FREE ENERGY PREDICTED BY IDOCK:   -6.13 KCAL/MOL
REMARK 923 INTER-LIGAND FREE ENERGY PREDICTED BY IDOCK:   -6.28 KCAL/MOL
REMARK 924 INTRA-LIGAND FREE ENERGY PREDICTED BY IDOCK:    0.15 KCAL/MOL
REMARK 927      BINDING AFFINITY PREDICTED BY RF-SCORE:    0.00 PKD
ROOT
HETATM    1  C   UNL     1     -12.526  13.381  65.539  1.00  0.00    -0.534 C  
HETATM    2  C   UNL     1     -11.502  14.018  66.446  1.00  0.00    -0.352 C  
HETATM    3  C   UNL     1     -11.067  13.555  67.642  1.00  0.00    -0.269 C  
HETATM    4  S   UNL     1      -9.737  14.339  68.463  1.00  0.00    -0.213 SA 
HETATM    5  O   UNL     1     -10.996  15.135  65.813  1.00  0.00    -0.336 OA 
HETATM    6  C   UNL     1     -10.506  16.251  66.541  1.00  0.00    -0.290 C  
HETATM    7  C   UNL     1     -10.010  16.046  67.964  1.00  0.00    -0.229 C  
ENDROOT
BRANCH   3   8
HETATM    8  C   UNL     1     -11.570  12.255  68.270  1.00  0.00    -0.331 C  
HETATM    9  N   UNL     1     -11.389  12.154  69.640  1.00  0.00    -0.464 N  
HETATM   10  H   UNL     1     -10.997  12.970  70.110  1.00  0.00     0.000 HD 
HETATM   11  O   UNL     1     -12.125  11.392  67.598  1.00  0.00    -0.630 OA 
BRANCH   9  12
HETATM   12  C   UNL     1     -11.692  11.035  70.455  1.00  0.00    -0.343 A  
HETATM   13  C   UNL     1     -10.869   9.910  70.547  1.00  0.00    -0.391 A  
HETATM   14  C   UNL     1     -11.232   8.822  71.351  1.00  0.00    -0.362 A  
HETATM   15  C   UNL     1     -12.423   8.852  72.068  1.00  0.00    -0.461 A  
HETATM   16  C   UNL     1     -13.240   9.976  72.000  1.00  0.00    -0.545 A  
HETATM   17  C   UNL     1     -12.868  11.072  71.209  1.00  0.00    -0.528 A  
ENDBRANCH   9  12
ENDBRANCH   3   8
TORSDOF 2
ENDMDL
MODEL       18
REMARK 921   NORMALIZED FREE ENERGY PREDICTED BY IDOCK:   -5.27 KCAL/MOL
REMARK 922        TOTAL FREE ENERGY PREDICTED BY IDOCK:   -6.10 KCAL/MOL
REMARK 923 INTER-LIGAND FREE ENERGY PREDICTED BY IDOCK:   -6.27 KCAL/MOL
REMARK 924 INTRA-LIGAND FREE ENERGY PREDICTED BY IDOCK:    0.16 KCAL/MOL
REMARK 927      BINDING AFFINITY PREDICTED BY RF-SCORE:    0.00 PKD
ROOT
HETATM    1  C   UNL     1     -10.855  19.511  65.729  1.00  0.00    -0.403 C  
HETATM    2  C   UNL     1      -9.802  18.698  66.440  1.00  0.00    -0.367 C  
HETATM    3  C   UNL     1      -9.591  17.363  66.338  1.00  0.00    -0.276 C  
HETATM    4  S   UNL     1      -8.201  16.627  67.101  1.00  0.00    -0.194 SA 
HETATM    5  O   UNL     1      -9.005  19.558  67.167  1.00  0.00    -0.287 OA 
HETATM    6  C   UNL     1      -8.348  19.146  68.356  1.00  0.00    -0.349 C  
HETATM    7  C   UNL     1      -8.042  17.670  68.558  1.00  0.00    -0.283 C  
ENDROOT
BRANCH   3   8
HETATM    8  C   UNL     1     -10.426  16.450  65.440  1.00  0.00    -0.311 C  
HETATM    9  N   UNL     1     -10.397  15.107  65.777  1.00  0.00    -0.314 N  
HETATM   10  H   UNL     1      -9.878  14.858  66.620  1.00  0.00     0.000 HD 
HETATM   11  O   UNL     1     -11.094  16.898  64.514  1.00  0.00    -1.054 OA 
BRANCH   9  12
HETATM   12  C   UNL     1     -11.014  14.043  65.073  1.00  0.00    -0.375 A  
HETATM   13  C   UNL     1     -10.349  13.267  64.121  1.00  0.00    -0.204 A  
HETATM   14  C   UNL     1     -11.017  12.243  63.438  1.00  0.00    -0.467 A  
HETATM   15  C   UNL     1     -12.358  11.989  63.704  1.00  0.00    -0.648 A  
HETATM   16  C   UNL     1     -13.025  12.741  64.665  1.00  0.00    -0.231 A  
HETATM   17  C   UNL     1     -12.352  13.754  65.361  1.00  0.00    -0.504 A  
ENDBRANCH   9  12
ENDBRANCH   3   8
TORSDOF 2
ENDMDL
MODEL       19
REMARK 921   NORMALIZED FREE ENERGY PREDICTED BY IDOCK:   -5.26 KCAL/MOL
REMARK 922        TOTAL FREE ENERGY PREDICTED BY IDOCK:   -6.09 KCAL/MOL
REMARK 923 INTER-LIGAND FREE ENERGY PREDICTED BY IDOCK:   -6.01 KCAL/MOL
REMARK 924 INTRA-LIGAND FREE ENERGY PREDICTED BY IDOCK:   -0.08 KCAL/MOL
REMARK 927      BINDING AFFINITY PREDICTED BY RF-SCORE:    0.00 PKD
ROOT
HETATM    1  C   UNL     1     -12.342  15.450  70.252  1.00  0.00    -0.425 C  
HETATM    2  C   UNL     1     -12.330  13.971  70.551  1.00  0.00    -0.367 C  
HETATM    3  C   UNL     1     -11.945  12.972  69.721  1.00  0.00    -0.308 C  
HETATM    4  S   UNL     1     -11.826  11.330  70.311  1.00  0.00    -0.351 SA 
HETATM    5  O   UNL     1     -12.698  13.790  71.869  1.00  0.00    -0.311 OA 
HETATM    6  C   UNL     1     -13.347  12.608  72.309  1.00  0.00    -0.422 C  
HETATM    7  C   UNL     1     -13.159  11.322  71.518  1.00  0.00    -0.355 C  
ENDROOT
BRANCH   3   8
HETATM    8  C   UNL     1     -11.441  13.212  68.298  1.00  0.00    -0.314 C  
HETATM    9  N   UNL     1     -12.027  12.421  67.324  1.00  0.00    -0.276 N  
HETATM   10  H   UNL     1     -12.777  11.800  67.629  1.00  0.00     0.000 HD 
HETATM   11  O   UNL     1     -10.603  14.073  68.053  1.00  0.00    -0.239 OA 
BRANCH   9  12
HETATM   12  C   UNL     1     -11.693  12.385  65.947  1.00  0.00    -0.419 A  
HETATM   13  C   UNL     1     -12.421  13.059  64.965  1.00  0.00    -0.534 A  
HETATM   14  C   UNL     1     -12.058  12.968  63.615  1.00  0.00    -0.604 A  
HETATM   15  C   UNL     1     -10.962  12.200  63.239  1.00  0.00    -0.398 A  
HETATM   16  C   UNL     1     -10.216  11.541  64.212  1.00  0.00    -0.361 A  
HETATM   17  C   UNL     1     -10.569  11.646  65.564  1.00  0.00    -0.329 A  
ENDBRANCH   9  12
ENDBRANCH   3   8
TORSDOF 2
ENDMDL
MODEL       20
REMARK 921   NORMALIZED FREE ENERGY PREDICTED BY IDOCK:   -5.25 KCAL/MOL
REMARK 922        TOTAL FREE ENERGY PREDICTED BY IDOCK:   -6.08 KCAL/MOL
REMARK 923 INTER-LIGAND FREE ENERGY PREDICTED BY IDOCK:   -5.85 KCAL/MOL
REMARK 924 INTRA-LIGAND FREE ENERGY PREDICTED BY IDOCK:   -0.23 KCAL/MOL
REMARK 927      BINDING AFFINITY PREDICTED BY RF-SCORE:    0.00 PKD
ROOT
HETATM    1  C   UNL     1     -14.229   8.312  71.632  1.00  0.00    -0.530 C  
HETATM    2  C   UNL     1     -12.727   8.213  71.530  1.00  0.00    -0.308 C  
HETATM    3  C   UNL     1     -11.872   9.164  71.084  1.00  0.00    -0.307 C  
HETATM    4  S   UNL     1     -10.144   8.931  71.214  1.00  0.00    -0.322 SA 
HETATM    5  O   UNL     1     -12.334   7.000  72.059  1.00  0.00    -0.310 OA 
HETATM    6  C   UNL     1     -11.161   6.335  71.616  1.00  0.00    -0.285 C  
HETATM    7  C   UNL     1     -10.040   7.150  70.991  1.00  0.00    -0.192 C  
ENDROOT
BRANCH   3   8
HETATM    8  C   UNL     1     -12.329  10.541  70.603  1.00  0.00    -0.356 C  
HETATM    9  N   UNL     1     -12.321  11.535  71.568  1.00  0.00    -0.131 N  
HETATM   10  H   UNL     1     -11.957  11.278  72.485  1.00  0.00     0.000 HD 
HETATM   11  O   UNL     1     -12.643  10.739  69.434  1.00  0.00    -0.314 OA 
BRANCH   9  12
HETATM   12  C   UNL     1     -12.765  12.872  71.411  1.00  0.00    -0.270 A  
HETATM   13  C   UNL     1     -12.135  13.795  70.574  1.00  0.00    -0.416 A  
HETATM   14  C   UNL     1     -12.605  15.111  70.477  1.00  0.00    -0.429 A  
HETATM   15  C   UNL     1     -13.711  15.512  71.220  1.00  0.00    -0.482 A  
HETATM   16  C   UNL     1     -14.359  14.595  72.040  1.00  0.00    -0.642 A  
HETATM   17  C   UNL     1     -13.899  13.274  72.124  1.00  0.00    -0.555 A  
ENDBRANCH   9  12
ENDBRANCH   3   8
TORSDOF 2
ENDMDL
MODEL       21
REMARK 921   NORMALIZED FREE ENERGY PREDICTED BY IDOCK:   -5.19 KCAL/MOL
REMARK 922        TOTAL FREE ENERGY PREDICTED BY IDOCK:   -6.01 KCAL/MOL
REMARK 923 INTER-LIGAND FREE ENERGY PREDICTED BY IDOCK:   -5.87 KCAL/MOL
REMARK 924 INTRA-LIGAND FREE ENERGY PREDICTED BY IDOCK:   -0.14 KCAL/MOL
REMARK 927      BINDING AFFINITY PREDICTED BY RF-SCORE:    0.00 PKD
ROOT
HETATM    1  C   UNL     1     -12.381  15.428  70.065  1.00  0.00    -0.368 C  
HETATM    2  C   UNL     1     -12.347  13.973  70.462  1.00  0.00    -0.367 C  
HETATM    3  C   UNL     1     -11.927  12.929  69.707  1.00  0.00    -0.296 C  
HETATM    4  S   UNL     1     -11.789  11.332  70.407  1.00  0.00    -0.317 SA 
HETATM    5  O   UNL     1     -12.737  13.872  71.781  1.00  0.00    -0.329 OA 
HETATM    6  C   UNL     1     -13.373  12.708  72.287  1.00  0.00    -0.422 C  
HETATM    7  C   UNL     1     -13.145  11.377  71.587  1.00  0.00    -0.393 C  
ENDROOT
BRANCH   3   8
HETATM    8  C   UNL     1     -11.398  13.085  68.281  1.00  0.00    -0.288 C  
HETATM    9  N   UNL     1     -12.031  12.302  67.330  1.00  0.00    -0.240 N  
HETATM   10  H   UNL     1     -12.823  11.744  67.650  1.00  0.00     0.000 HD 
HETATM   11  O   UNL     1     -10.502  13.878  68.014  1.00  0.00    -0.234 OA 
BRANCH   9  12
HETATM   12  C   UNL     1     -11.692  12.196  65.958  1.00  0.00    -0.321 A  
HETATM   13  C   UNL     1     -10.672  11.368  65.483  1.00  0.00    -0.313 A  
HETATM   14  C   UNL     1     -10.365  11.322  64.118  1.00  0.00    -0.410 A  
HETATM   15  C   UNL     1     -11.077  12.106  63.217  1.00  0.00    -0.408 A  
HETATM   16  C   UNL     1     -12.110  12.917  63.676  1.00  0.00    -0.611 A  
HETATM   17  C   UNL     1     -12.428  12.950  65.040  1.00  0.00    -0.553 A  
ENDBRANCH   9  12
ENDBRANCH   3   8
TORSDOF 2
ENDMDL
MODEL       22
REMARK 921   NORMALIZED FREE ENERGY PREDICTED BY IDOCK:   -5.17 KCAL/MOL
REMARK 922        TOTAL FREE ENERGY PREDICTED BY IDOCK:   -5.99 KCAL/MOL
REMARK 923 INTER-LIGAND FREE ENERGY PREDICTED BY IDOCK:   -5.72 KCAL/MOL
REMARK 924 INTRA-LIGAND FREE ENERGY PREDICTED BY IDOCK:   -0.27 KCAL/MOL
REMARK 927      BINDING AFFINITY PREDICTED BY RF-SCORE:    0.00 PKD
ROOT
HETATM    1  C   UNL     1     -10.080  19.365  68.871  1.00  0.00    -0.459 C  
HETATM    2  C   UNL     1      -9.248  18.241  68.305  1.00  0.00    -0.309 C  
HETATM    3  C   UNL     1      -9.534  16.917  68.333  1.00  0.00    -0.258 C  
HETATM    4  S   UNL     1      -8.535  15.778  67.461  1.00  0.00    -0.176 SA 
HETATM    5  O   UNL     1      -8.160  18.788  67.656  1.00  0.00    -0.248 OA 
HETATM    6  C   UNL     1      -6.929  18.092  67.541  1.00  0.00    -0.192 C  
HETATM    7  C   UNL     1      -6.929  16.572  67.614  1.00  0.00    -0.136 C  
ENDROOT
BRANCH   3   8
HETATM    8  C   UNL     1     -10.803  16.348  68.968  1.00  0.00    -0.331 C  
HETATM    9  N   UNL     1     -10.666  15.923  70.280  1.00  0.00    -0.321 N  
HETATM   10  H   UNL     1      -9.759  16.082  70.719  1.00  0.00     0.000 HD 
HETATM   11  O   UNL     1     -11.865  16.312  68.356  1.00  0.00    -0.202 OA 
BRANCH   9  12
HETATM   12  C   UNL     1     -11.655  15.291  71.074  1.00  0.00    -0.356 A  
HETATM   13  C   UNL     1     -12.123  13.998  70.828  1.00  0.00    -0.417 A  
HETATM   14  C   UNL     1     -13.120  13.432  71.632  1.00  0.00    -0.463 A  
HETATM   15  C   UNL     1     -13.657  14.159  72.689  1.00  0.00    -0.618 A  
HETATM   16  C   UNL     1     -13.184  15.439  72.957  1.00  0.00    -0.638 A  
HETATM   17  C   UNL     1     -12.174  15.998  72.162  1.00  0.00    -0.597 A  
ENDBRANCH   9  12
ENDBRANCH   3   8
TORSDOF 2
ENDMDL
MODEL       23
REMARK 921   NORMALIZED FREE ENERGY PREDICTED BY IDOCK:   -5.15 KCAL/MOL
REMARK 922        TOTAL FREE ENERGY PREDICTED BY IDOCK:   -5.97 KCAL/MOL
REMARK 923 INTER-LIGAND FREE ENERGY PREDICTED BY IDOCK:   -6.09 KCAL/MOL
REMARK 924 INTRA-LIGAND FREE ENERGY PREDICTED BY IDOCK:    0.11 KCAL/MOL
REMARK 927      BINDING AFFINITY PREDICTED BY RF-SCORE:    0.00 PKD
ROOT
HETATM    1  C   UNL     1     -13.791  13.408  72.211  1.00  0.00    -0.671 C  
HETATM    2  C   UNL     1     -12.818  13.943  71.189  1.00  0.00    -0.351 C  
HETATM    3  C   UNL     1     -12.122  13.230  70.271  1.00  0.00    -0.335 C  
HETATM    4  S   UNL     1     -11.181  14.048  69.045  1.00  0.00    -0.289 SA 
HETATM    5  O   UNL     1     -12.811  15.320  71.273  1.00  0.00    -0.355 OA 
HETATM    6  C   UNL     1     -11.666  16.085  70.931  1.00  0.00    -0.402 C  
HETATM    7  C   UNL     1     -10.649  15.502  69.962  1.00  0.00    -0.324 C  
ENDROOT
BRANCH   3   8
HETATM    8  C   UNL     1     -12.232  11.712  70.130  1.00  0.00    -0.288 C  
HETATM    9  N   UNL     1     -12.248  11.010  71.325  1.00  0.00    -0.304 N  
HETATM   10  H   UNL     1     -12.248  11.565  72.181  1.00  0.00     0.000 HD 
HETATM   11  O   UNL     1     -12.333  11.176  69.032  1.00  0.00    -0.479 OA 
BRANCH   9  12
HETATM   12  C   UNL     1     -12.266   9.601  71.480  1.00  0.00    -0.399 A  
HETATM   13  C   UNL     1     -11.108   8.832  71.617  1.00  0.00    -0.398 A  
HETATM   14  C   UNL     1     -11.185   7.439  71.742  1.00  0.00    -0.277 A  
HETATM   15  C   UNL     1     -12.423   6.806  71.731  1.00  0.00    -0.394 A  
HETATM   16  C   UNL     1     -13.584   7.565  71.617  1.00  0.00    -0.442 A  
HETATM   17  C   UNL     1     -13.507   8.960  71.509  1.00  0.00    -0.381 A  
ENDBRANCH   9  12
ENDBRANCH   3   8
TORSDOF 2
ENDMDL
MODEL       24
REMARK 921   NORMALIZED FREE ENERGY PREDICTED BY IDOCK:   -5.13 KCAL/MOL
REMARK 922        TOTAL FREE ENERGY PREDICTED BY IDOCK:   -5.95 KCAL/MOL
REMARK 923 INTER-LIGAND FREE ENERGY PREDICTED BY IDOCK:   -5.83 KCAL/MOL
REMARK 924 INTRA-LIGAND FREE ENERGY PREDICTED BY IDOCK:   -0.11 KCAL/MOL
REMARK 927      BINDING AFFINITY PREDICTED BY RF-SCORE:    0.00 PKD
ROOT
HETATM    1  C   UNL     1     -11.970  13.392  69.237  1.00  0.00    -0.367 C  
HETATM    2  C   UNL     1     -12.196  14.221  70.477  1.00  0.00    -0.356 C  
HETATM    3  C   UNL     1     -11.596  15.392  70.799  1.00  0.00    -0.347 C  
HETATM    4  S   UNL     1     -12.125  16.302  72.195  1.00  0.00    -0.359 SA 
HETATM    5  O   UNL     1     -13.204  13.634  71.215  1.00  0.00    -0.307 OA 
HETATM    6  C   UNL     1     -13.270  13.764  72.627  1.00  0.00    -0.470 C  
HETATM    7  C   UNL     1     -12.607  14.961  73.292  1.00  0.00    -0.471 C  
ENDROOT
BRANCH   3   8
HETATM    8  C   UNL     1     -10.558  16.074  69.907  1.00  0.00    -0.314 C  
HETATM    9  N   UNL     1     -10.931  17.313  69.411  1.00  0.00    -0.238 N  
HETATM   10  H   UNL     1     -11.827  17.682  69.730  1.00  0.00     0.000 HD 
HETATM   11  O   UNL     1      -9.466  15.562  69.688  1.00  0.00    -0.273 OA 
BRANCH   9  12
HETATM   12  C   UNL     1     -10.197  18.120  68.507  1.00  0.00    -0.384 A  
HETATM   13  C   UNL     1      -8.933  18.640  68.797  1.00  0.00    -0.291 A  
HETATM   14  C   UNL     1      -8.263  19.451  67.873  1.00  0.00    -0.341 A  
HETATM   15  C   UNL     1      -8.855  19.749  66.650  1.00  0.00    -0.418 A  
HETATM   16  C   UNL     1     -10.103  19.219  66.342  1.00  0.00    -0.507 A  
HETATM   17  C   UNL     1     -10.766  18.393  67.259  1.00  0.00    -0.389 A  
ENDBRANCH   9  12
ENDBRANCH   3   8
TORSDOF 2
ENDMDL
MODEL       25
REMARK 921   NORMALIZED FREE ENERGY PREDICTED BY IDOCK:   -5.11 KCAL/MOL
REMARK 922        TOTAL FREE ENERGY PREDICTED BY IDOCK:   -5.93 KCAL/MOL
REMARK 923 INTER-LIGAND FREE ENERGY PREDICTED BY IDOCK:   -5.70 KCAL/MOL
REMARK 924 INTRA-LIGAND FREE ENERGY PREDICTED BY IDOCK:   -0.23 KCAL/MOL
REMARK 927      BINDING AFFINITY PREDICTED BY RF-SCORE:    0.00 PKD
ROOT
HETATM    1  C   UNL     1      -8.828  12.980  66.808  1.00  0.00    -0.144 C  
HETATM    2  C   UNL     1      -9.937  13.024  65.786  1.00  0.00    -0.254 C  
HETATM    3  C   UNL     1     -10.873  13.992  65.634  1.00  0.00    -0.295 C  
HETATM    4  S   UNL     1     -11.966  13.958  64.270  1.00  0.00    -0.414 SA 
HETATM    5  O   UNL     1      -9.796  11.939  64.945  1.00  0.00    -0.248 OA 
HETATM    6  C   UNL     1     -10.910  11.346  64.295  1.00  0.00    -0.349 C  
HETATM    7  C   UNL     1     -12.157  12.182  64.052  1.00  0.00    -0.443 C  
ENDROOT
BRANCH   3   8
HETATM    8  C   UNL     1     -10.939  15.239  66.516  1.00  0.00    -0.295 C  
HETATM    9  N   UNL     1     -10.209  16.323  66.058  1.00  0.00    -0.340 N  
HETATM   10  H   UNL     1      -9.749  16.216  65.154  1.00  0.00     0.000 HD 
HETATM   11  O   UNL     1     -11.623  15.268  67.534  1.00  0.00    -0.316 OA 
BRANCH   9  12
HETATM   12  C   UNL     1     -10.036  17.567  66.716  1.00  0.00    -0.320 A  
HETATM   13  C   UNL     1      -9.452  17.691  67.978  1.00  0.00    -0.282 A  
HETATM   14  C   UNL     1      -9.329  18.944  68.590  1.00  0.00    -0.415 A  
HETATM   15  C   UNL     1      -9.791  20.084  67.942  1.00  0.00    -0.538 A  
HETATM   16  C   UNL     1     -10.355  19.975  66.675  1.00  0.00    -0.565 A  
HETATM   17  C   UNL     1     -10.463  18.723  66.055  1.00  0.00    -0.483 A  
ENDBRANCH   9  12
ENDBRANCH   3   8
TORSDOF 2
ENDMDL
MODEL       26
REMARK 921   NORMALIZED FREE ENERGY PREDICTED BY IDOCK:   -5.10 KCAL/MOL
REMARK 922        TOTAL FREE ENERGY PREDICTED BY IDOCK:   -5.92 KCAL/MOL
REMARK 923 INTER-LIGAND FREE ENERGY PREDICTED BY IDOCK:   -5.71 KCAL/MOL
REMARK 924 INTRA-LIGAND FREE ENERGY PREDICTED BY IDOCK:   -0.21 KCAL/MOL
REMARK 927      BINDING AFFINITY PREDICTED BY RF-SCORE:    0.00 PKD
ROOT
HETATM    1  C   UNL     1      -7.256  17.221  66.192  1.00  0.00    -0.304 C  
HETATM    2  C   UNL     1      -8.318  18.190  66.647  1.00  0.00    -0.263 C  
HETATM    3  C   UNL     1      -9.656  18.087  66.458  1.00  0.00    -0.315 C  
HETATM    4  S   UNL     1     -10.747  19.221  67.221  1.00  0.00    -0.447 SA 
HETATM    5  O   UNL     1      -7.711  19.186  67.385  1.00  0.00    -0.236 OA 
HETATM    6  C   UNL     1      -8.246  20.499  67.454  1.00  0.00    -0.286 C  
HETATM    7  C   UNL     1      -9.733  20.706  67.206  1.00  0.00    -0.422 C  
ENDROOT
BRANCH   3   8
HETATM    8  C   UNL     1     -10.310  16.915  65.726  1.00  0.00    -0.283 C  
HETATM    9  N   UNL     1     -10.322  15.718  66.424  1.00  0.00    -0.289 N  
HETATM   10  H   UNL     1      -9.953  15.740  67.375  1.00  0.00     0.000 HD 
HETATM   11  O   UNL     1     -10.814  17.053  64.617  1.00  0.00    -0.855 OA 
BRANCH   9  12
HETATM   12  C   UNL     1     -10.793  14.467  65.953  1.00  0.00    -0.308 A  
HETATM   13  C   UNL     1     -12.146  14.182  65.760  1.00  0.00    -0.433 A  
HETATM   14  C   UNL     1     -12.555  12.919  65.315  1.00  0.00    -0.502 A  
HETATM   15  C   UNL     1     -11.611  11.931  65.060  1.00  0.00    -0.277 A  
HETATM   16  C   UNL     1     -10.259  12.211  65.227  1.00  0.00    -0.304 A  
HETATM   17  C   UNL     1      -9.848  13.480  65.657  1.00  0.00    -0.187 A  
ENDBRANCH   9  12
ENDBRANCH   3   8
TORSDOF 2
ENDMDL
MODEL       27
REMARK 921   NORMALIZED FREE ENERGY PREDICTED BY IDOCK:   -5.07 KCAL/MOL
REMARK 922        TOTAL FREE ENERGY PREDICTED BY IDOCK:   -5.88 KCAL/MOL
REMARK 923 INTER-LIGAND FREE ENERGY PREDICTED BY IDOCK:   -5.67 KCAL/MOL
REMARK 924 INTRA-LIGAND FREE ENERGY PREDICTED BY IDOCK:   -0.20 KCAL/MOL
REMARK 927      BINDING AFFINITY PREDICTED BY RF-SCORE:    0.00 PKD
ROOT
HETATM    1  C   UNL     1     -12.626   8.551  71.688  1.00  0.00    -0.369 C  
HETATM    2  C   UNL     1     -11.405   8.620  70.804  1.00  0.00    -0.263 C  
HETATM    3  C   UNL     1     -11.044   9.637  69.985  1.00  0.00    -0.255 C  
HETATM    4  S   UNL     1      -9.494   9.612  69.176  1.00  0.00    -0.181 SA 
HETATM    5  O   UNL     1     -10.641   7.493  71.028  1.00  0.00    -0.219 OA 
HETATM    6  C   UNL     1      -9.805   6.942  70.022  1.00  0.00    -0.173 C  
HETATM    7  C   UNL     1      -9.297   7.844  68.908  1.00  0.00    -0.150 C  
ENDROOT
BRANCH   3   8
HETATM    8  C   UNL     1     -11.858  10.922  69.837  1.00  0.00    -0.349 C  
HETATM    9  N   UNL     1     -11.831  11.766  70.936  1.00  0.00    -0.318 N  
HETATM   10  H   UNL     1     -11.229  11.488  71.711  1.00  0.00     0.000 HD 
HETATM   11  O   UNL     1     -12.456  11.186  68.799  1.00  0.00    -0.468 OA 
BRANCH   9  12
HETATM   12  C   UNL     1     -12.553  12.975  71.093  1.00  0.00    -0.297 A  
HETATM   13  C   UNL     1     -12.236  14.150  70.408  1.00  0.00    -0.427 A  
HETATM   14  C   UNL     1     -12.971  15.323  70.621  1.00  0.00    -0.442 A  
HETATM   15  C   UNL     1     -14.028  15.328  71.524  1.00  0.00    -0.627 A  
HETATM   16  C   UNL     1     -14.366  14.158  72.196  1.00  0.00    -0.606 A  
HETATM   17  C   UNL     1     -13.642  12.980  71.970  1.00  0.00    -0.530 A  
ENDBRANCH   9  12
ENDBRANCH   3   8
TORSDOF 2
ENDMDL
MODEL       28
REMARK 921   NORMALIZED FREE ENERGY PREDICTED BY IDOCK:   -4.99 KCAL/MOL
REMARK 922        TOTAL FREE ENERGY PREDICTED BY IDOCK:   -5.79 KCAL/MOL
REMARK 923 INTER-LIGAND FREE ENERGY PREDICTED BY IDOCK:   -5.62 KCAL/MOL
REMARK 924 INTRA-LIGAND FREE ENERGY PREDICTED BY IDOCK:   -0.17 KCAL/MOL
REMARK 927      BINDING AFFINITY PREDICTED BY RF-SCORE:    0.00 PKD
ROOT
HETATM    1  C   UNL     1     -10.051  10.434  65.478  1.00  0.00    -0.352 C  
HETATM    2  C   UNL     1     -10.778  11.738  65.697  1.00  0.00    -0.280 C  
HETATM    3  C   UNL     1     -11.155  12.276  66.882  1.00  0.00    -0.290 C  
HETATM    4  S   UNL     1     -11.826  13.889  66.947  1.00  0.00    -0.438 SA 
HETATM    5  O   UNL     1     -10.928  12.363  64.476  1.00  0.00    -0.287 OA 
HETATM    6  C   UNL     1     -12.014  13.239  64.212  1.00  0.00    -0.421 C  
HETATM    7  C   UNL     1     -12.698  13.940  65.375  1.00  0.00    -0.490 C  
ENDROOT
BRANCH   3   8
HETATM    8  C   UNL     1     -10.879  11.609  68.230  1.00  0.00    -0.219 C  
HETATM    9  N   UNL     1     -11.902  10.806  68.709  1.00  0.00    -0.479 N  
HETATM   10  H   UNL     1     -12.710  10.683  68.099  1.00  0.00     0.000 HD 
HETATM   11  O   UNL     1      -9.810  11.759  68.812  1.00  0.00    -0.178 OA 
BRANCH   9  12
HETATM   12  C   UNL     1     -11.939  10.137  69.958  1.00  0.00    -0.136 A  
HETATM   13  C   UNL     1     -10.983   9.197  70.352  1.00  0.00    -0.290 A  
HETATM   14  C   UNL     1     -11.084   8.549  71.589  1.00  0.00    -0.360 A  
HETATM   15  C   UNL     1     -12.145   8.838  72.442  1.00  0.00    -0.379 A  
HETATM   16  C   UNL     1     -13.090   9.788  72.069  1.00  0.00    -0.546 A  
HETATM   17  C   UNL     1     -12.979  10.448  70.838  1.00  0.00    -0.475 A  
ENDBRANCH   9  12
ENDBRANCH   3   8
TORSDOF 2
ENDMDL
MODEL       29
REMARK 921   NORMALIZED FREE ENERGY PREDICTED BY IDOCK:   -4.98 KCAL/MOL
REMARK 922        TOTAL FREE ENERGY PREDICTED BY IDOCK:   -5.78 KCAL/MOL
REMARK 923 INTER-LIGAND FREE ENERGY PREDICTED BY IDOCK:   -5.50 KCAL/MOL
REMARK 924 INTRA-LIGAND FREE ENERGY PREDICTED BY IDOCK:   -0.28 KCAL/MOL
REMARK 927      BINDING AFFINITY PREDICTED BY RF-SCORE:    0.00 PKD
ROOT
HETATM    1  C   UNL     1      -8.190  16.451  68.934  1.00  0.00    -0.235 C  
HETATM    2  C   UNL     1      -8.714  17.541  68.033  1.00  0.00    -0.254 C  
HETATM    3  C   UNL     1      -9.661  17.424  67.071  1.00  0.00    -0.273 C  
HETATM    4  S   UNL     1     -10.271  18.844  66.253  1.00  0.00    -0.446 SA 
HETATM    5  O   UNL     1      -8.129  18.734  68.407  1.00  0.00    -0.317 OA 
HETATM    6  C   UNL     1      -7.916  19.787  67.480  1.00  0.00    -0.289 C  
HETATM    7  C   UNL     1      -8.793  19.870  66.240  1.00  0.00    -0.345 C  
ENDROOT
BRANCH   3   8
HETATM    8  C   UNL     1     -10.370  16.108  66.750  1.00  0.00    -0.291 C  
HETATM    9  N   UNL     1      -9.983  15.505  65.563  1.00  0.00    -0.348 N  
HETATM   10  H   UNL     1      -9.227  15.955  65.047  1.00  0.00     0.000 HD 
HETATM   11  O   UNL     1     -11.192  15.619  67.517  1.00  0.00    -0.317 OA 
BRANCH   9  12
HETATM   12  C   UNL     1     -10.530  14.329  64.993  1.00  0.00    -0.435 A  
HETATM   13  C   UNL     1      -9.975  13.060  65.176  1.00  0.00    -0.170 A  
HETATM   14  C   UNL     1     -10.546  11.935  64.568  1.00  0.00    -0.358 A  
HETATM   15  C   UNL     1     -11.677  12.073  63.771  1.00  0.00    -0.575 A  
HETATM   16  C   UNL     1     -12.251  13.328  63.600  1.00  0.00    -0.522 A  
HETATM   17  C   UNL     1     -11.690  14.451  64.222  1.00  0.00    -0.328 A  
ENDBRANCH   9  12
ENDBRANCH   3   8
TORSDOF 2
ENDMDL
MODEL       30
REMARK 921   NORMALIZED FREE ENERGY PREDICTED BY IDOCK:   -4.97 KCAL/MOL
REMARK 922        TOTAL FREE ENERGY PREDICTED BY IDOCK:   -5.77 KCAL/MOL
REMARK 923 INTER-LIGAND FREE ENERGY PREDICTED BY IDOCK:   -5.46 KCAL/MOL
REMARK 924 INTRA-LIGAND FREE ENERGY PREDICTED BY IDOCK:   -0.30 KCAL/MOL
REMARK 927      BINDING AFFINITY PREDICTED BY RF-SCORE:    0.00 PKD
ROOT
HETATM    1  C   UNL     1     -13.117  11.122  71.801  1.00  0.00    -0.536 C  
HETATM    2  C   UNL     1     -12.194  10.048  71.281  1.00  0.00    -0.402 C  
HETATM    3  C   UNL     1     -11.509  10.052  70.112  1.00  0.00    -0.277 C  
HETATM    4  S   UNL     1     -10.342   8.797  69.767  1.00  0.00    -0.215 SA 
HETATM    5  O   UNL     1     -12.079   9.068  72.246  1.00  0.00    -0.346 OA 
HETATM    6  C   UNL     1     -11.814   7.714  71.911  1.00  0.00    -0.294 C  
HETATM    7  C   UNL     1     -11.112   7.401  70.599  1.00  0.00    -0.266 C  
ENDROOT
BRANCH   3   8
HETATM    8  C   UNL     1     -11.574  11.204  69.108  1.00  0.00    -0.324 C  
HETATM    9  N   UNL     1     -10.802  12.309  69.429  1.00  0.00    -0.457 N  
HETATM   10  H   UNL     1     -10.219  12.233  70.263  1.00  0.00     0.000 HD 
HETATM   11  O   UNL     1     -12.239  11.121  68.082  1.00  0.00    -0.612 OA 
BRANCH   9  12
HETATM   12  C   UNL     1     -10.738  13.533  68.718  1.00  0.00    -0.238 A  
HETATM   13  C   UNL     1      -9.907  13.735  67.614  1.00  0.00    -0.234 A  
HETATM   14  C   UNL     1      -9.869  14.975  66.964  1.00  0.00    -0.241 A  
HETATM   15  C   UNL     1     -10.662  16.023  67.417  1.00  0.00    -0.306 A  
HETATM   16  C   UNL     1     -11.509  15.827  68.502  1.00  0.00    -0.381 A  
HETATM   17  C   UNL     1     -11.561  14.581  69.142  1.00  0.00    -0.331 A  
ENDBRANCH   9  12
ENDBRANCH   3   8
TORSDOF 2
ENDMDL
MODEL       31
REMARK 921   NORMALIZED FREE ENERGY PREDICTED BY IDOCK:   -4.94 KCAL/MOL
REMARK 922        TOTAL FREE ENERGY PREDICTED BY IDOCK:   -5.74 KCAL/MOL
REMARK 923 INTER-LIGAND FREE ENERGY PREDICTED BY IDOCK:   -5.61 KCAL/MOL
REMARK 924 INTRA-LIGAND FREE ENERGY PREDICTED BY IDOCK:   -0.12 KCAL/MOL
REMARK 927      BINDING AFFINITY PREDICTED BY RF-SCORE:    0.00 PKD
ROOT
HETATM    1  C   UNL     1     -11.002  13.948  68.999  1.00  0.00    -0.281 C  
HETATM    2  C   UNL     1     -11.953  13.875  70.168  1.00  0.00    -0.332 C  
HETATM    3  C   UNL     1     -12.493  12.760  70.716  1.00  0.00    -0.271 C  
HETATM    4  S   UNL     1     -13.431  12.863  72.188  1.00  0.00    -0.421 SA 
HETATM    5  O   UNL     1     -12.126  15.150  70.668  1.00  0.00    -0.281 OA 
HETATM    6  C   UNL     1     -13.324  15.542  71.321  1.00  0.00    -0.511 C  
HETATM    7  C   UNL     1     -14.193  14.478  71.974  1.00  0.00    -0.544 C  
ENDROOT
BRANCH   3   8
HETATM    8  C   UNL     1     -12.198  11.350  70.205  1.00  0.00    -0.349 C  
HETATM    9  N   UNL     1     -11.801  10.444  71.175  1.00  0.00    -0.357 N  
HETATM   10  H   UNL     1     -11.799  10.777  72.139  1.00  0.00     0.000 HD 
HETATM   11  O   UNL     1     -12.343  11.053  69.024  1.00  0.00    -0.481 OA 
BRANCH   9  12
HETATM   12  C   UNL     1     -11.396   9.102  70.966  1.00  0.00    -0.309 A  
HETATM   13  C   UNL     1     -10.157   8.751  70.425  1.00  0.00    -0.223 A  
HETATM   14  C   UNL     1      -9.820   7.408  70.218  1.00  0.00    -0.187 A  
HETATM   15  C   UNL     1     -10.724   6.404  70.551  1.00  0.00    -0.311 A  
HETATM   16  C   UNL     1     -11.952   6.741  71.110  1.00  0.00    -0.421 A  
HETATM   17  C   UNL     1     -12.282   8.084  71.333  1.00  0.00    -0.335 A  
ENDBRANCH   9  12
ENDBRANCH   3   8
TORSDOF 2
ENDMDL
MODEL       32
REMARK 921   NORMALIZED FREE ENERGY PREDICTED BY IDOCK:   -4.93 KCAL/MOL
REMARK 922        TOTAL FREE ENERGY PREDICTED BY IDOCK:   -5.72 KCAL/MOL
REMARK 923 INTER-LIGAND FREE ENERGY PREDICTED BY IDOCK:   -5.76 KCAL/MOL
REMARK 924 INTRA-LIGAND FREE ENERGY PREDICTED BY IDOCK:    0.04 KCAL/MOL
REMARK 927      BINDING AFFINITY PREDICTED BY RF-SCORE:    0.00 PKD
ROOT
HETATM    1  C   UNL     1      -9.342  14.141  68.238  1.00  0.00    -0.203 C  
HETATM    2  C   UNL     1     -10.414  14.275  67.184  1.00  0.00    -0.266 C  
HETATM    3  C   UNL     1     -11.412  13.399  66.916  1.00  0.00    -0.342 C  
HETATM    4  S   UNL     1     -12.671  13.815  65.778  1.00  0.00    -0.363 SA 
HETATM    5  O   UNL     1     -10.273  15.504  66.574  1.00  0.00    -0.265 OA 
HETATM    6  C   UNL     1     -10.671  15.723  65.229  1.00  0.00    -0.428 C  
HETATM    7  C   UNL     1     -11.739  14.828  64.619  1.00  0.00    -0.422 C  
ENDROOT
BRANCH   3   8
HETATM    8  C   UNL     1     -11.606  12.091  67.683  1.00  0.00    -0.321 C  
HETATM    9  N   UNL     1     -11.782  12.230  69.051  1.00  0.00    -0.309 N  
HETATM   10  H   UNL     1     -11.828  13.184  69.410  1.00  0.00     0.000 HD 
HETATM   11  O   UNL     1     -11.636  11.009  67.107  1.00  0.00    -0.469 OA 
BRANCH   9  12
HETATM   12  C   UNL     1     -11.906  11.185  70.000  1.00  0.00    -0.361 A  
HETATM   13  C   UNL     1     -13.034  11.011  70.804  1.00  0.00    -0.263 A  
HETATM   14  C   UNL     1     -13.091   9.973  71.743  1.00  0.00    -0.562 A  
HETATM   15  C   UNL     1     -12.016   9.102  71.884  1.00  0.00    -0.443 A  
HETATM   16  C   UNL     1     -10.896   9.253  71.072  1.00  0.00    -0.385 A  
HETATM   17  C   UNL     1     -10.847  10.281  70.121  1.00  0.00    -0.362 A  
ENDBRANCH   9  12
ENDBRANCH   3   8
TORSDOF 2
ENDMDL
MODEL       33
REMARK 921   NORMALIZED FREE ENERGY PREDICTED BY IDOCK:   -4.88 KCAL/MOL
REMARK 922        TOTAL FREE ENERGY PREDICTED BY IDOCK:   -5.67 KCAL/MOL
REMARK 923 INTER-LIGAND FREE ENERGY PREDICTED BY IDOCK:   -5.43 KCAL/MOL
REMARK 924 INTRA-LIGAND FREE ENERGY PREDICTED BY IDOCK:   -0.24 KCAL/MOL
REMARK 927      BINDING AFFINITY PREDICTED BY RF-SCORE:    0.00 PKD
ROOT
HETATM    1  C   UNL     1     -10.343  12.885  66.070  1.00  0.00    -0.294 C  
HETATM    2  C   UNL     1      -9.632  11.859  66.918  1.00  0.00    -0.200 C  
HETATM    3  C   UNL     1     -10.028  11.373  68.119  1.00  0.00    -0.189 C  
HETATM    4  S   UNL     1      -9.163  10.050  68.865  1.00  0.00    -0.179 SA 
HETATM    5  O   UNL     1      -8.527  11.411  66.223  1.00  0.00    -0.177 OA 
HETATM    6  C   UNL     1      -7.364  10.941  66.888  1.00  0.00    -0.128 C  
HETATM    7  C   UNL     1      -7.490  10.398  68.303  1.00  0.00    -0.090 C  
ENDROOT
BRANCH   3   8
HETATM    8  C   UNL     1     -11.315  11.812  68.816  1.00  0.00    -0.267 C  
HETATM    9  N   UNL     1     -11.174  12.869  69.701  1.00  0.00    -0.475 N  
HETATM   10  H   UNL     1     -10.249  13.295  69.761  1.00  0.00     0.000 HD 
HETATM   11  O   UNL     1     -12.391  11.278  68.570  1.00  0.00    -0.543 OA 
BRANCH   9  12
HETATM   12  C   UNL     1     -12.183  13.420  70.530  1.00  0.00    -0.352 A  
HETATM   13  C   UNL     1     -12.812  12.702  71.551  1.00  0.00    -0.368 A  
HETATM   14  C   UNL     1     -13.820  13.292  72.323  1.00  0.00    -0.637 A  
HETATM   15  C   UNL     1     -14.207  14.605  72.079  1.00  0.00    -0.625 A  
HETATM   16  C   UNL     1     -13.573  15.335  71.080  1.00  0.00    -0.540 A  
HETATM   17  C   UNL     1     -12.552  14.752  70.318  1.00  0.00    -0.365 A  
ENDBRANCH   9  12
ENDBRANCH   3   8
TORSDOF 2
ENDMDL
MODEL       34
REMARK 921   NORMALIZED FREE ENERGY PREDICTED BY IDOCK:   -4.86 KCAL/MOL
REMARK 922        TOTAL FREE ENERGY PREDICTED BY IDOCK:   -5.65 KCAL/MOL
REMARK 923 INTER-LIGAND FREE ENERGY PREDICTED BY IDOCK:   -6.04 KCAL/MOL
REMARK 924 INTRA-LIGAND FREE ENERGY PREDICTED BY IDOCK:    0.39 KCAL/MOL
REMARK 927      BINDING AFFINITY PREDICTED BY RF-SCORE:    0.00 PKD
ROOT
HETATM    1  C   UNL     1     -11.354  16.089  69.125  1.00  0.00    -0.352 C  
HETATM    2  C   UNL     1     -12.047  15.218  70.143  1.00  0.00    -0.358 C  
HETATM    3  C   UNL     1     -12.304  13.891  70.046  1.00  0.00    -0.316 C  
HETATM    4  S   UNL     1     -12.955  13.015  71.412  1.00  0.00    -0.202 SA 
HETATM    5  O   UNL     1     -12.311  15.982  71.262  1.00  0.00    -0.437 OA 
HETATM    6  C   UNL     1     -13.411  15.705  72.116  1.00  0.00    -0.460 C  
HETATM    7  C   UNL     1     -13.975  14.294  72.161  1.00  0.00    -0.523 C  
ENDROOT
BRANCH   3   8
HETATM    8  C   UNL     1     -11.905  13.047  68.836  1.00  0.00    -0.316 C  
HETATM    9  N   UNL     1     -11.800  13.743  67.642  1.00  0.00    -0.365 N  
HETATM   10  H   UNL     1     -11.938  14.753  67.688  1.00  0.00     0.000 HD 
HETATM   11  O   UNL     1     -11.663  11.850  68.942  1.00  0.00    -0.278 OA 
BRANCH   9  12
HETATM   12  C   UNL     1     -11.523  13.196  66.364  1.00  0.00    -0.334 A  
HETATM   13  C   UNL     1     -10.265  12.715  65.994  1.00  0.00    -0.287 A  
HETATM   14  C   UNL     1     -10.043  12.206  64.709  1.00  0.00    -0.276 A  
HETATM   15  C   UNL     1     -11.080  12.176  63.783  1.00  0.00    -0.505 A  
HETATM   16  C   UNL     1     -12.342  12.632  64.147  1.00  0.00    -0.518 A  
HETATM   17  C   UNL     1     -12.569  13.125  65.439  1.00  0.00    -0.512 A  
ENDBRANCH   9  12
ENDBRANCH   3   8
TORSDOF 2
ENDMDL
MODEL       35
REMARK 921   NORMALIZED FREE ENERGY PREDICTED BY IDOCK:   -4.85 KCAL/MOL
REMARK 922        TOTAL FREE ENERGY PREDICTED BY IDOCK:   -5.64 KCAL/MOL
REMARK 923 INTER-LIGAND FREE ENERGY PREDICTED BY IDOCK:   -5.30 KCAL/MOL
REMARK 924 INTRA-LIGAND FREE ENERGY PREDICTED BY IDOCK:   -0.33 KCAL/MOL
REMARK 927      BINDING AFFINITY PREDICTED BY RF-SCORE:    0.00 PKD
ROOT
HETATM    1  C   UNL     1     -11.670   6.544  71.192  1.00  0.00    -0.392 C  
HETATM    2  C   UNL     1     -10.969   6.869  69.896  1.00  0.00    -0.277 C  
HETATM    3  C   UNL     1     -10.559   8.088  69.470  1.00  0.00    -0.214 C  
HETATM    4  S   UNL     1      -9.597   8.240  68.018  1.00  0.00    -0.157 SA 
HETATM    5  O   UNL     1     -10.723   5.688  69.226  1.00  0.00    -0.291 OA 
HETATM    6  C   UNL     1     -10.644   5.632  67.810  1.00  0.00    -0.200 C  
HETATM    7  C   UNL     1     -10.272   6.890  67.040  1.00  0.00    -0.248 C  
ENDROOT
BRANCH   3   8
HETATM    8  C   UNL     1     -10.752   9.368  70.285  1.00  0.00    -0.253 C  
HETATM    9  N   UNL     1     -11.907  10.078  70.000  1.00  0.00    -0.433 N  
HETATM   10  H   UNL     1     -12.547   9.658  69.326  1.00  0.00     0.000 HD 
HETATM   11  O   UNL     1      -9.949   9.705  71.148  1.00  0.00    -0.221 OA 
BRANCH   9  12
HETATM   12  C   UNL     1     -12.290  11.327  70.549  1.00  0.00    -0.356 A  
HETATM   13  C   UNL     1     -11.875  12.554  70.024  1.00  0.00    -0.363 A  
HETATM   14  C   UNL     1     -12.266  13.757  70.623  1.00  0.00    -0.434 A  
HETATM   15  C   UNL     1     -13.076  13.742  71.754  1.00  0.00    -0.463 A  
HETATM   16  C   UNL     1     -13.512  12.527  72.272  1.00  0.00    -0.490 A  
HETATM   17  C   UNL     1     -13.135  11.323  71.662  1.00  0.00    -0.513 A  
ENDBRANCH   9  12
ENDBRANCH   3   8
TORSDOF 2
ENDMDL
MODEL       36
REMARK 921   NORMALIZED FREE ENERGY PREDICTED BY IDOCK:   -4.85 KCAL/MOL
REMARK 922        TOTAL FREE ENERGY PREDICTED BY IDOCK:   -5.63 KCAL/MOL
REMARK 923 INTER-LIGAND FREE ENERGY PREDICTED BY IDOCK:   -5.68 KCAL/MOL
REMARK 924 INTRA-LIGAND FREE ENERGY PREDICTED BY IDOCK:    0.05 KCAL/MOL
REMARK 927      BINDING AFFINITY PREDICTED BY RF-SCORE:    0.00 PKD
ROOT
HETATM    1  C   UNL     1     -12.150  13.414  68.290  1.00  0.00    -0.271 C  
HETATM    2  C   UNL     1     -11.772  13.498  66.832  1.00  0.00    -0.384 C  
HETATM    3  C   UNL     1     -11.032  14.461  66.232  1.00  0.00    -0.318 C  
HETATM    4  S   UNL     1     -10.544  14.289  64.562  1.00  0.00    -0.031 SA 
HETATM    5  O   UNL     1     -12.235  12.364  66.196  1.00  0.00    -0.635 OA 
HETATM    6  C   UNL     1     -12.587  12.367  64.821  1.00  0.00    -0.335 C  
HETATM    7  C   UNL     1     -11.962  13.403  63.900  1.00  0.00    -0.465 C  
ENDROOT
BRANCH   3   8
HETATM    8  C   UNL     1     -10.442  15.654  66.985  1.00  0.00    -0.303 C  
HETATM    9  N   UNL     1     -10.379  16.834  66.261  1.00  0.00    -0.319 N  
HETATM   10  H   UNL     1     -10.783  16.818  65.325  1.00  0.00     0.000 HD 
HETATM   11  O   UNL     1     -10.088  15.561  68.155  1.00  0.00    -0.216 OA 
BRANCH   9  12
HETATM   12  C   UNL     1      -9.811  18.060  66.689  1.00  0.00    -0.352 A  
HETATM   13  C   UNL     1     -10.560  19.094  67.255  1.00  0.00    -0.573 A  
HETATM   14  C   UNL     1      -9.948  20.294  67.637  1.00  0.00    -0.551 A  
HETATM   15  C   UNL     1      -8.581  20.468  67.454  1.00  0.00    -0.361 A  
HETATM   16  C   UNL     1      -7.822  19.437  66.912  1.00  0.00    -0.278 A  
HETATM   17  C   UNL     1      -8.431  18.229  66.545  1.00  0.00    -0.287 A  
ENDBRANCH   9  12
ENDBRANCH   3   8
TORSDOF 2
ENDMDL
MODEL       37
REMARK 921   NORMALIZED FREE ENERGY PREDICTED BY IDOCK:   -4.83 KCAL/MOL
REMARK 922        TOTAL FREE ENERGY PREDICTED BY IDOCK:   -5.61 KCAL/MOL
REMARK 923 INTER-LIGAND FREE ENERGY PREDICTED BY IDOCK:   -5.40 KCAL/MOL
REMARK 924 INTRA-LIGAND FREE ENERGY PREDICTED BY IDOCK:   -0.22 KCAL/MOL
REMARK 927      BINDING AFFINITY PREDICTED BY RF-SCORE:    0.00 PKD
ROOT
HETATM    1  C   UNL     1     -11.690  15.171  69.047  1.00  0.00    -0.358 C  
HETATM    2  C   UNL     1     -11.486  15.093  67.555  1.00  0.00    -0.298 C  
HETATM    3  C   UNL     1     -10.854  15.995  66.766  1.00  0.00    -0.195 C  
HETATM    4  S   UNL     1     -10.555  15.641  65.081  1.00  0.00    -0.387 SA 
HETATM    5  O   UNL     1     -11.978  13.882  67.111  1.00  0.00    -0.392 OA 
HETATM    6  C   UNL     1     -12.485  13.716  65.796  1.00  0.00    -0.477 C  
HETATM    7  C   UNL     1     -12.006  14.651  64.695  1.00  0.00    -0.462 C  
ENDROOT
BRANCH   3   8
HETATM    8  C   UNL     1     -10.224  17.281  67.304  1.00  0.00    -0.320 C  
HETATM    9  N   UNL     1      -8.854  17.382  67.129  1.00  0.00    -0.227 N  
HETATM   10  H   UNL     1      -8.402  16.630  66.609  1.00  0.00     0.000 HD 
HETATM   11  O   UNL     1     -10.906  18.161  67.818  1.00  0.00    -0.385 OA 
BRANCH   9  12
HETATM   12  C   UNL     1      -8.015  18.425  67.597  1.00  0.00    -0.242 A  
HETATM   13  C   UNL     1      -7.295  18.350  68.791  1.00  0.00    -0.304 A  
HETATM   14  C   UNL     1      -6.501  19.422  69.216  1.00  0.00    -0.347 A  
HETATM   15  C   UNL     1      -6.421  20.578  68.447  1.00  0.00    -0.324 A  
HETATM   16  C   UNL     1      -7.116  20.654  67.245  1.00  0.00    -0.385 A  
HETATM   17  C   UNL     1      -7.898  19.575  66.811  1.00  0.00    -0.291 A  
ENDBRANCH   9  12
ENDBRANCH   3   8
TORSDOF 2
ENDMDL
MODEL       38
REMARK 921   NORMALIZED FREE ENERGY PREDICTED BY IDOCK:   -4.82 KCAL/MOL
REMARK 922        TOTAL FREE ENERGY PREDICTED BY IDOCK:   -5.60 KCAL/MOL
REMARK 923 INTER-LIGAND FREE ENERGY PREDICTED BY IDOCK:   -5.37 KCAL/MOL
REMARK 924 INTRA-LIGAND FREE ENERGY PREDICTED BY IDOCK:   -0.23 KCAL/MOL
REMARK 927      BINDING AFFINITY PREDICTED BY RF-SCORE:    0.00 PKD
ROOT
HETATM    1  C   UNL     1     -10.149   8.547  66.880  1.00  0.00    -0.364 C  
HETATM    2  C   UNL     1     -10.398   7.541  67.977  1.00  0.00    -0.204 C  
HETATM    3  C   UNL     1     -10.620   7.798  69.288  1.00  0.00    -0.192 C  
HETATM    4  S   UNL     1     -11.073   6.507  70.378  1.00  0.00    -0.361 SA 
HETATM    5  O   UNL     1     -10.454   6.284  67.410  1.00  0.00    -0.180 OA 
HETATM    6  C   UNL     1     -10.086   5.119  68.133  1.00  0.00    -0.129 C  
HETATM    7  C   UNL     1     -10.162   5.136  69.651  1.00  0.00    -0.267 C  
ENDROOT
BRANCH   3   8
HETATM    8  C   UNL     1     -10.657   9.211  69.870  1.00  0.00    -0.230 C  
HETATM    9  N   UNL     1     -11.923   9.753  70.019  1.00  0.00    -0.462 N  
HETATM   10  H   UNL     1     -12.710   9.147  69.788  1.00  0.00     0.000 HD 
HETATM   11  O   UNL     1      -9.631   9.792  70.208  1.00  0.00    -0.249 OA 
BRANCH   9  12
HETATM   12  C   UNL     1     -12.237  11.063  70.459  1.00  0.00    -0.381 A  
HETATM   13  C   UNL     1     -11.815  12.216  69.794  1.00  0.00    -0.397 A  
HETATM   14  C   UNL     1     -12.136  13.486  70.289  1.00  0.00    -0.425 A  
HETATM   15  C   UNL     1     -12.882  13.611  71.456  1.00  0.00    -0.445 A  
HETATM   16  C   UNL     1     -13.326  12.470  72.115  1.00  0.00    -0.540 A  
HETATM   17  C   UNL     1     -13.020  11.199  71.610  1.00  0.00    -0.548 A  
ENDBRANCH   9  12
ENDBRANCH   3   8
TORSDOF 2
ENDMDL
MODEL       39
REMARK 921   NORMALIZED FREE ENERGY PREDICTED BY IDOCK:   -4.81 KCAL/MOL
REMARK 922        TOTAL FREE ENERGY PREDICTED BY IDOCK:   -5.59 KCAL/MOL
REMARK 923 INTER-LIGAND FREE ENERGY PREDICTED BY IDOCK:   -5.66 KCAL/MOL
REMARK 924 INTRA-LIGAND FREE ENERGY PREDICTED BY IDOCK:    0.06 KCAL/MOL
REMARK 927      BINDING AFFINITY PREDICTED BY RF-SCORE:    0.00 PKD
ROOT
HETATM    1  C   UNL     1     -10.874  10.446  67.664  1.00  0.00    -0.361 C  
HETATM    2  C   UNL     1     -10.502   9.627  68.875  1.00  0.00    -0.215 C  
HETATM    3  C   UNL     1     -11.023   9.726  70.121  1.00  0.00    -0.291 C  
HETATM    4  S   UNL     1     -10.595   8.561  71.354  1.00  0.00    -0.267 SA 
HETATM    5  O   UNL     1      -9.584   8.672  68.489  1.00  0.00    -0.151 OA 
HETATM    6  C   UNL     1      -8.615   8.157  69.390  1.00  0.00    -0.135 C  
HETATM    7  C   UNL     1      -8.896   8.203  70.884  1.00  0.00    -0.142 C  
ENDROOT
BRANCH   3   8
HETATM    8  C   UNL     1     -12.118  10.725  70.495  1.00  0.00    -0.366 C  
HETATM    9  N   UNL     1     -11.707  12.046  70.572  1.00  0.00    -0.487 N  
HETATM   10  H   UNL     1     -10.739  12.240  70.316  1.00  0.00     0.000 HD 
HETATM   11  O   UNL     1     -13.277  10.368  70.673  1.00  0.00    -0.350 OA 
BRANCH   9  12
HETATM   12  C   UNL     1     -12.494  13.156  70.969  1.00  0.00    -0.318 A  
HETATM   13  C   UNL     1     -13.449  13.093  71.986  1.00  0.00    -0.598 A  
HETATM   14  C   UNL     1     -14.215  14.217  72.320  1.00  0.00    -0.587 A  
HETATM   15  C   UNL     1     -14.031  15.414  71.635  1.00  0.00    -0.617 A  
HETATM   16  C   UNL     1     -13.068  15.494  70.635  1.00  0.00    -0.361 A  
HETATM   17  C   UNL     1     -12.289  14.374  70.313  1.00  0.00    -0.410 A  
ENDBRANCH   9  12
ENDBRANCH   3   8
TORSDOF 2
ENDMDL
MODEL       40
REMARK 921   NORMALIZED FREE ENERGY PREDICTED BY IDOCK:   -4.80 KCAL/MOL
REMARK 922        TOTAL FREE ENERGY PREDICTED BY IDOCK:   -5.58 KCAL/MOL
REMARK 923 INTER-LIGAND FREE ENERGY PREDICTED BY IDOCK:   -5.29 KCAL/MOL
REMARK 924 INTRA-LIGAND FREE ENERGY PREDICTED BY IDOCK:   -0.29 KCAL/MOL
REMARK 927      BINDING AFFINITY PREDICTED BY RF-SCORE:    0.00 PKD
ROOT
HETATM    1  C   UNL     1     -12.732  11.048  71.413  1.00  0.00    -0.534 C  
HETATM    2  C   UNL     1     -12.112   9.704  71.118  1.00  0.00    -0.362 C  
HETATM    3  C   UNL     1     -11.232   9.407  70.131  1.00  0.00    -0.219 C  
HETATM    4  S   UNL     1     -10.481   7.830  70.062  1.00  0.00    -0.233 SA 
HETATM    5  O   UNL     1     -12.521   8.813  72.089  1.00  0.00    -0.351 OA 
HETATM    6  C   UNL     1     -12.637   7.423  71.829  1.00  0.00    -0.335 C  
HETATM    7  C   UNL     1     -11.813   6.808  70.709  1.00  0.00    -0.392 C  
ENDROOT
BRANCH   3   8
HETATM    8  C   UNL     1     -10.714  10.442  69.132  1.00  0.00    -0.234 C  
HETATM    9  N   UNL     1     -11.550  10.691  68.056  1.00  0.00    -0.421 N  
HETATM   10  H   UNL     1     -12.452  10.214  68.057  1.00  0.00     0.000 HD 
HETATM   11  O   UNL     1      -9.650  11.025  69.308  1.00  0.00    -0.124 OA 
BRANCH   9  12
HETATM   12  C   UNL     1     -11.282  11.540  66.953  1.00  0.00    -0.298 A  
HETATM   13  C   UNL     1     -11.805  12.829  66.834  1.00  0.00    -0.440 A  
HETATM   14  C   UNL     1     -11.525  13.614  65.709  1.00  0.00    -0.326 A  
HETATM   15  C   UNL     1     -10.717  13.113  64.694  1.00  0.00    -0.398 A  
HETATM   16  C   UNL     1     -10.173  11.839  64.812  1.00  0.00    -0.324 A  
HETATM   17  C   UNL     1     -10.440  11.060  65.945  1.00  0.00    -0.300 A  
ENDBRANCH   9  12
ENDBRANCH   3   8
TORSDOF 2
ENDMDL
MODEL       41
REMARK 921   NORMALIZED FREE ENERGY PREDICTED BY IDOCK:   -4.80 KCAL/MOL
REMARK 922        TOTAL FREE ENERGY PREDICTED BY IDOCK:   -5.58 KCAL/MOL
REMARK 923 INTER-LIGAND FREE ENERGY PREDICTED BY IDOCK:   -5.28 KCAL/MOL
REMARK 924 INTRA-LIGAND FREE ENERGY PREDICTED BY IDOCK:   -0.30 KCAL/MOL
REMARK 927      BINDING AFFINITY PREDICTED BY RF-SCORE:    0.00 PKD
ROOT
HETATM    1  C   UNL     1     -12.647  12.180  70.837  1.00  0.00    -0.340 C  
HETATM    2  C   UNL     1     -12.439  10.706  71.082  1.00  0.00    -0.418 C  
HETATM    3  C   UNL     1     -11.636   9.866  70.387  1.00  0.00    -0.282 C  
HETATM    4  S   UNL     1     -11.384   8.226  70.937  1.00  0.00    -0.264 SA 
HETATM    5  O   UNL     1     -13.145  10.349  72.213  1.00  0.00    -0.397 OA 
HETATM    6  C   UNL     1     -13.654   9.037  72.395  1.00  0.00    -0.477 C  
HETATM    7  C   UNL     1     -12.991   7.879  71.667  1.00  0.00    -0.334 C  
ENDROOT
BRANCH   3   8
HETATM    8  C   UNL     1     -10.782  10.315  69.200  1.00  0.00    -0.228 C  
HETATM    9  N   UNL     1     -11.431  10.318  67.976  1.00  0.00    -0.497 N  
HETATM   10  H   UNL     1     -12.423  10.084  67.984  1.00  0.00     0.000 HD 
HETATM   11  O   UNL     1      -9.619  10.675  69.348  1.00  0.00    -0.187 OA 
BRANCH   9  12
HETATM   12  C   UNL     1     -10.857  10.614  66.715  1.00  0.00    -0.169 A  
HETATM   13  C   UNL     1     -11.005  11.848  66.077  1.00  0.00    -0.355 A  
HETATM   14  C   UNL     1     -10.435  12.076  64.818  1.00  0.00    -0.335 A  
HETATM   15  C   UNL     1      -9.712  11.069  64.188  1.00  0.00    -0.332 A  
HETATM   16  C   UNL     1      -9.541   9.844  64.823  1.00  0.00    -0.339 A  
HETATM   17  C   UNL     1     -10.096   9.621  66.090  1.00  0.00    -0.328 A  
ENDBRANCH   9  12
ENDBRANCH   3   8
TORSDOF 2
ENDMDL
MODEL       42
REMARK 921   NORMALIZED FREE ENERGY PREDICTED BY IDOCK:   -4.80 KCAL/MOL
REMARK 922        TOTAL FREE ENERGY PREDICTED BY IDOCK:   -5.58 KCAL/MOL
REMARK 923 INTER-LIGAND FREE ENERGY PREDICTED BY IDOCK:   -5.35 KCAL/MOL
REMARK 924 INTRA-LIGAND FREE ENERGY PREDICTED BY IDOCK:   -0.23 KCAL/MOL
REMARK 927      BINDING AFFINITY PREDICTED BY RF-SCORE:    0.00 PKD
ROOT
HETATM    1  C   UNL     1     -12.557  15.448  70.507  1.00  0.00    -0.471 C  
HETATM    2  C   UNL     1     -11.958  14.174  69.964  1.00  0.00    -0.340 C  
HETATM    3  C   UNL     1     -11.276  14.020  68.804  1.00  0.00    -0.271 C  
HETATM    4  S   UNL     1     -10.495  12.500  68.432  1.00  0.00    -0.238 SA 
HETATM    5  O   UNL     1     -12.138  13.175  70.899  1.00  0.00    -0.308 OA 
HETATM    6  C   UNL     1     -12.252  11.811  70.525  1.00  0.00    -0.347 C  
HETATM    7  C   UNL     1     -11.638  11.351  69.212  1.00  0.00    -0.317 C  
ENDROOT
BRANCH   3   8
HETATM    8  C   UNL     1     -10.999  15.171  67.836  1.00  0.00    -0.302 C  
HETATM    9  N   UNL     1     -10.124  16.137  68.305  1.00  0.00    -0.228 N  
HETATM   10  H   UNL     1      -9.700  15.966  69.217  1.00  0.00     0.000 HD 
HETATM   11  O   UNL     1     -11.498  15.200  66.716  1.00  0.00    -0.303 OA 
BRANCH   9  12
HETATM   12  C   UNL     1      -9.757  17.338  67.648  1.00  0.00    -0.272 A  
HETATM   13  C   UNL     1      -8.609  17.461  66.862  1.00  0.00    -0.270 A  
HETATM   14  C   UNL     1      -8.284  18.681  66.256  1.00  0.00    -0.258 A  
HETATM   15  C   UNL     1      -9.106  19.788  66.434  1.00  0.00    -0.452 A  
HETATM   16  C   UNL     1     -10.264  19.671  67.197  1.00  0.00    -0.558 A  
HETATM   17  C   UNL     1     -10.598  18.446  67.789  1.00  0.00    -0.419 A  
ENDBRANCH   9  12
ENDBRANCH   3   8
TORSDOF 2
ENDMDL
MODEL       43
REMARK 921   NORMALIZED FREE ENERGY PREDICTED BY IDOCK:   -4.79 KCAL/MOL
REMARK 922        TOTAL FREE ENERGY PREDICTED BY IDOCK:   -5.56 KCAL/MOL
REMARK 923 INTER-LIGAND FREE ENERGY PREDICTED BY IDOCK:   -5.28 KCAL/MOL
REMARK 924 INTRA-LIGAND FREE ENERGY PREDICTED BY IDOCK:   -0.28 KCAL/MOL
REMARK 927      BINDING AFFINITY PREDICTED BY RF-SCORE:    0.00 PKD
ROOT
HETATM    1  C   UNL     1     -10.824  16.286  69.912  1.00  0.00    -0.352 C  
HETATM    2  C   UNL     1     -11.777  15.446  70.726  1.00  0.00    -0.348 C  
HETATM    3  C   UNL     1     -12.241  14.210  70.424  1.00  0.00    -0.356 C  
HETATM    4  S   UNL     1     -13.196  13.315  71.584  1.00  0.00    -0.312 SA 
HETATM    5  O   UNL     1     -12.044  16.110  71.906  1.00  0.00    -0.476 OA 
HETATM    6  C   UNL     1     -13.272  15.943  72.598  1.00  0.00    -0.472 C  
HETATM    7  C   UNL     1     -14.069  14.664  72.392  1.00  0.00    -0.444 C  
ENDROOT
BRANCH   3   8
HETATM    8  C   UNL     1     -11.843  13.453  69.157  1.00  0.00    -0.336 C  
HETATM    9  N   UNL     1     -11.035  12.345  69.362  1.00  0.00    -0.453 N  
HETATM   10  H   UNL     1     -10.832  12.101  70.331  1.00  0.00     0.000 HD 
HETATM   11  O   UNL     1     -12.248  13.796  68.051  1.00  0.00    -0.323 OA 
BRANCH   9  12
HETATM   12  C   UNL     1     -10.464  11.518  68.363  1.00  0.00    -0.207 A  
HETATM   13  C   UNL     1     -11.031  10.309  67.954  1.00  0.00    -0.350 A  
HETATM   14  C   UNL     1     -10.408   9.520  66.979  1.00  0.00    -0.319 A  
HETATM   15  C   UNL     1      -9.211   9.935  66.407  1.00  0.00    -0.195 A  
HETATM   16  C   UNL     1      -8.648  11.148  66.792  1.00  0.00    -0.157 A  
HETATM   17  C   UNL     1      -9.280  11.946  67.755  1.00  0.00    -0.184 A  
ENDBRANCH   9  12
ENDBRANCH   3   8
TORSDOF 2
ENDMDL
MODEL       44
REMARK 921   NORMALIZED FREE ENERGY PREDICTED BY IDOCK:   -4.68 KCAL/MOL
REMARK 922        TOTAL FREE ENERGY PREDICTED BY IDOCK:   -5.45 KCAL/MOL
REMARK 923 INTER-LIGAND FREE ENERGY PREDICTED BY IDOCK:   -5.15 KCAL/MOL
REMARK 924 INTRA-LIGAND FREE ENERGY PREDICTED BY IDOCK:   -0.29 KCAL/MOL
REMARK 927      BINDING AFFINITY PREDICTED BY RF-SCORE:    0.00 PKD
ROOT
HETATM    1  C   UNL     1      -9.832  10.226  64.787  1.00  0.00    -0.403 C  
HETATM    2  C   UNL     1     -10.563  11.526  65.015  1.00  0.00    -0.297 C  
HETATM    3  C   UNL     1     -10.856  12.102  66.205  1.00  0.00    -0.282 C  
HETATM    4  S   UNL     1     -11.550  13.706  66.264  1.00  0.00    -0.366 SA 
HETATM    5  O   UNL     1     -10.821  12.101  63.788  1.00  0.00    -0.352 OA 
HETATM    6  C   UNL     1     -11.940  12.949  63.578  1.00  0.00    -0.556 C  
HETATM    7  C   UNL     1     -12.544  13.683  64.765  1.00  0.00    -0.295 C  
ENDROOT
BRANCH   3   8
HETATM    8  C   UNL     1     -10.463  11.491  67.551  1.00  0.00    -0.199 C  
HETATM    9  N   UNL     1     -11.366  10.575  68.067  1.00  0.00    -0.428 N  
HETATM   10  H   UNL     1     -12.170  10.347  67.483  1.00  0.00     0.000 HD 
HETATM   11  O   UNL     1      -9.405  11.778  68.100  1.00  0.00    -0.178 OA 
BRANCH   9  12
HETATM   12  C   UNL     1     -11.286   9.923  69.323  1.00  0.00    -0.130 A  
HETATM   13  C   UNL     1     -12.007  10.334  70.446  1.00  0.00    -0.391 A  
HETATM   14  C   UNL     1     -11.869   9.665  71.669  1.00  0.00    -0.457 A  
HETATM   15  C   UNL     1     -11.007   8.579  71.776  1.00  0.00    -0.376 A  
HETATM   16  C   UNL     1     -10.300   8.148  70.658  1.00  0.00    -0.214 A  
HETATM   17  C   UNL     1     -10.451   8.807  69.430  1.00  0.00    -0.228 A  
ENDBRANCH   9  12
ENDBRANCH   3   8
TORSDOF 2
ENDMDL
MODEL       45
REMARK 921   NORMALIZED FREE ENERGY PREDICTED BY IDOCK:   -4.67 KCAL/MOL
REMARK 922        TOTAL FREE ENERGY PREDICTED BY IDOCK:   -5.43 KCAL/MOL
REMARK 923 INTER-LIGAND FREE ENERGY PREDICTED BY IDOCK:   -5.22 KCAL/MOL
REMARK 924 INTRA-LIGAND FREE ENERGY PREDICTED BY IDOCK:   -0.22 KCAL/MOL
REMARK 927      BINDING AFFINITY PREDICTED BY RF-SCORE:    0.00 PKD
ROOT
HETATM    1  C   UNL     1      -7.420  16.369  68.920  1.00  0.00    -0.214 C  
HETATM    2  C   UNL     1      -7.945  17.707  68.461  1.00  0.00    -0.283 C  
HETATM    3  C   UNL     1      -9.140  17.960  67.876  1.00  0.00    -0.260 C  
HETATM    4  S   UNL     1      -9.650  19.606  67.581  1.00  0.00    -0.366 SA 
HETATM    5  O   UNL     1      -7.033  18.679  68.819  1.00  0.00    -0.271 OA 
HETATM    6  C   UNL     1      -6.890  19.881  68.078  1.00  0.00    -0.274 C  
HETATM    7  C   UNL     1      -8.061  20.382  67.248  1.00  0.00    -0.338 C  
ENDROOT
BRANCH   3   8
HETATM    8  C   UNL     1     -10.178  16.874  67.587  1.00  0.00    -0.306 C  
HETATM    9  N   UNL     1      -9.815  15.958  66.613  1.00  0.00    -0.243 N  
HETATM   10  H   UNL     1      -8.877  16.051  66.224  1.00  0.00     0.000 HD 
HETATM   11  O   UNL     1     -11.233  16.815  68.210  1.00  0.00    -0.333 OA 
BRANCH   9  12
HETATM   12  C   UNL     1     -10.614  14.905  66.102  1.00  0.00    -0.318 A  
HETATM   13  C   UNL     1     -11.438  15.042  64.983  1.00  0.00    -0.364 A  
HETATM   14  C   UNL     1     -12.224  13.973  64.537  1.00  0.00    -0.463 A  
HETATM   15  C   UNL     1     -12.193  12.757  65.210  1.00  0.00    -0.535 A  
HETATM   16  C   UNL     1     -11.360  12.602  66.313  1.00  0.00    -0.376 A  
HETATM   17  C   UNL     1     -10.560  13.666  66.749  1.00  0.00    -0.273 A  
ENDBRANCH   9  12
ENDBRANCH   3   8
TORSDOF 2
ENDMDL
MODEL       46
REMARK 921   NORMALIZED FREE ENERGY PREDICTED BY IDOCK:   -4.66 KCAL/MOL
REMARK 922        TOTAL FREE ENERGY PREDICTED BY IDOCK:   -5.43 KCAL/MOL
REMARK 923 INTER-LIGAND FREE ENERGY PREDICTED BY IDOCK:   -5.11 KCAL/MOL
REMARK 924 INTRA-LIGAND FREE ENERGY PREDICTED BY IDOCK:   -0.32 KCAL/MOL
REMARK 927      BINDING AFFINITY PREDICTED BY RF-SCORE:    0.00 PKD
ROOT
HETATM    1  C   UNL     1     -10.579   7.114  68.409  1.00  0.00    -0.223 C  
HETATM    2  C   UNL     1     -10.890   7.324  69.871  1.00  0.00    -0.247 C  
HETATM    3  C   UNL     1     -10.935   8.503  70.537  1.00  0.00    -0.241 C  
HETATM    4  S   UNL     1     -11.495   8.562  72.192  1.00  0.00    -0.377 SA 
HETATM    5  O   UNL     1     -11.219   6.104  70.425  1.00  0.00    -0.333 OA 
HETATM    6  C   UNL     1     -10.989   5.819  71.797  1.00  0.00    -0.256 C  
HETATM    7  C   UNL     1     -10.912   6.969  72.789  1.00  0.00    -0.294 C  
ENDROOT
BRANCH   3   8
HETATM    8  C   UNL     1     -10.669   9.853  69.869  1.00  0.00    -0.280 C  
HETATM    9  N   UNL     1     -11.800  10.598  69.579  1.00  0.00    -0.413 N  
HETATM   10  H   UNL     1     -12.693  10.214  69.887  1.00  0.00     0.000 HD 
HETATM   11  O   UNL     1      -9.528  10.244  69.648  1.00  0.00    -0.211 OA 
BRANCH   9  12
HETATM   12  C   UNL     1     -11.843  11.840  68.897  1.00  0.00    -0.320 A  
HETATM   13  C   UNL     1     -11.776  11.953  67.507  1.00  0.00    -0.335 A  
HETATM   14  C   UNL     1     -11.800  13.210  66.889  1.00  0.00    -0.444 A  
HETATM   15  C   UNL     1     -11.890  14.364  67.660  1.00  0.00    -0.412 A  
HETATM   16  C   UNL     1     -11.979  14.262  69.044  1.00  0.00    -0.360 A  
HETATM   17  C   UNL     1     -11.973  13.004  69.661  1.00  0.00    -0.367 A  
ENDBRANCH   9  12
ENDBRANCH   3   8
TORSDOF 2
ENDMDL
MODEL       47
REMARK 921   NORMALIZED FREE ENERGY PREDICTED BY IDOCK:   -4.65 KCAL/MOL
REMARK 922        TOTAL FREE ENERGY PREDICTED BY IDOCK:   -5.42 KCAL/MOL
REMARK 923 INTER-LIGAND FREE ENERGY PREDICTED BY IDOCK:   -5.15 KCAL/MOL
REMARK 924 INTRA-LIGAND FREE ENERGY PREDICTED BY IDOCK:   -0.26 KCAL/MOL
REMARK 927      BINDING AFFINITY PREDICTED BY RF-SCORE:    0.00 PKD
ROOT
HETATM    1  C   UNL     1     -11.904  14.261  69.445  1.00  0.00    -0.372 C  
HETATM    2  C   UNL     1     -11.432  15.010  68.223  1.00  0.00    -0.332 C  
HETATM    3  C   UNL     1     -11.137  14.490  67.008  1.00  0.00    -0.322 C  
HETATM    4  S   UNL     1     -10.782  15.543  65.658  1.00  0.00    -0.372 SA 
HETATM    5  O   UNL     1     -11.430  16.359  68.514  1.00  0.00    -0.351 OA 
HETATM    6  C   UNL     1     -10.536  17.261  67.879  1.00  0.00    -0.384 C  
HETATM    7  C   UNL     1      -9.971  16.902  66.513  1.00  0.00    -0.301 C  
ENDROOT
BRANCH   3   8
HETATM    8  C   UNL     1     -11.251  13.000  66.684  1.00  0.00    -0.307 C  
HETATM    9  N   UNL     1     -10.199  12.218  67.133  1.00  0.00    -0.210 N  
HETATM   10  H   UNL     1      -9.482  12.690  67.684  1.00  0.00     0.000 HD 
HETATM   11  O   UNL     1     -12.229  12.544  66.101  1.00  0.00    -0.609 OA 
BRANCH   9  12
HETATM   12  C   UNL     1     -10.016  10.832  66.904  1.00  0.00    -0.200 A  
HETATM   13  C   UNL     1     -10.738   9.843  67.576  1.00  0.00    -0.333 A  
HETATM   14  C   UNL     1     -10.498   8.487  67.325  1.00  0.00    -0.366 A  
HETATM   15  C   UNL     1      -9.531   8.109  66.400  1.00  0.00    -0.285 A  
HETATM   16  C   UNL     1      -8.821   9.086  65.710  1.00  0.00    -0.216 A  
HETATM   17  C   UNL     1      -9.073  10.443  65.947  1.00  0.00    -0.192 A  
ENDBRANCH   9  12
ENDBRANCH   3   8
TORSDOF 2
ENDMDL
MODEL       48
REMARK 921   NORMALIZED FREE ENERGY PREDICTED BY IDOCK:   -4.64 KCAL/MOL
REMARK 922        TOTAL FREE ENERGY PREDICTED BY IDOCK:   -5.40 KCAL/MOL
REMARK 923 INTER-LIGAND FREE ENERGY PREDICTED BY IDOCK:   -5.15 KCAL/MOL
REMARK 924 INTRA-LIGAND FREE ENERGY PREDICTED BY IDOCK:   -0.26 KCAL/MOL
REMARK 927      BINDING AFFINITY PREDICTED BY RF-SCORE:    0.00 PKD
ROOT
HETATM    1  C   UNL     1     -12.470  11.204  70.699  1.00  0.00    -0.448 C  
HETATM    2  C   UNL     1     -11.236  10.362  70.488  1.00  0.00    -0.314 C  
HETATM    3  C   UNL     1     -10.325  10.480  69.492  1.00  0.00    -0.221 C  
HETATM    4  S   UNL     1      -8.858   9.528  69.517  1.00  0.00    -0.195 SA 
HETATM    5  O   UNL     1     -11.123   9.481  71.544  1.00  0.00    -0.367 OA 
HETATM    6  C   UNL     1     -10.492   8.218  71.402  1.00  0.00    -0.219 C  
HETATM    7  C   UNL     1      -9.461   8.025  70.301  1.00  0.00    -0.167 C  
ENDROOT
BRANCH   3   8
HETATM    8  C   UNL     1     -10.420  11.537  68.391  1.00  0.00    -0.207 C  
HETATM    9  N   UNL     1     -11.293  11.234  67.358  1.00  0.00    -0.299 N  
HETATM   10  H   UNL     1     -11.833  10.374  67.453  1.00  0.00     0.000 HD 
HETATM   11  O   UNL     1      -9.789  12.586  68.454  1.00  0.00    -0.225 OA 
BRANCH   9  12
HETATM   12  C   UNL     1     -11.513  11.997  66.185  1.00  0.00    -0.339 A  
HETATM   13  C   UNL     1     -10.979  11.657  64.939  1.00  0.00    -0.345 A  
HETATM   14  C   UNL     1     -11.211  12.463  63.818  1.00  0.00    -0.520 A  
HETATM   15  C   UNL     1     -11.978  13.617  63.934  1.00  0.00    -0.455 A  
HETATM   16  C   UNL     1     -12.533  13.953  65.165  1.00  0.00    -0.479 A  
HETATM   17  C   UNL     1     -12.316  13.138  66.284  1.00  0.00    -0.346 A  
ENDBRANCH   9  12
ENDBRANCH   3   8
TORSDOF 2
ENDMDL
MODEL       49
REMARK 921   NORMALIZED FREE ENERGY PREDICTED BY IDOCK:   -4.59 KCAL/MOL
REMARK 922        TOTAL FREE ENERGY PREDICTED BY IDOCK:   -5.34 KCAL/MOL
REMARK 923 INTER-LIGAND FREE ENERGY PREDICTED BY IDOCK:   -5.32 KCAL/MOL
REMARK 924 INTRA-LIGAND FREE ENERGY PREDICTED BY IDOCK:   -0.02 KCAL/MOL
REMARK 927      BINDING AFFINITY PREDICTED BY RF-SCORE:    0.00 PKD
ROOT
HETATM    1  C   UNL     1     -10.885  11.381  64.291  1.00  0.00    -0.416 C  
HETATM    2  C   UNL     1     -10.652  12.519  65.254  1.00  0.00    -0.290 C  
HETATM    3  C   UNL     1     -10.779  12.490  66.602  1.00  0.00    -0.236 C  
HETATM    4  S   UNL     1     -10.285  13.862  67.567  1.00  0.00    -0.246 SA 
HETATM    5  O   UNL     1     -10.189  13.606  64.539  1.00  0.00    -0.402 OA 
HETATM    6  C   UNL     1     -10.425  14.938  64.966  1.00  0.00    -0.401 C  
HETATM    7  C   UNL     1     -10.681  15.208  66.441  1.00  0.00    -0.317 C  
ENDROOT
BRANCH   3   8
HETATM    8  C   UNL     1     -11.192  11.239  67.377  1.00  0.00    -0.303 C  
HETATM    9  N   UNL     1     -10.332  10.160  67.254  1.00  0.00    -0.222 N  
HETATM   10  H   UNL     1      -9.480  10.313  66.715  1.00  0.00     0.000 HD 
HETATM   11  O   UNL     1     -12.197  11.223  68.080  1.00  0.00    -0.621 OA 
BRANCH   9  12
HETATM   12  C   UNL     1     -10.514   8.865  67.801  1.00  0.00    -0.239 A  
HETATM   13  C   UNL     1     -10.723   7.726  67.019  1.00  0.00    -0.316 A  
HETATM   14  C   UNL     1     -10.921   6.475  67.616  1.00  0.00    -0.426 A  
HETATM   15  C   UNL     1     -10.912   6.354  69.001  1.00  0.00    -0.410 A  
HETATM   16  C   UNL     1     -10.684   7.478  69.789  1.00  0.00    -0.249 A  
HETATM   17  C   UNL     1     -10.468   8.727  69.191  1.00  0.00    -0.230 A  
ENDBRANCH   9  12
ENDBRANCH   3   8
TORSDOF 2
ENDMDL
MODEL       50
REMARK 921   NORMALIZED FREE ENERGY PREDICTED BY IDOCK:   -4.59 KCAL/MOL
REMARK 922        TOTAL FREE ENERGY PREDICTED BY IDOCK:   -5.34 KCAL/MOL
REMARK 923 INTER-LIGAND FREE ENERGY PREDICTED BY IDOCK:   -5.06 KCAL/MOL
REMARK 924 INTRA-LIGAND FREE ENERGY PREDICTED BY IDOCK:   -0.28 KCAL/MOL
REMARK 927      BINDING AFFINITY PREDICTED BY RF-SCORE:    0.00 PKD
ROOT
HETATM    1  C   UNL     1     -13.023  10.757  71.824  1.00  0.00    -0.568 C  
HETATM    2  C   UNL     1     -12.793  12.207  71.477  1.00  0.00    -0.289 C  
HETATM    3  C   UNL     1     -12.153  12.696  70.388  1.00  0.00    -0.300 C  
HETATM    4  S   UNL     1     -12.147  14.414  70.064  1.00  0.00    -0.360 SA 
HETATM    5  O   UNL     1     -13.429  12.987  72.421  1.00  0.00    -0.567 OA 
HETATM    6  C   UNL     1     -12.964  14.285  72.757  1.00  0.00    -0.453 C  
HETATM    7  C   UNL     1     -12.138  15.060  71.742  1.00  0.00    -0.361 C  
ENDROOT
BRANCH   3   8
HETATM    8  C   UNL     1     -11.548  11.806  69.302  1.00  0.00    -0.315 C  
HETATM    9  N   UNL     1     -10.170  11.673  69.349  1.00  0.00    -0.411 N  
HETATM   10  H   UNL     1      -9.694  12.125  70.130  1.00  0.00     0.000 HD 
HETATM   11  O   UNL     1     -12.253  11.231  68.479  1.00  0.00    -0.588 OA 
BRANCH   9  12
HETATM   12  C   UNL     1      -9.354  10.975  68.424  1.00  0.00    -0.179 A  
HETATM   13  C   UNL     1      -8.874   9.682  68.650  1.00  0.00    -0.128 A  
HETATM   14  C   UNL     1      -8.052   9.050  67.710  1.00  0.00    -0.109 A  
HETATM   15  C   UNL     1      -7.702   9.708  66.536  1.00  0.00    -0.098 A  
HETATM   16  C   UNL     1      -8.191  10.986  66.291  1.00  0.00    -0.164 A  
HETATM   17  C   UNL     1      -9.029  11.613  67.224  1.00  0.00    -0.169 A  
ENDBRANCH   9  12
ENDBRANCH   3   8
TORSDOF 2
ENDMDL
MODEL       51
REMARK 921   NORMALIZED FREE ENERGY PREDICTED BY IDOCK:   -4.58 KCAL/MOL
REMARK 922        TOTAL FREE ENERGY PREDICTED BY IDOCK:   -5.34 KCAL/MOL
REMARK 923 INTER-LIGAND FREE ENERGY PREDICTED BY IDOCK:   -5.05 KCAL/MOL
REMARK 924 INTRA-LIGAND FREE ENERGY PREDICTED BY IDOCK:   -0.29 KCAL/MOL
REMARK 927      BINDING AFFINITY PREDICTED BY RF-SCORE:    0.00 PKD
ROOT
HETATM    1  C   UNL     1     -10.705   6.701  68.482  1.00  0.00    -0.308 C  
HETATM    2  C   UNL     1     -11.017   7.261  69.848  1.00  0.00    -0.243 C  
HETATM    3  C   UNL     1     -10.959   8.558  70.234  1.00  0.00    -0.235 C  
HETATM    4  S   UNL     1     -11.538   9.037  71.812  1.00  0.00    -0.383 SA 
HETATM    5  O   UNL     1     -11.471   6.231  70.646  1.00  0.00    -0.347 OA 
HETATM    6  C   UNL     1     -11.293   6.241  72.054  1.00  0.00    -0.300 C  
HETATM    7  C   UNL     1     -11.121   7.572  72.769  1.00  0.00    -0.366 C  
ENDROOT
BRANCH   3   8
HETATM    8  C   UNL     1     -10.554   9.694  69.294  1.00  0.00    -0.219 C  
HETATM    9  N   UNL     1     -11.603  10.456  68.806  1.00  0.00    -0.497 N  
HETATM   10  H   UNL     1     -12.533  10.234  69.159  1.00  0.00     0.000 HD 
HETATM   11  O   UNL     1      -9.377   9.920  69.033  1.00  0.00    -0.157 OA 
BRANCH   9  12
HETATM   12  C   UNL     1     -11.515  11.513  67.865  1.00  0.00    -0.301 A  
HETATM   13  C   UNL     1     -11.260  11.310  66.507  1.00  0.00    -0.222 A  
HETATM   14  C   UNL     1     -11.161  12.396  65.628  1.00  0.00    -0.360 A  
HETATM   15  C   UNL     1     -11.316  13.694  66.103  1.00  0.00    -0.324 A  
HETATM   16  C   UNL     1     -11.591  13.906  67.449  1.00  0.00    -0.398 A  
HETATM   17  C   UNL     1     -11.708  12.819  68.326  1.00  0.00    -0.388 A  
ENDBRANCH   9  12
ENDBRANCH   3   8
TORSDOF 2
ENDMDL
MODEL       52
REMARK 921   NORMALIZED FREE ENERGY PREDICTED BY IDOCK:   -4.58 KCAL/MOL
REMARK 922        TOTAL FREE ENERGY PREDICTED BY IDOCK:   -5.34 KCAL/MOL
REMARK 923 INTER-LIGAND FREE ENERGY PREDICTED BY IDOCK:   -5.39 KCAL/MOL
REMARK 924 INTRA-LIGAND FREE ENERGY PREDICTED BY IDOCK:    0.06 KCAL/MOL
REMARK 927      BINDING AFFINITY PREDICTED BY RF-SCORE:    0.00 PKD
ROOT
HETATM    1  C   UNL     1     -12.124  14.479  68.128  1.00  0.00    -0.232 C  
HETATM    2  C   UNL     1     -11.754  13.651  66.922  1.00  0.00    -0.389 C  
HETATM    3  C   UNL     1     -11.164  12.431  66.917  1.00  0.00    -0.305 C  
HETATM    4  S   UNL     1     -10.981  11.544  65.421  1.00  0.00    -0.178 SA 
HETATM    5  O   UNL     1     -12.201  14.304  65.792  1.00  0.00    -0.408 OA 
HETATM    6  C   UNL     1     -11.552  14.158  64.537  1.00  0.00    -0.389 C  
HETATM    7  C   UNL     1     -10.738  12.903  64.267  1.00  0.00    -0.406 C  
ENDROOT
BRANCH   3   8
HETATM    8  C   UNL     1     -10.776  11.683  68.192  1.00  0.00    -0.213 C  
HETATM    9  N   UNL     1     -11.797  10.954  68.781  1.00  0.00    -0.434 N  
HETATM   10  H   UNL     1     -12.688  10.932  68.284  1.00  0.00     0.000 HD 
HETATM   11  O   UNL     1      -9.630  11.710  68.627  1.00  0.00    -0.190 OA 
BRANCH   9  12
HETATM   12  C   UNL     1     -11.730  10.236  70.001  1.00  0.00    -0.254 A  
HETATM   13  C   UNL     1     -10.593   9.542  70.420  1.00  0.00    -0.333 A  
HETATM   14  C   UNL     1     -10.593   8.830  71.626  1.00  0.00    -0.401 A  
HETATM   15  C   UNL     1     -11.734   8.807  72.421  1.00  0.00    -0.337 A  
HETATM   16  C   UNL     1     -12.865   9.512  72.024  1.00  0.00    -0.499 A  
HETATM   17  C   UNL     1     -12.859  10.239  70.826  1.00  0.00    -0.427 A  
ENDBRANCH   9  12
ENDBRANCH   3   8
TORSDOF 2
ENDMDL
MODEL       53
REMARK 921   NORMALIZED FREE ENERGY PREDICTED BY IDOCK:   -4.58 KCAL/MOL
REMARK 922        TOTAL FREE ENERGY PREDICTED BY IDOCK:   -5.33 KCAL/MOL
REMARK 923 INTER-LIGAND FREE ENERGY PREDICTED BY IDOCK:   -5.09 KCAL/MOL
REMARK 924 INTRA-LIGAND FREE ENERGY PREDICTED BY IDOCK:   -0.25 KCAL/MOL
REMARK 927      BINDING AFFINITY PREDICTED BY RF-SCORE:    0.00 PKD
ROOT
HETATM    1  C   UNL     1     -10.909   6.335  68.605  1.00  0.00    -0.401 C  
HETATM    2  C   UNL     1     -11.127   7.082  69.898  1.00  0.00    -0.264 C  
HETATM    3  C   UNL     1     -10.879   8.391  70.139  1.00  0.00    -0.236 C  
HETATM    4  S   UNL     1     -11.371   9.121  71.649  1.00  0.00    -0.387 SA 
HETATM    5  O   UNL     1     -11.719   6.223  70.802  1.00  0.00    -0.340 OA 
HETATM    6  C   UNL     1     -11.531   6.363  72.201  1.00  0.00    -0.301 C  
HETATM    7  C   UNL     1     -11.163   7.726  72.766  1.00  0.00    -0.398 C  
ENDROOT
BRANCH   3   8
HETATM    8  C   UNL     1     -10.321   9.346  69.083  1.00  0.00    -0.211 C  
HETATM    9  N   UNL     1     -11.259   9.870  68.208  1.00  0.00    -0.514 N  
HETATM   10  H   UNL     1     -12.233   9.625  68.382  1.00  0.00     0.000 HD 
HETATM   11  O   UNL     1      -9.131   9.641  69.051  1.00  0.00    -0.137 OA 
BRANCH   9  12
HETATM   12  C   UNL     1     -11.003  10.712  67.097  1.00  0.00    -0.247 A  
HETATM   13  C   UNL     1     -11.375  12.058  67.055  1.00  0.00    -0.396 A  
HETATM   14  C   UNL     1     -11.117  12.836  65.920  1.00  0.00    -0.318 A  
HETATM   15  C   UNL     1     -10.486  12.272  64.816  1.00  0.00    -0.328 A  
HETATM   16  C   UNL     1     -10.092  10.938  64.856  1.00  0.00    -0.374 A  
HETATM   17  C   UNL     1     -10.334  10.164  65.998  1.00  0.00    -0.234 A  
ENDBRANCH   9  12
ENDBRANCH   3   8
TORSDOF 2
ENDMDL
MODEL       54
REMARK 921   NORMALIZED FREE ENERGY PREDICTED BY IDOCK:   -4.55 KCAL/MOL
REMARK 922        TOTAL FREE ENERGY PREDICTED BY IDOCK:   -5.30 KCAL/MOL
REMARK 923 INTER-LIGAND FREE ENERGY PREDICTED BY IDOCK:   -5.06 KCAL/MOL
REMARK 924 INTRA-LIGAND FREE ENERGY PREDICTED BY IDOCK:   -0.24 KCAL/MOL
REMARK 927      BINDING AFFINITY PREDICTED BY RF-SCORE:    0.00 PKD
ROOT
HETATM    1  C   UNL     1     -12.039  12.817  70.178  1.00  0.00    -0.370 C  
HETATM    2  C   UNL     1     -11.594  12.476  68.777  1.00  0.00    -0.322 C  
HETATM    3  C   UNL     1     -10.883  11.392  68.385  1.00  0.00    -0.207 C  
HETATM    4  S   UNL     1     -10.621  11.074  66.685  1.00  0.00    -0.250 SA 
HETATM    5  O   UNL     1     -12.113  13.420  67.914  1.00  0.00    -0.338 OA 
HETATM    6  C   UNL     1     -11.462  13.763  66.701  1.00  0.00    -0.345 C  
HETATM    7  C   UNL     1     -10.525  12.755  66.053  1.00  0.00    -0.274 C  
ENDROOT
BRANCH   3   8
HETATM    8  C   UNL     1     -10.412  10.305  69.351  1.00  0.00    -0.236 C  
HETATM    9  N   UNL     1     -11.410   9.472  69.833  1.00  0.00    -0.398 N  
HETATM   10  H   UNL     1     -12.347   9.618  69.457  1.00  0.00     0.000 HD 
HETATM   11  O   UNL     1      -9.228  10.173  69.639  1.00  0.00    -0.214 OA 
BRANCH   9  12
HETATM   12  C   UNL     1     -11.262   8.440  70.793  1.00  0.00    -0.263 A  
HETATM   13  C   UNL     1     -11.077   8.683  72.156  1.00  0.00    -0.434 A  
HETATM   14  C   UNL     1     -10.913   7.623  73.055  1.00  0.00    -0.457 A  
HETATM   15  C   UNL     1     -10.931   6.310  72.597  1.00  0.00    -0.285 A  
HETATM   16  C   UNL     1     -11.137   6.056  71.245  1.00  0.00    -0.337 A  
HETATM   17  C   UNL     1     -11.319   7.117  70.347  1.00  0.00    -0.325 A  
ENDBRANCH   9  12
ENDBRANCH   3   8
TORSDOF 2
ENDMDL
MODEL       55
REMARK 921   NORMALIZED FREE ENERGY PREDICTED BY IDOCK:   -4.51 KCAL/MOL
REMARK 922        TOTAL FREE ENERGY PREDICTED BY IDOCK:   -5.26 KCAL/MOL
REMARK 923 INTER-LIGAND FREE ENERGY PREDICTED BY IDOCK:   -4.95 KCAL/MOL
REMARK 924 INTRA-LIGAND FREE ENERGY PREDICTED BY IDOCK:   -0.31 KCAL/MOL
REMARK 927      BINDING AFFINITY PREDICTED BY RF-SCORE:    0.00 PKD
ROOT
HETATM    1  C   UNL     1     -12.157  11.313  69.996  1.00  0.00    -0.425 C  
HETATM    2  C   UNL     1     -11.536  10.878  68.691  1.00  0.00    -0.303 C  
HETATM    3  C   UNL     1     -10.720   9.816  68.487  1.00  0.00    -0.215 C  
HETATM    4  S   UNL     1     -10.248   9.363  66.866  1.00  0.00    -0.242 SA 
HETATM    5  O   UNL     1     -12.011  11.698  67.689  1.00  0.00    -0.618 OA 
HETATM    6  C   UNL     1     -11.249  11.975  66.524  1.00  0.00    -0.334 C  
HETATM    7  C   UNL     1     -10.185  10.981  66.083  1.00  0.00    -0.247 C  
ENDROOT
BRANCH   3   8
HETATM    8  C   UNL     1     -10.296   8.859  69.602  1.00  0.00    -0.212 C  
HETATM    9  N   UNL     1     -11.046   7.699  69.699  1.00  0.00    -0.435 N  
HETATM   10  H   UNL     1     -11.766   7.559  68.989  1.00  0.00     0.000 HD 
HETATM   11  O   UNL     1      -9.335   9.103  70.324  1.00  0.00    -0.185 OA 
BRANCH   9  12
HETATM   12  C   UNL     1     -10.917   6.686  70.682  1.00  0.00    -0.280 A  
HETATM   13  C   UNL     1     -11.706   6.631  71.833  1.00  0.00    -0.355 A  
HETATM   14  C   UNL     1     -11.517   5.619  72.782  1.00  0.00    -0.328 A  
HETATM   15  C   UNL     1     -10.534   4.655  72.587  1.00  0.00    -0.258 A  
HETATM   16  C   UNL     1      -9.757   4.688  71.434  1.00  0.00    -0.246 A  
HETATM   17  C   UNL     1      -9.958   5.690  70.475  1.00  0.00    -0.265 A  
ENDBRANCH   9  12
ENDBRANCH   3   8
TORSDOF 2
ENDMDL
MODEL       56
REMARK 921   NORMALIZED FREE ENERGY PREDICTED BY IDOCK:   -4.49 KCAL/MOL
REMARK 922        TOTAL FREE ENERGY PREDICTED BY IDOCK:   -5.23 KCAL/MOL
REMARK 923 INTER-LIGAND FREE ENERGY PREDICTED BY IDOCK:   -5.11 KCAL/MOL
REMARK 924 INTRA-LIGAND FREE ENERGY PREDICTED BY IDOCK:   -0.12 KCAL/MOL
REMARK 927      BINDING AFFINITY PREDICTED BY RF-SCORE:    0.00 PKD
ROOT
HETATM    1  C   UNL     1     -10.867  12.911  65.135  1.00  0.00    -0.320 C  
HETATM    2  C   UNL     1     -11.303  13.289  66.529  1.00  0.00    -0.322 C  
HETATM    3  C   UNL     1     -11.220  14.510  67.109  1.00  0.00    -0.333 C  
HETATM    4  S   UNL     1     -11.949  14.797  68.673  1.00  0.00    -0.208 SA 
HETATM    5  O   UNL     1     -11.899  12.189  67.112  1.00  0.00    -0.543 OA 
HETATM    6  C   UNL     1     -11.882  11.985  68.516  1.00  0.00    -0.311 C  
HETATM    7  C   UNL     1     -11.722  13.185  69.437  1.00  0.00    -0.327 C  
ENDROOT
BRANCH   3   8
HETATM    8  C   UNL     1     -10.651  15.738  66.399  1.00  0.00    -0.307 C  
HETATM    9  N   UNL     1      -9.600  16.362  67.052  1.00  0.00    -0.232 N  
HETATM   10  H   UNL     1      -9.264  15.916  67.907  1.00  0.00     0.000 HD 
HETATM   11  O   UNL     1     -11.083  16.107  65.312  1.00  0.00    -0.277 OA 
BRANCH   9  12
HETATM   12  C   UNL     1      -8.944  17.554  66.656  1.00  0.00    -0.263 A  
HETATM   13  C   UNL     1      -9.544  18.814  66.715  1.00  0.00    -0.342 A  
HETATM   14  C   UNL     1      -8.855  19.955  66.287  1.00  0.00    -0.402 A  
HETATM   15  C   UNL     1      -7.558  19.843  65.796  1.00  0.00    -0.309 A  
HETATM   16  C   UNL     1      -6.944  18.596  65.753  1.00  0.00    -0.290 A  
HETATM   17  C   UNL     1      -7.627  17.457  66.197  1.00  0.00    -0.321 A  
ENDBRANCH   9  12
ENDBRANCH   3   8
TORSDOF 2
ENDMDL
MODEL       57
REMARK 921   NORMALIZED FREE ENERGY PREDICTED BY IDOCK:   -4.48 KCAL/MOL
REMARK 922        TOTAL FREE ENERGY PREDICTED BY IDOCK:   -5.22 KCAL/MOL
REMARK 923 INTER-LIGAND FREE ENERGY PREDICTED BY IDOCK:   -4.90 KCAL/MOL
REMARK 924 INTRA-LIGAND FREE ENERGY PREDICTED BY IDOCK:   -0.32 KCAL/MOL
REMARK 927      BINDING AFFINITY PREDICTED BY RF-SCORE:    0.00 PKD
ROOT
HETATM    1  C   UNL     1      -7.561  13.245  67.626  1.00  0.00    -0.171 C  
HETATM    2  C   UNL     1      -9.049  13.005  67.689  1.00  0.00    -0.198 C  
HETATM    3  C   UNL     1     -10.033  13.877  67.362  1.00  0.00    -0.240 C  
HETATM    4  S   UNL     1     -11.701  13.354  67.326  1.00  0.00    -0.388 SA 
HETATM    5  O   UNL     1      -9.263  11.693  68.058  1.00  0.00    -0.165 OA 
HETATM    6  C   UNL     1     -10.428  11.294  68.766  1.00  0.00    -0.208 C  
HETATM    7  C   UNL     1     -11.688  12.137  68.650  1.00  0.00    -0.330 C  
ENDROOT
BRANCH   3   8
HETATM    8  C   UNL     1      -9.762  15.293  66.854  1.00  0.00    -0.233 C  
HETATM    9  N   UNL     1      -9.737  16.275  67.832  1.00  0.00    -0.232 N  
HETATM   10  H   UNL     1      -9.839  15.961  68.797  1.00  0.00     0.000 HD 
HETATM   11  O   UNL     1      -9.549  15.518  65.667  1.00  0.00    -0.336 OA 
BRANCH   9  12
HETATM   12  C   UNL     1      -9.585  17.669  67.628  1.00  0.00    -0.268 A  
HETATM   13  C   UNL     1      -8.356  18.326  67.721  1.00  0.00    -0.261 A  
HETATM   14  C   UNL     1      -8.269  19.711  67.534  1.00  0.00    -0.332 A  
HETATM   15  C   UNL     1      -9.413  20.449  67.252  1.00  0.00    -0.568 A  
HETATM   16  C   UNL     1     -10.639  19.802  67.135  1.00  0.00    -0.577 A  
HETATM   17  C   UNL     1     -10.723  18.413  67.306  1.00  0.00    -0.389 A  
ENDBRANCH   9  12
ENDBRANCH   3   8
TORSDOF 2
ENDMDL
MODEL       58
REMARK 921   NORMALIZED FREE ENERGY PREDICTED BY IDOCK:   -4.45 KCAL/MOL
REMARK 922        TOTAL FREE ENERGY PREDICTED BY IDOCK:   -5.19 KCAL/MOL
REMARK 923 INTER-LIGAND FREE ENERGY PREDICTED BY IDOCK:   -4.89 KCAL/MOL
REMARK 924 INTRA-LIGAND FREE ENERGY PREDICTED BY IDOCK:   -0.30 KCAL/MOL
REMARK 927      BINDING AFFINITY PREDICTED BY RF-SCORE:    0.00 PKD
ROOT
HETATM    1  C   UNL     1      -9.841   9.156  67.825  1.00  0.00    -0.214 C  
HETATM    2  C   UNL     1     -10.708   9.363  69.043  1.00  0.00    -0.187 C  
HETATM    3  C   UNL     1     -11.391  10.483  69.381  1.00  0.00    -0.269 C  
HETATM    4  S   UNL     1     -12.492  10.470  70.739  1.00  0.00    -0.407 SA 
HETATM    5  O   UNL     1     -10.774   8.172  69.737  1.00  0.00    -0.245 OA 
HETATM    6  C   UNL     1     -10.970   8.134  71.142  1.00  0.00    -0.237 C  
HETATM    7  C   UNL     1     -11.653   9.308  71.826  1.00  0.00    -0.388 C  
ENDROOT
BRANCH   3   8
HETATM    8  C   UNL     1     -11.383  11.756  68.535  1.00  0.00    -0.273 C  
HETATM    9  N   UNL     1     -10.573  12.774  69.010  1.00  0.00    -0.431 N  
HETATM   10  H   UNL     1     -10.014  12.565  69.838  1.00  0.00     0.000 HD 
HETATM   11  O   UNL     1     -12.027  11.837  67.494  1.00  0.00    -0.607 OA 
BRANCH   9  12
HETATM   12  C   UNL     1     -10.441  14.076  68.466  1.00  0.00    -0.249 A  
HETATM   13  C   UNL     1     -11.186  15.171  68.909  1.00  0.00    -0.292 A  
HETATM   14  C   UNL     1     -11.030  16.430  68.317  1.00  0.00    -0.355 A  
HETATM   15  C   UNL     1     -10.127  16.602  67.274  1.00  0.00    -0.279 A  
HETATM   16  C   UNL     1      -9.363  15.524  66.839  1.00  0.00    -0.252 A  
HETATM   17  C   UNL     1      -9.507  14.268  67.443  1.00  0.00    -0.211 A  
ENDBRANCH   9  12
ENDBRANCH   3   8
TORSDOF 2
ENDMDL
MODEL       59
REMARK 921   NORMALIZED FREE ENERGY PREDICTED BY IDOCK:   -4.44 KCAL/MOL
REMARK 922        TOTAL FREE ENERGY PREDICTED BY IDOCK:   -5.18 KCAL/MOL
REMARK 923 INTER-LIGAND FREE ENERGY PREDICTED BY IDOCK:   -4.86 KCAL/MOL
REMARK 924 INTRA-LIGAND FREE ENERGY PREDICTED BY IDOCK:   -0.32 KCAL/MOL
REMARK 927      BINDING AFFINITY PREDICTED BY RF-SCORE:    0.00 PKD
ROOT
HETATM    1  C   UNL     1      -9.584  19.679  66.983  1.00  0.00    -0.462 C  
HETATM    2  C   UNL     1      -8.404  19.184  67.782  1.00  0.00    -0.292 C  
HETATM    3  C   UNL     1      -8.282  17.987  68.406  1.00  0.00    -0.298 C  
HETATM    4  S   UNL     1      -6.761  17.519  69.130  1.00  0.00    -0.220 SA 
HETATM    5  O   UNL     1      -7.399  20.127  67.706  1.00  0.00    -0.282 OA 
HETATM    6  C   UNL     1      -6.447  20.293  68.745  1.00  0.00    -0.299 C  
HETATM    7  C   UNL     1      -6.153  19.123  69.672  1.00  0.00    -0.266 C  
ENDROOT
BRANCH   3   8
HETATM    8  C   UNL     1      -9.373  16.916  68.384  1.00  0.00    -0.255 C  
HETATM    9  N   UNL     1      -9.188  15.908  67.451  1.00  0.00    -0.200 N  
HETATM   10  H   UNL     1      -8.323  15.936  66.912  1.00  0.00     0.000 HD 
HETATM   11  O   UNL     1     -10.316  16.946  69.167  1.00  0.00    -0.298 OA 
BRANCH   9  12
HETATM   12  C   UNL     1     -10.079  14.842  67.169  1.00  0.00    -0.240 A  
HETATM   13  C   UNL     1      -9.943  13.565  67.719  1.00  0.00    -0.232 A  
HETATM   14  C   UNL     1     -10.840  12.543  67.385  1.00  0.00    -0.272 A  
HETATM   15  C   UNL     1     -11.881  12.793  66.497  1.00  0.00    -0.471 A  
HETATM   16  C   UNL     1     -12.039  14.066  65.961  1.00  0.00    -0.461 A  
HETATM   17  C   UNL     1     -11.151  15.093  66.308  1.00  0.00    -0.309 A  
ENDBRANCH   9  12
ENDBRANCH   3   8
TORSDOF 2
ENDMDL
MODEL       60
REMARK 921   NORMALIZED FREE ENERGY PREDICTED BY IDOCK:   -4.43 KCAL/MOL
REMARK 922        TOTAL FREE ENERGY PREDICTED BY IDOCK:   -5.16 KCAL/MOL
REMARK 923 INTER-LIGAND FREE ENERGY PREDICTED BY IDOCK:   -4.84 KCAL/MOL
REMARK 924 INTRA-LIGAND FREE ENERGY PREDICTED BY IDOCK:   -0.32 KCAL/MOL
REMARK 927      BINDING AFFINITY PREDICTED BY RF-SCORE:    0.00 PKD
ROOT
HETATM    1  C   UNL     1      -9.985   7.349  68.492  1.00  0.00    -0.172 C  
HETATM    2  C   UNL     1     -10.636   7.822  69.768  1.00  0.00    -0.241 C  
HETATM    3  C   UNL     1     -10.899   9.101  70.128  1.00  0.00    -0.240 C  
HETATM    4  S   UNL     1     -11.829   9.441  71.569  1.00  0.00    -0.407 SA 
HETATM    5  O   UNL     1     -11.016   6.714  70.499  1.00  0.00    -0.250 OA 
HETATM    6  C   UNL     1     -11.094   6.743  71.916  1.00  0.00    -0.247 C  
HETATM    7  C   UNL     1     -11.312   8.074  72.618  1.00  0.00    -0.405 C  
ENDROOT
BRANCH   3   8
HETATM    8  C   UNL     1     -10.561  10.305  69.248  1.00  0.00    -0.230 C  
HETATM    9  N   UNL     1     -11.606  10.778  68.471  1.00  0.00    -0.413 N  
HETATM   10  H   UNL     1     -12.512  10.326  68.599  1.00  0.00     0.000 HD 
HETATM   11  O   UNL     1      -9.449  10.822  69.270  1.00  0.00    -0.176 OA 
BRANCH   9  12
HETATM   12  C   UNL     1     -11.547  11.824  67.517  1.00  0.00    -0.291 A  
HETATM   13  C   UNL     1     -11.954  13.132  67.789  1.00  0.00    -0.352 A  
HETATM   14  C   UNL     1     -11.894  14.121  66.799  1.00  0.00    -0.449 A  
HETATM   15  C   UNL     1     -11.427  13.806  65.528  1.00  0.00    -0.319 A  
HETATM   16  C   UNL     1     -10.998  12.512  65.252  1.00  0.00    -0.329 A  
HETATM   17  C   UNL     1     -11.041  11.527  66.248  1.00  0.00    -0.321 A  
ENDBRANCH   9  12
ENDBRANCH   3   8
TORSDOF 2
ENDMDL
MODEL       61
REMARK 921   NORMALIZED FREE ENERGY PREDICTED BY IDOCK:   -4.42 KCAL/MOL
REMARK 922        TOTAL FREE ENERGY PREDICTED BY IDOCK:   -5.15 KCAL/MOL
REMARK 923 INTER-LIGAND FREE ENERGY PREDICTED BY IDOCK:   -5.04 KCAL/MOL
REMARK 924 INTRA-LIGAND FREE ENERGY PREDICTED BY IDOCK:   -0.11 KCAL/MOL
REMARK 927      BINDING AFFINITY PREDICTED BY RF-SCORE:    0.00 PKD
ROOT
HETATM    1  C   UNL     1     -12.282  15.081  64.364  1.00  0.00    -0.353 C  
HETATM    2  C   UNL     1     -11.155  15.814  65.050  1.00  0.00    -0.370 C  
HETATM    3  C   UNL     1     -10.263  15.303  65.932  1.00  0.00    -0.332 C  
HETATM    4  S   UNL     1      -8.911  16.265  66.481  1.00  0.00    -0.307 SA 
HETATM    5  O   UNL     1     -11.113  17.104  64.561  1.00  0.00    -1.105 OA 
HETATM    6  C   UNL     1     -10.630  18.186  65.342  1.00  0.00     0.184 C  
HETATM    7  C   UNL     1      -9.657  17.903  66.476  1.00  0.00    -0.313 C  
ENDROOT
BRANCH   3   8
HETATM    8  C   UNL     1     -10.269  13.839  66.375  1.00  0.00    -0.292 C  
HETATM    9  N   UNL     1     -10.558  13.631  67.714  1.00  0.00    -0.240 N  
HETATM   10  H   UNL     1     -10.798  14.456  68.264  1.00  0.00     0.000 HD 
HETATM   11  O   UNL     1     -10.066  12.928  65.580  1.00  0.00    -0.278 OA 
BRANCH   9  12
HETATM   12  C   UNL     1     -10.554  12.390  68.398  1.00  0.00    -0.236 A  
HETATM   13  C   UNL     1     -11.699  11.825  68.966  1.00  0.00    -0.390 A  
HETATM   14  C   UNL     1     -11.631  10.606  69.651  1.00  0.00    -0.368 A  
HETATM   15  C   UNL     1     -10.414   9.943  69.775  1.00  0.00    -0.292 A  
HETATM   16  C   UNL     1      -9.272  10.486  69.195  1.00  0.00    -0.183 A  
HETATM   17  C   UNL     1      -9.344  11.697  68.494  1.00  0.00    -0.169 A  
ENDBRANCH   9  12
ENDBRANCH   3   8
TORSDOF 2
ENDMDL
MODEL       62
REMARK 921   NORMALIZED FREE ENERGY PREDICTED BY IDOCK:   -4.41 KCAL/MOL
REMARK 922        TOTAL FREE ENERGY PREDICTED BY IDOCK:   -5.15 KCAL/MOL
REMARK 923 INTER-LIGAND FREE ENERGY PREDICTED BY IDOCK:   -4.84 KCAL/MOL
REMARK 924 INTRA-LIGAND FREE ENERGY PREDICTED BY IDOCK:   -0.31 KCAL/MOL
REMARK 927      BINDING AFFINITY PREDICTED BY RF-SCORE:    0.00 PKD
ROOT
HETATM    1  C   UNL     1      -9.840  14.121  65.649  1.00  0.00    -0.278 C  
HETATM    2  C   UNL     1     -10.554  14.559  66.904  1.00  0.00    -0.279 C  
HETATM    3  C   UNL     1     -10.617  15.812  67.415  1.00  0.00    -0.313 C  
HETATM    4  S   UNL     1     -11.650  16.157  68.783  1.00  0.00    -0.202 SA 
HETATM    5  O   UNL     1     -11.228  13.472  67.423  1.00  0.00    -0.277 OA 
HETATM    6  C   UNL     1     -11.486  13.345  68.813  1.00  0.00    -0.305 C  
HETATM    7  C   UNL     1     -11.541  14.598  69.673  1.00  0.00    -0.307 C  
ENDROOT
BRANCH   3   8
HETATM    8  C   UNL     1      -9.947  17.019  66.759  1.00  0.00    -0.295 C  
HETATM    9  N   UNL     1      -8.718  17.373  67.293  1.00  0.00    -0.220 N  
HETATM   10  H   UNL     1      -8.347  16.768  68.026  1.00  0.00     0.000 HD 
HETATM   11  O   UNL     1     -10.459  17.596  65.806  1.00  0.00    -0.550 OA 
BRANCH   9  12
HETATM   12  C   UNL     1      -7.925  18.488  66.926  1.00  0.00    -0.239 A  
HETATM   13  C   UNL     1      -7.046  18.478  65.841  1.00  0.00    -0.287 A  
HETATM   14  C   UNL     1      -6.268  19.603  65.539  1.00  0.00    -0.250 A  
HETATM   15  C   UNL     1      -6.364  20.747  66.325  1.00  0.00    -0.303 A  
HETATM   16  C   UNL     1      -7.252  20.775  67.395  1.00  0.00    -0.406 A  
HETATM   17  C   UNL     1      -8.043  19.656  67.686  1.00  0.00    -0.325 A  
ENDBRANCH   9  12
ENDBRANCH   3   8
TORSDOF 2
ENDMDL
MODEL       63
REMARK 921   NORMALIZED FREE ENERGY PREDICTED BY IDOCK:   -4.38 KCAL/MOL
REMARK 922        TOTAL FREE ENERGY PREDICTED BY IDOCK:   -5.11 KCAL/MOL
REMARK 923 INTER-LIGAND FREE ENERGY PREDICTED BY IDOCK:   -4.86 KCAL/MOL
REMARK 924 INTRA-LIGAND FREE ENERGY PREDICTED BY IDOCK:   -0.25 KCAL/MOL
REMARK 927      BINDING AFFINITY PREDICTED BY RF-SCORE:    0.00 PKD
ROOT
HETATM    1  C   UNL     1     -12.089   9.174  71.976  1.00  0.00    -0.431 C  
HETATM    2  C   UNL     1     -12.136  10.373  71.062  1.00  0.00    -0.385 C  
HETATM    3  C   UNL     1     -11.491  10.528  69.881  1.00  0.00    -0.310 C  
HETATM    4  S   UNL     1     -11.816  11.919  68.872  1.00  0.00    -0.280 SA 
HETATM    5  O   UNL     1     -13.033  11.282  71.584  1.00  0.00    -0.448 OA 
HETATM    6  C   UNL     1     -12.901  12.678  71.359  1.00  0.00    -0.261 C  
HETATM    7  C   UNL     1     -12.147  13.161  70.130  1.00  0.00    -0.321 C  
ENDROOT
BRANCH   3   8
HETATM    8  C   UNL     1     -10.584   9.457  69.275  1.00  0.00    -0.225 C  
HETATM    9  N   UNL     1     -11.078   8.843  68.135  1.00  0.00    -0.449 N  
HETATM   10  H   UNL     1     -11.962   9.199  67.772  1.00  0.00     0.000 HD 
HETATM   11  O   UNL     1      -9.486   9.199  69.757  1.00  0.00    -0.165 OA 
BRANCH   9  12
HETATM   12  C   UNL     1     -10.481   7.773  67.423  1.00  0.00    -0.292 A  
HETATM   13  C   UNL     1      -9.400   7.940  66.555  1.00  0.00    -0.255 A  
HETATM   14  C   UNL     1      -8.866   6.848  65.859  1.00  0.00    -0.125 A  
HETATM   15  C   UNL     1      -9.412   5.580  66.026  1.00  0.00    -0.147 A  
HETATM   16  C   UNL     1     -10.476   5.399  66.904  1.00  0.00    -0.337 A  
HETATM   17  C   UNL     1     -10.999   6.488  67.614  1.00  0.00    -0.426 A  
ENDBRANCH   9  12
ENDBRANCH   3   8
TORSDOF 2
ENDMDL
MODEL       64
REMARK 921   NORMALIZED FREE ENERGY PREDICTED BY IDOCK:   -4.38 KCAL/MOL
REMARK 922        TOTAL FREE ENERGY PREDICTED BY IDOCK:   -5.11 KCAL/MOL
REMARK 923 INTER-LIGAND FREE ENERGY PREDICTED BY IDOCK:   -5.11 KCAL/MOL
REMARK 924 INTRA-LIGAND FREE ENERGY PREDICTED BY IDOCK:    0.01 KCAL/MOL
REMARK 927      BINDING AFFINITY PREDICTED BY RF-SCORE:    0.00 PKD
ROOT
HETATM    1  C   UNL     1     -10.798  12.099  66.454  1.00  0.00    -0.306 C  
HETATM    2  C   UNL     1     -11.403  12.352  67.812  1.00  0.00    -0.299 C  
HETATM    3  C   UNL     1     -11.393  13.514  68.509  1.00  0.00    -0.292 C  
HETATM    4  S   UNL     1     -12.309  13.664  69.991  1.00  0.00    -0.227 SA 
HETATM    5  O   UNL     1     -12.067  11.211  68.213  1.00  0.00    -0.620 OA 
HETATM    6  C   UNL     1     -12.222  10.878  69.584  1.00  0.00    -0.283 C  
HETATM    7  C   UNL     1     -12.177  11.986  70.625  1.00  0.00    -0.316 C  
ENDROOT
BRANCH   3   8
HETATM    8  C   UNL     1     -10.740  14.795  67.991  1.00  0.00    -0.248 C  
HETATM    9  N   UNL     1     -10.041  15.526  68.939  1.00  0.00    -0.205 N  
HETATM   10  H   UNL     1      -9.974  15.118  69.871  1.00  0.00     0.000 HD 
HETATM   11  O   UNL     1     -10.810  15.118  66.810  1.00  0.00    -0.314 OA 
BRANCH   9  12
HETATM   12  C   UNL     1      -9.411  16.780  68.747  1.00  0.00    -0.259 A  
HETATM   13  C   UNL     1      -8.035  16.925  68.559  1.00  0.00    -0.242 A  
HETATM   14  C   UNL     1      -7.464  18.193  68.397  1.00  0.00    -0.287 A  
HETATM   15  C   UNL     1      -8.268  19.328  68.423  1.00  0.00    -0.383 A  
HETATM   16  C   UNL     1      -9.642  19.194  68.588  1.00  0.00    -0.471 A  
HETATM   17  C   UNL     1     -10.216  17.923  68.732  1.00  0.00    -0.362 A  
ENDBRANCH   9  12
ENDBRANCH   3   8
TORSDOF 2
ENDMDL
MODEL       65
REMARK 921   NORMALIZED FREE ENERGY PREDICTED BY IDOCK:   -4.37 KCAL/MOL
REMARK 922        TOTAL FREE ENERGY PREDICTED BY IDOCK:   -5.10 KCAL/MOL
REMARK 923 INTER-LIGAND FREE ENERGY PREDICTED BY IDOCK:   -4.85 KCAL/MOL
REMARK 924 INTRA-LIGAND FREE ENERGY PREDICTED BY IDOCK:   -0.25 KCAL/MOL
REMARK 927      BINDING AFFINITY PREDICTED BY RF-SCORE:    0.00 PKD
ROOT
HETATM    1  C   UNL     1     -10.893  11.036  68.866  1.00  0.00    -0.262 C  
HETATM    2  C   UNL     1     -11.434  10.399  70.122  1.00  0.00    -0.319 C  
HETATM    3  C   UNL     1     -11.249   9.124  70.539  1.00  0.00    -0.264 C  
HETATM    4  S   UNL     1     -11.804   8.620  72.118  1.00  0.00    -0.369 SA 
HETATM    5  O   UNL     1     -12.094  11.368  70.851  1.00  0.00    -0.351 OA 
HETATM    6  C   UNL     1     -13.174  11.049  71.715  1.00  0.00    -0.400 C  
HETATM    7  C   UNL     1     -13.274   9.643  72.287  1.00  0.00    -0.404 C  
ENDROOT
BRANCH   3   8
HETATM    8  C   UNL     1     -10.422   8.100  69.760  1.00  0.00    -0.227 C  
HETATM    9  N   UNL     1     -11.159   7.170  69.045  1.00  0.00    -0.455 N  
HETATM   10  H   UNL     1     -12.173   7.286  69.052  1.00  0.00     0.000 HD 
HETATM   11  O   UNL     1      -9.197   8.139  69.753  1.00  0.00    -0.151 OA 
BRANCH   9  12
HETATM   12  C   UNL     1     -10.650   6.074  68.305  1.00  0.00    -0.261 A  
HETATM   13  C   UNL     1     -10.030   4.971  68.898  1.00  0.00    -0.236 A  
HETATM   14  C   UNL     1      -9.523   3.927  68.114  1.00  0.00    -0.219 A  
HETATM   15  C   UNL     1      -9.633   3.980  66.729  1.00  0.00    -0.234 A  
HETATM   16  C   UNL     1     -10.268   5.062  66.129  1.00  0.00    -0.288 A  
HETATM   17  C   UNL     1     -10.790   6.099  66.914  1.00  0.00    -0.411 A  
ENDBRANCH   9  12
ENDBRANCH   3   8
TORSDOF 2
ENDMDL
MODEL       66
REMARK 921   NORMALIZED FREE ENERGY PREDICTED BY IDOCK:   -4.37 KCAL/MOL
REMARK 922        TOTAL FREE ENERGY PREDICTED BY IDOCK:   -5.09 KCAL/MOL
REMARK 923 INTER-LIGAND FREE ENERGY PREDICTED BY IDOCK:   -5.21 KCAL/MOL
REMARK 924 INTRA-LIGAND FREE ENERGY PREDICTED BY IDOCK:    0.11 KCAL/MOL
REMARK 927      BINDING AFFINITY PREDICTED BY RF-SCORE:    0.00 PKD
ROOT
HETATM    1  C   UNL     1     -10.284   9.025  66.566  1.00  0.00    -0.318 C  
HETATM    2  C   UNL     1     -10.041  10.091  65.526  1.00  0.00    -0.255 C  
HETATM    3  C   UNL     1     -10.507  11.363  65.534  1.00  0.00    -0.268 C  
HETATM    4  S   UNL     1      -9.966  12.510  64.330  1.00  0.00    -0.114 SA 
HETATM    5  O   UNL     1      -9.173   9.586  64.580  1.00  0.00    -0.238 OA 
HETATM    6  C   UNL     1      -9.191  10.033  63.233  1.00  0.00    -0.284 C  
HETATM    7  C   UNL     1      -9.740  11.417  62.920  1.00  0.00    -0.317 C  
ENDROOT
BRANCH   3   8
HETATM    8  C   UNL     1     -11.382  11.927  66.653  1.00  0.00    -0.337 C  
HETATM    9  N   UNL     1     -10.899  11.728  67.936  1.00  0.00    -0.201 N  
HETATM   10  H   UNL     1      -9.984  11.283  68.016  1.00  0.00     0.000 HD 
HETATM   11  O   UNL     1     -12.416  12.541  66.410  1.00  0.00    -0.436 OA 
BRANCH   9  12
HETATM   12  C   UNL     1     -11.543  12.079  69.148  1.00  0.00    -0.312 A  
HETATM   13  C   UNL     1     -12.017  11.137  70.064  1.00  0.00    -0.447 A  
HETATM   14  C   UNL     1     -12.668  11.542  71.236  1.00  0.00    -0.469 A  
HETATM   15  C   UNL     1     -12.851  12.895  71.499  1.00  0.00    -0.380 A  
HETATM   16  C   UNL     1     -12.364  13.842  70.604  1.00  0.00    -0.451 A  
HETATM   17  C   UNL     1     -11.697  13.437  69.440  1.00  0.00    -0.382 A  
ENDBRANCH   9  12
ENDBRANCH   3   8
TORSDOF 2
ENDMDL
MODEL       67
REMARK 921   NORMALIZED FREE ENERGY PREDICTED BY IDOCK:   -4.31 KCAL/MOL
REMARK 922        TOTAL FREE ENERGY PREDICTED BY IDOCK:   -5.03 KCAL/MOL
REMARK 923 INTER-LIGAND FREE ENERGY PREDICTED BY IDOCK:   -4.70 KCAL/MOL
REMARK 924 INTRA-LIGAND FREE ENERGY PREDICTED BY IDOCK:   -0.32 KCAL/MOL
REMARK 927      BINDING AFFINITY PREDICTED BY RF-SCORE:    0.00 PKD
ROOT
HETATM    1  C   UNL     1      -9.403   9.108  66.006  1.00  0.00    -0.300 C  
HETATM    2  C   UNL     1     -10.073  10.407  66.378  1.00  0.00    -0.228 C  
HETATM    3  C   UNL     1     -10.448  10.810  67.616  1.00  0.00    -0.214 C  
HETATM    4  S   UNL     1     -11.046  12.433  67.875  1.00  0.00    -0.257 SA 
HETATM    5  O   UNL     1     -10.171  11.187  65.244  1.00  0.00    -0.253 OA 
HETATM    6  C   UNL     1     -11.210  12.139  65.077  1.00  0.00    -0.322 C  
HETATM    7  C   UNL     1     -11.884  12.722  66.310  1.00  0.00    -0.423 C  
ENDROOT
BRANCH   3   8
HETATM    8  C   UNL     1     -10.229   9.967  68.873  1.00  0.00    -0.193 C  
HETATM    9  N   UNL     1     -11.258   9.091  69.180  1.00  0.00    -0.430 N  
HETATM   10  H   UNL     1     -12.031   9.043  68.516  1.00  0.00     0.000 HD 
HETATM   11  O   UNL     1      -9.196  10.050  69.528  1.00  0.00    -0.200 OA 
BRANCH   9  12
HETATM   12  C   UNL     1     -11.346   8.256  70.321  1.00  0.00    -0.129 A  
HETATM   13  C   UNL     1     -11.732   8.719  71.581  1.00  0.00    -0.402 A  
HETATM   14  C   UNL     1     -11.779   7.851  72.679  1.00  0.00    -0.398 A  
HETATM   15  C   UNL     1     -11.437   6.512  72.524  1.00  0.00    -0.274 A  
HETATM   16  C   UNL     1     -11.073   6.035  71.269  1.00  0.00    -0.337 A  
HETATM   17  C   UNL     1     -11.043   6.900  70.167  1.00  0.00    -0.344 A  
ENDBRANCH   9  12
ENDBRANCH   3   8
TORSDOF 2
ENDMDL
MODEL       68
REMARK 921   NORMALIZED FREE ENERGY PREDICTED BY IDOCK:   -4.30 KCAL/MOL
REMARK 922        TOTAL FREE ENERGY PREDICTED BY IDOCK:   -5.02 KCAL/MOL
REMARK 923 INTER-LIGAND FREE ENERGY PREDICTED BY IDOCK:   -4.73 KCAL/MOL
REMARK 924 INTRA-LIGAND FREE ENERGY PREDICTED BY IDOCK:   -0.29 KCAL/MOL
REMARK 927      BINDING AFFINITY PREDICTED BY RF-SCORE:    0.00 PKD
ROOT
HETATM    1  C   UNL     1     -12.102  11.447  69.227  1.00  0.00    -0.356 C  
HETATM    2  C   UNL     1     -11.473  11.262  67.868  1.00  0.00    -0.288 C  
HETATM    3  C   UNL     1     -10.578  10.313  67.503  1.00  0.00    -0.268 C  
HETATM    4  S   UNL     1     -10.101  10.145  65.829  1.00  0.00    -0.221 SA 
HETATM    5  O   UNL     1     -12.030  12.180  67.002  1.00  0.00    -0.593 OA 
HETATM    6  C   UNL     1     -11.314  12.688  65.887  1.00  0.00    -0.334 C  
HETATM    7  C   UNL     1     -10.182  11.861  65.296  1.00  0.00    -0.272 C  
ENDROOT
BRANCH   3   8
HETATM    8  C   UNL     1     -10.058   9.239  68.460  1.00  0.00    -0.190 C  
HETATM    9  N   UNL     1     -10.946   8.210  68.729  1.00  0.00    -0.419 N  
HETATM   10  H   UNL     1     -11.832   8.228  68.224  1.00  0.00     0.000 HD 
HETATM   11  O   UNL     1      -8.921   9.286  68.917  1.00  0.00    -0.133 OA 
BRANCH   9  12
HETATM   12  C   UNL     1     -10.749   7.137  69.633  1.00  0.00    -0.239 A  
HETATM   13  C   UNL     1     -10.227   5.899  69.250  1.00  0.00    -0.275 A  
HETATM   14  C   UNL     1     -10.077   4.866  70.183  1.00  0.00    -0.332 A  
HETATM   15  C   UNL     1     -10.451   5.064  71.508  1.00  0.00    -0.225 A  
HETATM   16  C   UNL     1     -10.952   6.299  71.905  1.00  0.00    -0.302 A  
HETATM   17  C   UNL     1     -11.086   7.339  70.975  1.00  0.00    -0.281 A  
ENDBRANCH   9  12
ENDBRANCH   3   8
TORSDOF 2
ENDMDL
MODEL       69
REMARK 921   NORMALIZED FREE ENERGY PREDICTED BY IDOCK:   -4.29 KCAL/MOL
REMARK 922        TOTAL FREE ENERGY PREDICTED BY IDOCK:   -5.01 KCAL/MOL
REMARK 923 INTER-LIGAND FREE ENERGY PREDICTED BY IDOCK:   -4.70 KCAL/MOL
REMARK 924 INTRA-LIGAND FREE ENERGY PREDICTED BY IDOCK:   -0.31 KCAL/MOL
REMARK 927      BINDING AFFINITY PREDICTED BY RF-SCORE:    0.00 PKD
ROOT
HETATM    1  C   UNL     1     -10.186  11.581  65.329  1.00  0.00    -0.315 C  
HETATM    2  C   UNL     1     -10.692  11.382  66.737  1.00  0.00    -0.271 C  
HETATM    3  C   UNL     1     -11.169  12.331  67.577  1.00  0.00    -0.297 C  
HETATM    4  S   UNL     1     -11.883  11.879  69.107  1.00  0.00    -0.292 SA 
HETATM    5  O   UNL     1     -10.678  10.031  67.017  1.00  0.00    -0.234 OA 
HETATM    6  C   UNL     1     -10.510   9.542  68.339  1.00  0.00    -0.224 C  
HETATM    7  C   UNL     1     -10.895  10.431  69.511  1.00  0.00    -0.255 C  
ENDROOT
BRANCH   3   8
HETATM    8  C   UNL     1     -11.271  13.809  67.199  1.00  0.00    -0.311 C  
HETATM    9  N   UNL     1     -10.218  14.601  67.628  1.00  0.00    -0.232 N  
HETATM   10  H   UNL     1      -9.449  14.123  68.098  1.00  0.00     0.000 HD 
HETATM   11  O   UNL     1     -12.208  14.236  66.533  1.00  0.00    -0.441 OA 
BRANCH   9  12
HETATM   12  C   UNL     1     -10.099  16.005  67.481  1.00  0.00    -0.247 A  
HETATM   13  C   UNL     1     -10.784  16.920  68.284  1.00  0.00    -0.377 A  
HETATM   14  C   UNL     1     -10.646  18.298  68.077  1.00  0.00    -0.347 A  
HETATM   15  C   UNL     1      -9.822  18.771  67.062  1.00  0.00    -0.359 A  
HETATM   16  C   UNL     1      -9.119  17.870  66.270  1.00  0.00    -0.198 A  
HETATM   17  C   UNL     1      -9.243  16.491  66.488  1.00  0.00    -0.300 A  
ENDBRANCH   9  12
ENDBRANCH   3   8
TORSDOF 2
ENDMDL
MODEL       70
REMARK 921   NORMALIZED FREE ENERGY PREDICTED BY IDOCK:   -4.23 KCAL/MOL
REMARK 922        TOTAL FREE ENERGY PREDICTED BY IDOCK:   -4.95 KCAL/MOL
REMARK 923 INTER-LIGAND FREE ENERGY PREDICTED BY IDOCK:   -4.67 KCAL/MOL
REMARK 924 INTRA-LIGAND FREE ENERGY PREDICTED BY IDOCK:   -0.28 KCAL/MOL
REMARK 927      BINDING AFFINITY PREDICTED BY RF-SCORE:    0.00 PKD
ROOT
HETATM    1  C   UNL     1     -10.002  10.908  63.457  1.00  0.00    -0.419 C  
HETATM    2  C   UNL     1     -10.561  11.857  64.488  1.00  0.00    -0.311 C  
HETATM    3  C   UNL     1     -10.571  11.692  65.833  1.00  0.00    -0.271 C  
HETATM    4  S   UNL     1     -11.100  12.989  66.879  1.00  0.00    -0.286 SA 
HETATM    5  O   UNL     1     -10.996  12.996  63.842  1.00  0.00    -0.395 OA 
HETATM    6  C   UNL     1     -12.056  13.789  64.353  1.00  0.00    -0.436 C  
HETATM    7  C   UNL     1     -12.358  13.748  65.843  1.00  0.00    -0.476 C  
ENDROOT
BRANCH   3   8
HETATM    8  C   UNL     1      -9.985  10.463  66.530  1.00  0.00    -0.217 C  
HETATM    9  N   UNL     1     -10.917   9.581  67.050  1.00  0.00    -0.192 N  
HETATM   10  H   UNL     1     -11.898   9.794  66.871  1.00  0.00     0.000 HD 
HETATM   11  O   UNL     1      -8.774  10.274  66.582  1.00  0.00    -0.126 OA 
BRANCH   9  12
HETATM   12  C   UNL     1     -10.648   8.412  67.805  1.00  0.00    -0.171 A  
HETATM   13  C   UNL     1     -10.319   8.436  69.162  1.00  0.00    -0.229 A  
HETATM   14  C   UNL     1     -10.039   7.250  69.852  1.00  0.00    -0.196 A  
HETATM   15  C   UNL     1     -10.085   6.030  69.187  1.00  0.00    -0.229 A  
HETATM   16  C   UNL     1     -10.433   5.992  67.841  1.00  0.00    -0.294 A  
HETATM   17  C   UNL     1     -10.730   7.177  67.155  1.00  0.00    -0.422 A  
ENDBRANCH   9  12
ENDBRANCH   3   8
TORSDOF 2
ENDMDL
MODEL       71
REMARK 921   NORMALIZED FREE ENERGY PREDICTED BY IDOCK:   -4.23 KCAL/MOL
REMARK 922        TOTAL FREE ENERGY PREDICTED BY IDOCK:   -4.94 KCAL/MOL
REMARK 923 INTER-LIGAND FREE ENERGY PREDICTED BY IDOCK:   -4.89 KCAL/MOL
REMARK 924 INTRA-LIGAND FREE ENERGY PREDICTED BY IDOCK:   -0.05 KCAL/MOL
REMARK 927      BINDING AFFINITY PREDICTED BY RF-SCORE:    0.00 PKD
ROOT
HETATM    1  C   UNL     1     -11.041  13.799  68.912  1.00  0.00    -0.300 C  
HETATM    2  C   UNL     1     -11.981  13.824  70.093  1.00  0.00    -0.334 C  
HETATM    3  C   UNL     1     -12.513  12.758  70.738  1.00  0.00    -0.271 C  
HETATM    4  S   UNL     1     -13.438  12.984  72.204  1.00  0.00    -0.468 SA 
HETATM    5  O   UNL     1     -12.152  15.136  70.484  1.00  0.00    -0.293 OA 
HETATM    6  C   UNL     1     -13.346  15.580  71.112  1.00  0.00    -0.480 C  
HETATM    7  C   UNL     1     -14.206  14.574  71.860  1.00  0.00    -0.538 C  
ENDROOT
BRANCH   3   8
HETATM    8  C   UNL     1     -12.220  11.310  70.346  1.00  0.00    -0.365 C  
HETATM    9  N   UNL     1     -10.878  10.965  70.329  1.00  0.00    -0.430 N  
HETATM   10  H   UNL     1     -10.218  11.680  70.635  1.00  0.00     0.000 HD 
HETATM   11  O   UNL     1     -13.123  10.516  70.102  1.00  0.00    -0.166 OA 
BRANCH   9  12
HETATM   12  C   UNL     1     -10.328   9.721  69.931  1.00  0.00    -0.254 A  
HETATM   13  C   UNL     1      -9.834   8.777  70.835  1.00  0.00    -0.278 A  
HETATM   14  C   UNL     1      -9.280   7.574  70.383  1.00  0.00    -0.157 A  
HETATM   15  C   UNL     1      -9.215   7.306  69.020  1.00  0.00    -0.139 A  
HETATM   16  C   UNL     1      -9.723   8.229  68.111  1.00  0.00    -0.178 A  
HETATM   17  C   UNL     1     -10.293   9.426  68.565  1.00  0.00    -0.236 A  
ENDBRANCH   9  12
ENDBRANCH   3   8
TORSDOF 2
ENDMDL
MODEL       72
REMARK 921   NORMALIZED FREE ENERGY PREDICTED BY IDOCK:   -4.20 KCAL/MOL
REMARK 922        TOTAL FREE ENERGY PREDICTED BY IDOCK:   -4.91 KCAL/MOL
REMARK 923 INTER-LIGAND FREE ENERGY PREDICTED BY IDOCK:   -4.77 KCAL/MOL
REMARK 924 INTRA-LIGAND FREE ENERGY PREDICTED BY IDOCK:   -0.14 KCAL/MOL
REMARK 927      BINDING AFFINITY PREDICTED BY RF-SCORE:    0.00 PKD
ROOT
HETATM    1  C   UNL     1     -12.124  13.025  69.340  1.00  0.00    -0.267 C  
HETATM    2  C   UNL     1     -12.265  13.983  70.497  1.00  0.00    -0.365 C  
HETATM    3  C   UNL     1     -11.551  15.114  70.716  1.00  0.00    -0.317 C  
HETATM    4  S   UNL     1     -11.986  16.196  72.019  1.00  0.00    -0.485 SA 
HETATM    5  O   UNL     1     -13.324  13.569  71.279  1.00  0.00    -0.266 OA 
HETATM    6  C   UNL     1     -13.375  13.833  72.672  1.00  0.00    -0.514 C  
HETATM    7  C   UNL     1     -12.596  15.015  73.230  1.00  0.00    -0.485 C  
ENDROOT
BRANCH   3   8
HETATM    8  C   UNL     1     -10.452  15.605  69.773  1.00  0.00    -0.308 C  
HETATM    9  N   UNL     1      -9.225  14.981  69.924  1.00  0.00    -0.442 N  
HETATM   10  H   UNL     1      -9.181  14.217  70.598  1.00  0.00     0.000 HD 
HETATM   11  O   UNL     1     -10.671  16.466  68.928  1.00  0.00    -0.277 OA 
BRANCH   9  12
HETATM   12  C   UNL     1      -8.025  15.294  69.237  1.00  0.00    -0.223 A  
HETATM   13  C   UNL     1      -7.484  16.580  69.189  1.00  0.00    -0.218 A  
HETATM   14  C   UNL     1      -6.307  16.836  68.475  1.00  0.00    -0.149 A  
HETATM   15  C   UNL     1      -5.663  15.803  67.801  1.00  0.00    -0.164 A  
HETATM   16  C   UNL     1      -6.182  14.514  67.860  1.00  0.00    -0.167 A  
HETATM   17  C   UNL     1      -7.350  14.255  68.589  1.00  0.00    -0.125 A  
ENDBRANCH   9  12
ENDBRANCH   3   8
TORSDOF 2
ENDMDL
MODEL       73
REMARK 921   NORMALIZED FREE ENERGY PREDICTED BY IDOCK:   -4.20 KCAL/MOL
REMARK 922        TOTAL FREE ENERGY PREDICTED BY IDOCK:   -4.91 KCAL/MOL
REMARK 923 INTER-LIGAND FREE ENERGY PREDICTED BY IDOCK:   -4.59 KCAL/MOL
REMARK 924 INTRA-LIGAND FREE ENERGY PREDICTED BY IDOCK:   -0.32 KCAL/MOL
REMARK 927      BINDING AFFINITY PREDICTED BY RF-SCORE:    0.00 PKD
ROOT
HETATM    1  C   UNL     1     -12.510  11.714  71.044  1.00  0.00    -0.436 C  
HETATM    2  C   UNL     1     -11.588  10.793  70.284  1.00  0.00    -0.338 C  
HETATM    3  C   UNL     1     -10.957  11.050  69.113  1.00  0.00    -0.237 C  
HETATM    4  S   UNL     1      -9.779   9.924  68.478  1.00  0.00    -0.159 SA 
HETATM    5  O   UNL     1     -11.409   9.645  71.029  1.00  0.00    -0.312 OA 
HETATM    6  C   UNL     1     -11.130   8.393  70.420  1.00  0.00    -0.231 C  
HETATM    7  C   UNL     1     -10.481   8.368  69.045  1.00  0.00    -0.201 C  
ENDROOT
BRANCH   3   8
HETATM    8  C   UNL     1     -11.092  12.375  68.362  1.00  0.00    -0.250 C  
HETATM    9  N   UNL     1     -10.138  13.330  68.678  1.00  0.00    -0.372 N  
HETATM   10  H   UNL     1      -9.405  13.046  69.328  1.00  0.00     0.000 HD 
HETATM   11  O   UNL     1     -11.966  12.548  67.520  1.00  0.00    -0.438 OA 
BRANCH   9  12
HETATM   12  C   UNL     1     -10.077  14.659  68.190  1.00  0.00    -0.224 A  
HETATM   13  C   UNL     1      -9.229  15.056  67.153  1.00  0.00    -0.229 A  
HETATM   14  C   UNL     1      -9.194  16.390  66.729  1.00  0.00    -0.259 A  
HETATM   15  C   UNL     1     -10.008  17.337  67.340  1.00  0.00    -0.278 A  
HETATM   16  C   UNL     1     -10.872  16.949  68.359  1.00  0.00    -0.347 A  
HETATM   17  C   UNL     1     -10.920  15.611  68.772  1.00  0.00    -0.281 A  
ENDBRANCH   9  12
ENDBRANCH   3   8
TORSDOF 2
ENDMDL
MODEL       74
REMARK 921   NORMALIZED FREE ENERGY PREDICTED BY IDOCK:   -4.19 KCAL/MOL
REMARK 922        TOTAL FREE ENERGY PREDICTED BY IDOCK:   -4.90 KCAL/MOL
REMARK 923 INTER-LIGAND FREE ENERGY PREDICTED BY IDOCK:   -4.56 KCAL/MOL
REMARK 924 INTRA-LIGAND FREE ENERGY PREDICTED BY IDOCK:   -0.34 KCAL/MOL
REMARK 927      BINDING AFFINITY PREDICTED BY RF-SCORE:    0.00 PKD
ROOT
HETATM    1  C   UNL     1      -8.673   8.452  67.575  1.00  0.00    -0.136 C  
HETATM    2  C   UNL     1      -9.497   8.756  68.801  1.00  0.00    -0.142 C  
HETATM    3  C   UNL     1     -10.143   9.912  69.088  1.00  0.00    -0.200 C  
HETATM    4  S   UNL     1     -11.202  10.012  70.475  1.00  0.00    -0.354 SA 
HETATM    5  O   UNL     1      -9.569   7.613  69.571  1.00  0.00    -0.163 OA 
HETATM    6  C   UNL     1      -9.722   7.668  70.981  1.00  0.00    -0.163 C  
HETATM    7  C   UNL     1     -10.358   8.899  71.609  1.00  0.00    -0.345 C  
ENDROOT
BRANCH   3   8
HETATM    8  C   UNL     1     -10.132  11.129  68.162  1.00  0.00    -0.179 C  
HETATM    9  N   UNL     1     -11.158  11.169  67.232  1.00  0.00    -0.295 N  
HETATM   10  H   UNL     1     -11.854  10.426  67.286  1.00  0.00     0.000 HD 
HETATM   11  O   UNL     1      -9.289  12.012  68.275  1.00  0.00    -0.194 OA 
BRANCH   9  12
HETATM   12  C   UNL     1     -11.339  12.137  66.212  1.00  0.00    -0.357 A  
HETATM   13  C   UNL     1     -12.078  13.309  66.391  1.00  0.00    -0.454 A  
HETATM   14  C   UNL     1     -12.243  14.219  65.340  1.00  0.00    -0.408 A  
HETATM   15  C   UNL     1     -11.669  13.961  64.099  1.00  0.00    -0.369 A  
HETATM   16  C   UNL     1     -10.912  12.809  63.917  1.00  0.00    -0.458 A  
HETATM   17  C   UNL     1     -10.733  11.907  64.974  1.00  0.00    -0.341 A  
ENDBRANCH   9  12
ENDBRANCH   3   8
TORSDOF 2
ENDMDL
MODEL       75
REMARK 921   NORMALIZED FREE ENERGY PREDICTED BY IDOCK:   -4.13 KCAL/MOL
REMARK 922        TOTAL FREE ENERGY PREDICTED BY IDOCK:   -4.83 KCAL/MOL
REMARK 923 INTER-LIGAND FREE ENERGY PREDICTED BY IDOCK:   -4.56 KCAL/MOL
REMARK 924 INTRA-LIGAND FREE ENERGY PREDICTED BY IDOCK:   -0.27 KCAL/MOL
REMARK 927      BINDING AFFINITY PREDICTED BY RF-SCORE:    0.00 PKD
ROOT
HETATM    1  C   UNL     1      -8.270  10.388  66.737  1.00  0.00    -0.126 C  
HETATM    2  C   UNL     1      -8.924   9.028  66.760  1.00  0.00    -0.135 C  
HETATM    3  C   UNL     1      -9.759   8.538  67.708  1.00  0.00    -0.162 C  
HETATM    4  S   UNL     1     -10.566   7.005  67.467  1.00  0.00    -0.298 SA 
HETATM    5  O   UNL     1      -8.604   8.371  65.590  1.00  0.00    -0.157 OA 
HETATM    6  C   UNL     1      -8.527   6.955  65.523  1.00  0.00    -0.116 C  
HETATM    7  C   UNL     1      -9.312   6.124  66.526  1.00  0.00    -0.153 C  
ENDROOT
BRANCH   3   8
HETATM    8  C   UNL     1     -10.181   9.332  68.944  1.00  0.00    -0.202 C  
HETATM    9  N   UNL     1     -11.363  10.043  68.812  1.00  0.00    -0.479 N  
HETATM   10  H   UNL     1     -11.871   9.926  67.935  1.00  0.00     0.000 HD 
HETATM   11  O   UNL     1      -9.526   9.300  69.980  1.00  0.00    -0.181 OA 
BRANCH   9  12
HETATM   12  C   UNL     1     -11.938  10.915  69.770  1.00  0.00    -0.351 A  
HETATM   13  C   UNL     1     -11.877  12.307  69.672  1.00  0.00    -0.393 A  
HETATM   14  C   UNL     1     -12.443  13.120  70.661  1.00  0.00    -0.363 A  
HETATM   15  C   UNL     1     -13.075  12.544  71.758  1.00  0.00    -0.450 A  
HETATM   16  C   UNL     1     -13.161  11.159  71.855  1.00  0.00    -0.513 A  
HETATM   17  C   UNL     1     -12.609  10.346  70.856  1.00  0.00    -0.478 A  
ENDBRANCH   9  12
ENDBRANCH   3   8
TORSDOF 2
ENDMDL
MODEL       76
REMARK 921   NORMALIZED FREE ENERGY PREDICTED BY IDOCK:   -4.12 KCAL/MOL
REMARK 922        TOTAL FREE ENERGY PREDICTED BY IDOCK:   -4.82 KCAL/MOL
REMARK 923 INTER-LIGAND FREE ENERGY PREDICTED BY IDOCK:   -4.50 KCAL/MOL
REMARK 924 INTRA-LIGAND FREE ENERGY PREDICTED BY IDOCK:   -0.32 KCAL/MOL
REMARK 927      BINDING AFFINITY PREDICTED BY RF-SCORE:    0.00 PKD
ROOT
HETATM    1  C   UNL     1      -8.782   6.739  69.513  1.00  0.00    -0.133 C  
HETATM    2  C   UNL     1      -9.647   6.094  70.567  1.00  0.00    -0.168 C  
HETATM    3  C   UNL     1     -10.413   6.719  71.493  1.00  0.00    -0.213 C  
HETATM    4  S   UNL     1     -11.492   5.799  72.515  1.00  0.00    -0.250 SA 
HETATM    5  O   UNL     1      -9.609   4.726  70.384  1.00  0.00    -0.162 OA 
HETATM    6  C   UNL     1      -9.783   3.821  71.464  1.00  0.00    -0.171 C  
HETATM    7  C   UNL     1     -10.549   4.278  72.696  1.00  0.00    -0.140 C  
ENDROOT
BRANCH   3   8
HETATM    8  C   UNL     1     -10.518   8.241  71.603  1.00  0.00    -0.238 C  
HETATM    9  N   UNL     1     -11.673   8.791  71.072  1.00  0.00    -0.284 N  
HETATM   10  H   UNL     1     -12.369   8.136  70.715  1.00  0.00     0.000 HD 
HETATM   11  O   UNL     1      -9.648   8.904  72.157  1.00  0.00    -0.301 OA 
BRANCH   9  12
HETATM   12  C   UNL     1     -11.987  10.169  70.974  1.00  0.00    -0.378 A  
HETATM   13  C   UNL     1     -11.508  10.993  69.953  1.00  0.00    -0.400 A  
HETATM   14  C   UNL     1     -11.833  12.355  69.920  1.00  0.00    -0.376 A  
HETATM   15  C   UNL     1     -12.640  12.903  70.911  1.00  0.00    -0.355 A  
HETATM   16  C   UNL     1     -13.141  12.087  71.920  1.00  0.00    -0.475 A  
HETATM   17  C   UNL     1     -12.830  10.721  71.944  1.00  0.00    -0.460 A  
ENDBRANCH   9  12
ENDBRANCH   3   8
TORSDOF 2
ENDMDL
MODEL       77
REMARK 921   NORMALIZED FREE ENERGY PREDICTED BY IDOCK:   -4.12 KCAL/MOL
REMARK 922        TOTAL FREE ENERGY PREDICTED BY IDOCK:   -4.82 KCAL/MOL
REMARK 923 INTER-LIGAND FREE ENERGY PREDICTED BY IDOCK:   -4.80 KCAL/MOL
REMARK 924 INTRA-LIGAND FREE ENERGY PREDICTED BY IDOCK:   -0.01 KCAL/MOL
REMARK 927      BINDING AFFINITY PREDICTED BY RF-SCORE:    0.00 PKD
ROOT
HETATM    1  C   UNL     1      -8.849   9.879  69.512  1.00  0.00    -0.208 C  
HETATM    2  C   UNL     1     -10.217   9.724  70.129  1.00  0.00    -0.275 C  
HETATM    3  C   UNL     1     -11.323  10.460  69.863  1.00  0.00    -0.302 C  
HETATM    4  S   UNL     1     -12.869  10.011  70.544  1.00  0.00    -0.022 SA 
HETATM    5  O   UNL     1     -10.195   8.628  70.968  1.00  0.00    -0.196 OA 
HETATM    6  C   UNL     1     -11.042   8.537  72.103  1.00  0.00    -0.366 C  
HETATM    7  C   UNL     1     -12.341   9.328  72.122  1.00  0.00    -0.328 C  
ENDROOT
BRANCH   3   8
HETATM    8  C   UNL     1     -11.343  11.603  68.847  1.00  0.00    -0.267 C  
HETATM    9  N   UNL     1     -11.536  11.217  67.530  1.00  0.00    -0.281 N  
HETATM   10  H   UNL     1     -11.705  10.225  67.365  1.00  0.00     0.000 HD 
HETATM   11  O   UNL     1     -11.232  12.773  69.198  1.00  0.00    -0.256 OA 
BRANCH   9  12
HETATM   12  C   UNL     1     -11.521  12.059  66.390  1.00  0.00    -0.353 A  
HETATM   13  C   UNL     1     -10.741  11.803  65.260  1.00  0.00    -0.338 A  
HETATM   14  C   UNL     1     -10.749  12.684  64.171  1.00  0.00    -0.435 A  
HETATM   15  C   UNL     1     -11.537  13.829  64.207  1.00  0.00    -0.395 A  
HETATM   16  C   UNL     1     -12.334  14.082  65.319  1.00  0.00    -0.480 A  
HETATM   17  C   UNL     1     -12.340  13.192  66.401  1.00  0.00    -0.300 A  
ENDBRANCH   9  12
ENDBRANCH   3   8
TORSDOF 2
ENDMDL
MODEL       78
REMARK 921   NORMALIZED FREE ENERGY PREDICTED BY IDOCK:   -4.06 KCAL/MOL
REMARK 922        TOTAL FREE ENERGY PREDICTED BY IDOCK:   -4.75 KCAL/MOL
REMARK 923 INTER-LIGAND FREE ENERGY PREDICTED BY IDOCK:   -4.44 KCAL/MOL
REMARK 924 INTRA-LIGAND FREE ENERGY PREDICTED BY IDOCK:   -0.31 KCAL/MOL
REMARK 927      BINDING AFFINITY PREDICTED BY RF-SCORE:    0.00 PKD
ROOT
HETATM    1  C   UNL     1     -10.917   7.018  70.495  1.00  0.00    -0.297 C  
HETATM    2  C   UNL     1     -11.685   8.298  70.717  1.00  0.00    -0.202 C  
HETATM    3  C   UNL     1     -11.514   9.477  70.073  1.00  0.00    -0.109 C  
HETATM    4  S   UNL     1     -12.626  10.800  70.340  1.00  0.00    -0.267 SA 
HETATM    5  O   UNL     1     -12.678   8.055  71.644  1.00  0.00    -0.313 OA 
HETATM    6  C   UNL     1     -13.169   9.074  72.501  1.00  0.00    -0.406 C  
HETATM    7  C   UNL     1     -13.044  10.527  72.069  1.00  0.00    -0.406 C  
ENDROOT
BRANCH   3   8
HETATM    8  C   UNL     1     -10.474   9.687  68.973  1.00  0.00    -0.213 C  
HETATM    9  N   UNL     1     -10.836   9.215  67.722  1.00  0.00    -0.484 N  
HETATM   10  H   UNL     1     -11.777   8.830  67.633  1.00  0.00     0.000 HD 
HETATM   11  O   UNL     1      -9.416  10.267  69.194  1.00  0.00    -0.193 OA 
BRANCH   9  12
HETATM   12  C   UNL     1     -10.035   9.212  66.552  1.00  0.00    -0.288 A  
HETATM   13  C   UNL     1      -9.086   8.225  66.277  1.00  0.00    -0.235 A  
HETATM   14  C   UNL     1      -8.306   8.287  65.116  1.00  0.00    -0.167 A  
HETATM   15  C   UNL     1      -8.470   9.339  64.221  1.00  0.00    -0.202 A  
HETATM   16  C   UNL     1      -9.427  10.315  64.475  1.00  0.00    -0.356 A  
HETATM   17  C   UNL     1     -10.220  10.244  65.628  1.00  0.00    -0.301 A  
ENDBRANCH   9  12
ENDBRANCH   3   8
TORSDOF 2
ENDMDL
MODEL       79
REMARK 921   NORMALIZED FREE ENERGY PREDICTED BY IDOCK:   -4.06 KCAL/MOL
REMARK 922        TOTAL FREE ENERGY PREDICTED BY IDOCK:   -4.75 KCAL/MOL
REMARK 923 INTER-LIGAND FREE ENERGY PREDICTED BY IDOCK:   -4.54 KCAL/MOL
REMARK 924 INTRA-LIGAND FREE ENERGY PREDICTED BY IDOCK:   -0.21 KCAL/MOL
REMARK 927      BINDING AFFINITY PREDICTED BY RF-SCORE:    0.00 PKD
ROOT
HETATM    1  C   UNL     1      -7.003  13.909  68.220  1.00  0.00    -0.108 C  
HETATM    2  C   UNL     1      -7.840  15.150  68.401  1.00  0.00    -0.127 C  
HETATM    3  C   UNL     1      -9.135  15.324  68.043  1.00  0.00    -0.176 C  
HETATM    4  S   UNL     1      -9.993  16.776  68.502  1.00  0.00    -0.288 SA 
HETATM    5  O   UNL     1      -7.091  16.084  69.088  1.00  0.00    -0.171 OA 
HETATM    6  C   UNL     1      -7.296  17.479  68.920  1.00  0.00    -0.245 C  
HETATM    7  C   UNL     1      -8.653  17.975  68.445  1.00  0.00    -0.290 C  
ENDROOT
BRANCH   3   8
HETATM    8  C   UNL     1      -9.973  14.232  67.377  1.00  0.00    -0.242 C  
HETATM    9  N   UNL     1     -10.224  14.423  66.028  1.00  0.00    -0.302 N  
HETATM   10  H   UNL     1      -9.782  15.232  65.591  1.00  0.00     0.000 HD 
HETATM   11  O   UNL     1     -10.355  13.248  68.001  1.00  0.00    -0.229 OA 
BRANCH   9  12
HETATM   12  C   UNL     1     -11.031  13.610  65.193  1.00  0.00    -0.330 A  
HETATM   13  C   UNL     1     -12.410  13.466  65.367  1.00  0.00    -0.522 A  
HETATM   14  C   UNL     1     -13.153  12.630  64.525  1.00  0.00    -0.068 A  
HETATM   15  C   UNL     1     -12.521  11.930  63.503  1.00  0.00    -0.609 A  
HETATM   16  C   UNL     1     -11.152  12.083  63.307  1.00  0.00    -0.400 A  
HETATM   17  C   UNL     1     -10.411  12.933  64.139  1.00  0.00    -0.429 A  
ENDBRANCH   9  12
ENDBRANCH   3   8
TORSDOF 2
ENDMDL
MODEL       80
REMARK 921   NORMALIZED FREE ENERGY PREDICTED BY IDOCK:   -4.05 KCAL/MOL
REMARK 922        TOTAL FREE ENERGY PREDICTED BY IDOCK:   -4.74 KCAL/MOL
REMARK 923 INTER-LIGAND FREE ENERGY PREDICTED BY IDOCK:   -4.77 KCAL/MOL
REMARK 924 INTRA-LIGAND FREE ENERGY PREDICTED BY IDOCK:    0.03 KCAL/MOL
REMARK 927      BINDING AFFINITY PREDICTED BY RF-SCORE:    0.00 PKD
ROOT
HETATM    1  C   UNL     1      -9.308   4.349  68.594  1.00  0.00    -0.206 C  
HETATM    2  C   UNL     1     -10.117   5.049  69.658  1.00  0.00    -0.251 C  
HETATM    3  C   UNL     1     -10.791   6.218  69.538  1.00  0.00    -0.340 C  
HETATM    4  S   UNL     1     -11.825   6.779  70.831  1.00  0.00    -0.380 SA 
HETATM    5  O   UNL     1     -10.140   4.249  70.783  1.00  0.00    -0.190 OA 
HETATM    6  C   UNL     1     -10.267   4.795  72.087  1.00  0.00    -0.195 C  
HETATM    7  C   UNL     1     -10.926   6.155  72.258  1.00  0.00    -0.260 C  
ENDROOT
BRANCH   3   8
HETATM    8  C   UNL     1     -10.834   7.030  68.243  1.00  0.00    -0.141 C  
HETATM    9  N   UNL     1     -10.420   8.347  68.361  1.00  0.00    -0.318 N  
HETATM   10  H   UNL     1     -10.070   8.636  69.274  1.00  0.00     0.000 HD 
HETATM   11  O   UNL     1     -11.179   6.524  67.181  1.00  0.00    -0.388 OA 
BRANCH   9  12
HETATM   12  C   UNL     1     -10.433   9.333  67.343  1.00  0.00    -0.273 A  
HETATM   13  C   UNL     1      -9.790   9.172  66.113  1.00  0.00    -0.363 A  
HETATM   14  C   UNL     1      -9.816  10.191  65.153  1.00  0.00    -0.394 A  
HETATM   15  C   UNL     1     -10.487  11.381  65.418  1.00  0.00    -0.336 A  
HETATM   16  C   UNL     1     -11.149  11.543  66.631  1.00  0.00    -0.355 A  
HETATM   17  C   UNL     1     -11.137  10.516  67.584  1.00  0.00    -0.375 A  
ENDBRANCH   9  12
ENDBRANCH   3   8
TORSDOF 2
ENDMDL
MODEL       81
REMARK 921   NORMALIZED FREE ENERGY PREDICTED BY IDOCK:   -4.02 KCAL/MOL
REMARK 922        TOTAL FREE ENERGY PREDICTED BY IDOCK:   -4.70 KCAL/MOL
REMARK 923 INTER-LIGAND FREE ENERGY PREDICTED BY IDOCK:   -4.73 KCAL/MOL
REMARK 924 INTRA-LIGAND FREE ENERGY PREDICTED BY IDOCK:    0.03 KCAL/MOL
REMARK 927      BINDING AFFINITY PREDICTED BY RF-SCORE:    0.00 PKD
ROOT
HETATM    1  C   UNL     1      -9.252   9.922  69.907  1.00  0.00    -0.245 C  
HETATM    2  C   UNL     1      -9.687   8.726  69.098  1.00  0.00    -0.175 C  
HETATM    3  C   UNL     1     -10.047   8.708  67.792  1.00  0.00    -0.211 C  
HETATM    4  S   UNL     1     -10.345   7.189  66.978  1.00  0.00    -0.306 SA 
HETATM    5  O   UNL     1      -9.575   7.601  69.890  1.00  0.00    -0.161 OA 
HETATM    6  C   UNL     1     -10.407   6.467  69.701  1.00  0.00    -0.204 C  
HETATM    7  C   UNL     1     -11.027   6.224  68.333  1.00  0.00    -0.325 C  
ENDROOT
BRANCH   3   8
HETATM    8  C   UNL     1     -10.059   9.956  66.909  1.00  0.00    -0.225 C  
HETATM    9  N   UNL     1     -11.132  10.809  67.112  1.00  0.00    -0.274 N  
HETATM   10  H   UNL     1     -11.776  10.564  67.863  1.00  0.00     0.000 HD 
HETATM   11  O   UNL     1      -9.156  10.185  66.112  1.00  0.00    -0.149 OA 
BRANCH   9  12
HETATM   12  C   UNL     1     -11.425  11.988  66.382  1.00  0.00    -0.353 A  
HETATM   13  C   UNL     1     -11.748  13.204  66.989  1.00  0.00    -0.431 A  
HETATM   14  C   UNL     1     -12.053  14.331  66.216  1.00  0.00    -0.433 A  
HETATM   15  C   UNL     1     -12.038  14.249  64.827  1.00  0.00    -0.457 A  
HETATM   16  C   UNL     1     -11.696  13.049  64.213  1.00  0.00    -0.444 A  
HETATM   17  C   UNL     1     -11.375  11.926  64.986  1.00  0.00    -0.333 A  
ENDBRANCH   9  12
ENDBRANCH   3   8
TORSDOF 2
ENDMDL
MODEL       82
REMARK 921   NORMALIZED FREE ENERGY PREDICTED BY IDOCK:   -4.00 KCAL/MOL
REMARK 922        TOTAL FREE ENERGY PREDICTED BY IDOCK:   -4.69 KCAL/MOL
REMARK 923 INTER-LIGAND FREE ENERGY PREDICTED BY IDOCK:   -4.37 KCAL/MOL
REMARK 924 INTRA-LIGAND FREE ENERGY PREDICTED BY IDOCK:   -0.32 KCAL/MOL
REMARK 927      BINDING AFFINITY PREDICTED BY RF-SCORE:    0.00 PKD
ROOT
HETATM    1  C   UNL     1      -7.241   9.886  70.110  1.00  0.00    -0.159 C  
HETATM    2  C   UNL     1      -8.566   9.325  70.565  1.00  0.00    -0.233 C  
HETATM    3  C   UNL     1      -9.778   9.521  69.993  1.00  0.00    -0.236 C  
HETATM    4  S   UNL     1     -11.176   8.636  70.559  1.00  0.00    -0.210 SA 
HETATM    5  O   UNL     1      -8.337   8.484  71.635  1.00  0.00    -0.141 OA 
HETATM    6  C   UNL     1      -9.315   8.271  72.642  1.00  0.00    -0.280 C  
HETATM    7  C   UNL     1     -10.782   8.492  72.308  1.00  0.00    -0.341 C  
ENDROOT
BRANCH   3   8
HETATM    8  C   UNL     1      -9.985  10.376  68.742  1.00  0.00    -0.188 C  
HETATM    9  N   UNL     1     -10.143  11.732  68.976  1.00  0.00    -0.416 N  
HETATM   10  H   UNL     1     -10.047  12.044  69.942  1.00  0.00     0.000 HD 
HETATM   11  O   UNL     1      -9.972   9.881  67.620  1.00  0.00    -0.158 OA 
BRANCH   9  12
HETATM   12  C   UNL     1     -10.424  12.731  68.010  1.00  0.00    -0.226 A  
HETATM   13  C   UNL     1      -9.432  13.468  67.360  1.00  0.00    -0.225 A  
HETATM   14  C   UNL     1      -9.770  14.460  66.431  1.00  0.00    -0.320 A  
HETATM   15  C   UNL     1     -11.106  14.721  66.146  1.00  0.00    -0.339 A  
HETATM   16  C   UNL     1     -12.101  13.978  66.771  1.00  0.00    -0.480 A  
HETATM   17  C   UNL     1     -11.763  12.974  67.688  1.00  0.00    -0.415 A  
ENDBRANCH   9  12
ENDBRANCH   3   8
TORSDOF 2
ENDMDL
MODEL       83
REMARK 921   NORMALIZED FREE ENERGY PREDICTED BY IDOCK:   -4.00 KCAL/MOL
REMARK 922        TOTAL FREE ENERGY PREDICTED BY IDOCK:   -4.69 KCAL/MOL
REMARK 923 INTER-LIGAND FREE ENERGY PREDICTED BY IDOCK:   -4.38 KCAL/MOL
REMARK 924 INTRA-LIGAND FREE ENERGY PREDICTED BY IDOCK:   -0.31 KCAL/MOL
REMARK 927      BINDING AFFINITY PREDICTED BY RF-SCORE:    0.00 PKD
ROOT
HETATM    1  C   UNL     1     -10.790   9.919  70.394  1.00  0.00    -0.380 C  
HETATM    2  C   UNL     1     -10.022   9.004  69.473  1.00  0.00    -0.191 C  
HETATM    3  C   UNL     1      -9.556   9.293  68.234  1.00  0.00    -0.147 C  
HETATM    4  S   UNL     1      -8.526   8.159  67.391  1.00  0.00    -0.126 SA 
HETATM    5  O   UNL     1      -9.783   7.819  70.138  1.00  0.00    -0.182 OA 
HETATM    6  C   UNL     1      -9.642   6.587  69.446  1.00  0.00    -0.144 C  
HETATM    7  C   UNL     1      -9.198   6.602  67.991  1.00  0.00    -0.112 C  
ENDROOT
BRANCH   3   8
HETATM    8  C   UNL     1      -9.746  10.654  67.564  1.00  0.00    -0.166 C  
HETATM    9  N   UNL     1     -10.929  10.803  66.859  1.00  0.00    -0.231 N  
HETATM   10  H   UNL     1     -11.586  10.024  66.900  1.00  0.00     0.000 HD 
HETATM   11  O   UNL     1      -8.915  11.548  67.685  1.00  0.00    -0.153 OA 
BRANCH   9  12
HETATM   12  C   UNL     1     -11.319  11.926  66.087  1.00  0.00    -0.324 A  
HETATM   13  C   UNL     1     -11.153  11.998  64.702  1.00  0.00    -0.375 A  
HETATM   14  C   UNL     1     -11.535  13.144  63.994  1.00  0.00    -0.455 A  
HETATM   15  C   UNL     1     -12.087  14.227  64.668  1.00  0.00    -0.478 A  
HETATM   16  C   UNL     1     -12.277  14.158  66.044  1.00  0.00    -0.464 A  
HETATM   17  C   UNL     1     -11.910  13.005  66.751  1.00  0.00    -0.451 A  
ENDBRANCH   9  12
ENDBRANCH   3   8
TORSDOF 2
ENDMDL
MODEL       84
REMARK 921   NORMALIZED FREE ENERGY PREDICTED BY IDOCK:   -4.00 KCAL/MOL
REMARK 922        TOTAL FREE ENERGY PREDICTED BY IDOCK:   -4.68 KCAL/MOL
REMARK 923 INTER-LIGAND FREE ENERGY PREDICTED BY IDOCK:   -4.57 KCAL/MOL
REMARK 924 INTRA-LIGAND FREE ENERGY PREDICTED BY IDOCK:   -0.11 KCAL/MOL
REMARK 927      BINDING AFFINITY PREDICTED BY RF-SCORE:    0.00 PKD
ROOT
HETATM    1  C   UNL     1     -11.637  11.930  69.294  1.00  0.00    -0.376 C  
HETATM    2  C   UNL     1     -11.590  13.397  68.943  1.00  0.00    -0.314 C  
HETATM    3  C   UNL     1     -10.922  13.971  67.915  1.00  0.00    -0.247 C  
HETATM    4  S   UNL     1     -11.137  15.670  67.559  1.00  0.00    -0.244 SA 
HETATM    5  O   UNL     1     -12.427  14.077  69.804  1.00  0.00    -0.325 OA 
HETATM    6  C   UNL     1     -12.195  15.431  70.160  1.00  0.00    -0.375 C  
HETATM    7  C   UNL     1     -11.395  16.317  69.218  1.00  0.00    -0.288 C  
ENDROOT
BRANCH   3   8
HETATM    8  C   UNL     1     -10.085  13.176  66.912  1.00  0.00    -0.245 C  
HETATM    9  N   UNL     1     -10.771  12.185  66.228  1.00  0.00    -0.252 N  
HETATM   10  H   UNL     1     -11.772  12.115  66.408  1.00  0.00     0.000 HD 
HETATM   11  O   UNL     1      -8.903  13.437  66.714  1.00  0.00    -0.213 OA 
BRANCH   9  12
HETATM   12  C   UNL     1     -10.223  11.258  65.306  1.00  0.00    -0.274 A  
HETATM   13  C   UNL     1      -9.684  10.027  65.686  1.00  0.00    -0.336 A  
HETATM   14  C   UNL     1      -9.135   9.161  64.733  1.00  0.00    -0.157 A  
HETATM   15  C   UNL     1      -9.120   9.523  63.390  1.00  0.00    -0.145 A  
HETATM   16  C   UNL     1      -9.674  10.737  62.997  1.00  0.00    -0.374 A  
HETATM   17  C   UNL     1     -10.239  11.596  63.949  1.00  0.00    -0.409 A  
ENDBRANCH   9  12
ENDBRANCH   3   8
TORSDOF 2
ENDMDL
MODEL       85
REMARK 921   NORMALIZED FREE ENERGY PREDICTED BY IDOCK:   -4.00 KCAL/MOL
REMARK 922        TOTAL FREE ENERGY PREDICTED BY IDOCK:   -4.68 KCAL/MOL
REMARK 923 INTER-LIGAND FREE ENERGY PREDICTED BY IDOCK:   -4.43 KCAL/MOL
REMARK 924 INTRA-LIGAND FREE ENERGY PREDICTED BY IDOCK:   -0.25 KCAL/MOL
REMARK 927      BINDING AFFINITY PREDICTED BY RF-SCORE:    0.00 PKD
ROOT
HETATM    1  C   UNL     1     -10.532  11.922  65.003  1.00  0.00    -0.333 C  
HETATM    2  C   UNL     1      -9.890  10.563  65.132  1.00  0.00    -0.297 C  
HETATM    3  C   UNL     1      -9.577   9.910  66.277  1.00  0.00    -0.209 C  
HETATM    4  S   UNL     1      -9.004   8.259  66.226  1.00  0.00    -0.193 SA 
HETATM    5  O   UNL     1      -9.743  10.029  63.868  1.00  0.00    -0.257 OA 
HETATM    6  C   UNL     1      -8.705   9.113  63.557  1.00  0.00    -0.128 C  
HETATM    7  C   UNL     1      -8.094   8.281  64.675  1.00  0.00    -0.150 C  
ENDROOT
BRANCH   3   8
HETATM    8  C   UNL     1      -9.849  10.483  67.669  1.00  0.00    -0.166 C  
HETATM    9  N   UNL     1     -11.140  10.302  68.138  1.00  0.00    -0.383 N  
HETATM   10  H   UNL     1     -11.768   9.757  67.548  1.00  0.00     0.000 HD 
HETATM   11  O   UNL     1      -8.965  11.029  68.321  1.00  0.00    -0.141 OA 
BRANCH   9  12
HETATM   12  C   UNL     1     -11.677  10.797  69.352  1.00  0.00    -0.306 A  
HETATM   13  C   UNL     1     -12.002   9.978  70.436  1.00  0.00    -0.318 A  
HETATM   14  C   UNL     1     -12.553  10.520  71.603  1.00  0.00    -0.498 A  
HETATM   15  C   UNL     1     -12.783  11.888  71.695  1.00  0.00    -0.340 A  
HETATM   16  C   UNL     1     -12.442  12.717  70.631  1.00  0.00    -0.323 A  
HETATM   17  C   UNL     1     -11.875  12.176  69.469  1.00  0.00    -0.386 A  
ENDBRANCH   9  12
ENDBRANCH   3   8
TORSDOF 2
ENDMDL
MODEL       86
REMARK 921   NORMALIZED FREE ENERGY PREDICTED BY IDOCK:   -3.93 KCAL/MOL
REMARK 922        TOTAL FREE ENERGY PREDICTED BY IDOCK:   -4.60 KCAL/MOL
REMARK 923 INTER-LIGAND FREE ENERGY PREDICTED BY IDOCK:   -4.28 KCAL/MOL
REMARK 924 INTRA-LIGAND FREE ENERGY PREDICTED BY IDOCK:   -0.32 KCAL/MOL
REMARK 927      BINDING AFFINITY PREDICTED BY RF-SCORE:    0.00 PKD
ROOT
HETATM    1  C   UNL     1     -10.321   9.485  70.733  1.00  0.00    -0.377 C  
HETATM    2  C   UNL     1     -10.234   8.912  69.340  1.00  0.00    -0.209 C  
HETATM    3  C   UNL     1     -10.568   9.527  68.180  1.00  0.00    -0.217 C  
HETATM    4  S   UNL     1     -10.222   8.764  66.645  1.00  0.00    -0.225 SA 
HETATM    5  O   UNL     1      -9.661   7.659  69.420  1.00  0.00    -0.163 OA 
HETATM    6  C   UNL     1      -9.954   6.640  68.477  1.00  0.00    -0.150 C  
HETATM    7  C   UNL     1     -10.433   7.034  67.088  1.00  0.00    -0.312 C  
ENDROOT
BRANCH   3   8
HETATM    8  C   UNL     1     -11.101  10.958  68.114  1.00  0.00    -0.280 C  
HETATM    9  N   UNL     1     -10.171  11.917  67.746  1.00  0.00    -0.196 N  
HETATM   10  H   UNL     1      -9.241  11.579  67.496  1.00  0.00     0.000 HD 
HETATM   11  O   UNL     1     -12.280  11.213  68.339  1.00  0.00    -0.610 OA 
BRANCH   9  12
HETATM   12  C   UNL     1     -10.378  13.317  67.682  1.00  0.00    -0.230 A  
HETATM   13  C   UNL     1     -10.266  14.160  68.790  1.00  0.00    -0.216 A  
HETATM   14  C   UNL     1     -10.505  15.534  68.671  1.00  0.00    -0.237 A  
HETATM   15  C   UNL     1     -10.861  16.076  67.441  1.00  0.00    -0.277 A  
HETATM   16  C   UNL     1     -10.955  15.249  66.326  1.00  0.00    -0.300 A  
HETATM   17  C   UNL     1     -10.698  13.876  66.441  1.00  0.00    -0.281 A  
ENDBRANCH   9  12
ENDBRANCH   3   8
TORSDOF 2
ENDMDL
MODEL       87
REMARK 921   NORMALIZED FREE ENERGY PREDICTED BY IDOCK:   -3.91 KCAL/MOL
REMARK 922        TOTAL FREE ENERGY PREDICTED BY IDOCK:   -4.58 KCAL/MOL
REMARK 923 INTER-LIGAND FREE ENERGY PREDICTED BY IDOCK:   -4.47 KCAL/MOL
REMARK 924 INTRA-LIGAND FREE ENERGY PREDICTED BY IDOCK:   -0.11 KCAL/MOL
REMARK 927      BINDING AFFINITY PREDICTED BY RF-SCORE:    0.00 PKD
ROOT
HETATM    1  C   UNL     1      -7.453   8.988  68.433  1.00  0.00    -0.082 C  
HETATM    2  C   UNL     1      -8.627   8.826  69.367  1.00  0.00    -0.133 C  
HETATM    3  C   UNL     1      -9.935   9.030  69.080  1.00  0.00    -0.185 C  
HETATM    4  S   UNL     1     -11.171   8.612  70.245  1.00  0.00    -0.125 SA 
HETATM    5  O   UNL     1      -8.161   8.340  70.571  1.00  0.00    -0.098 OA 
HETATM    6  C   UNL     1      -8.819   8.621  71.797  1.00  0.00    -0.211 C  
HETATM    7  C   UNL     1     -10.300   8.964  71.780  1.00  0.00    -0.356 C  
ENDROOT
BRANCH   3   8
HETATM    8  C   UNL     1     -10.432   9.467  67.702  1.00  0.00    -0.263 C  
HETATM    9  N   UNL     1     -10.437  10.836  67.486  1.00  0.00    -0.206 N  
HETATM   10  H   UNL     1     -10.056  11.418  68.231  1.00  0.00     0.000 HD 
HETATM   11  O   UNL     1     -10.764   8.649  66.852  1.00  0.00    -0.252 OA 
BRANCH   9  12
HETATM   12  C   UNL     1     -10.917  11.509  66.335  1.00  0.00    -0.284 A  
HETATM   13  C   UNL     1     -10.497  11.203  65.038  1.00  0.00    -0.357 A  
HETATM   14  C   UNL     1     -10.988  11.919  63.939  1.00  0.00    -0.473 A  
HETATM   15  C   UNL     1     -11.903  12.949  64.131  1.00  0.00    -0.479 A  
HETATM   16  C   UNL     1     -12.344  13.247  65.416  1.00  0.00    -0.528 A  
HETATM   17  C   UNL     1     -11.866  12.519  66.514  1.00  0.00    -0.434 A  
ENDBRANCH   9  12
ENDBRANCH   3   8
TORSDOF 2
ENDMDL
MODEL       88
REMARK 921   NORMALIZED FREE ENERGY PREDICTED BY IDOCK:   -3.89 KCAL/MOL
REMARK 922        TOTAL FREE ENERGY PREDICTED BY IDOCK:   -4.56 KCAL/MOL
REMARK 923 INTER-LIGAND FREE ENERGY PREDICTED BY IDOCK:   -4.40 KCAL/MOL
REMARK 924 INTRA-LIGAND FREE ENERGY PREDICTED BY IDOCK:   -0.16 KCAL/MOL
REMARK 927      BINDING AFFINITY PREDICTED BY RF-SCORE:    0.00 PKD
ROOT
HETATM    1  C   UNL     1     -10.354   8.432  66.838  1.00  0.00    -0.378 C  
HETATM    2  C   UNL     1      -9.278   9.486  66.926  1.00  0.00    -0.143 C  
HETATM    3  C   UNL     1      -9.387  10.723  67.468  1.00  0.00    -0.147 C  
HETATM    4  S   UNL     1      -7.975  11.739  67.643  1.00  0.00    -0.153 SA 
HETATM    5  O   UNL     1      -8.104   8.953  66.434  1.00  0.00    -0.107 OA 
HETATM    6  C   UNL     1      -7.109   9.764  65.829  1.00  0.00    -0.104 C  
HETATM    7  C   UNL     1      -7.035  11.239  66.193  1.00  0.00     0.067 C  
ENDROOT
BRANCH   3   8
HETATM    8  C   UNL     1     -10.675  11.249  68.103  1.00  0.00    -0.204 C  
HETATM    9  N   UNL     1     -10.539  11.736  69.393  1.00  0.00    -0.440 N  
HETATM   10  H   UNL     1      -9.594  11.757  69.776  1.00  0.00     0.000 HD 
HETATM   11  O   UNL     1     -11.734  11.262  67.485  1.00  0.00    -0.574 OA 
BRANCH   9  12
HETATM   12  C   UNL     1     -11.578  12.208  70.234  1.00  0.00    -0.017 A  
HETATM   13  C   UNL     1     -11.956  13.551  70.304  1.00  0.00    -0.386 A  
HETATM   14  C   UNL     1     -12.975  13.963  71.171  1.00  0.00    -0.388 A  
HETATM   15  C   UNL     1     -13.622  13.033  71.977  1.00  0.00    -0.530 A  
HETATM   16  C   UNL     1     -13.269  11.690  71.899  1.00  0.00    -0.475 A  
HETATM   17  C   UNL     1     -12.262  11.275  71.019  1.00  0.00    -0.417 A  
ENDBRANCH   9  12
ENDBRANCH   3   8
TORSDOF 2
ENDMDL
MODEL       89
REMARK 921   NORMALIZED FREE ENERGY PREDICTED BY IDOCK:   -3.87 KCAL/MOL
REMARK 922        TOTAL FREE ENERGY PREDICTED BY IDOCK:   -4.54 KCAL/MOL
REMARK 923 INTER-LIGAND FREE ENERGY PREDICTED BY IDOCK:   -5.13 KCAL/MOL
REMARK 924 INTRA-LIGAND FREE ENERGY PREDICTED BY IDOCK:    0.59 KCAL/MOL
REMARK 927      BINDING AFFINITY PREDICTED BY RF-SCORE:    0.00 PKD
ROOT
HETATM    1  C   UNL     1      -9.935   9.396  71.094  1.00  0.00    -0.311 C  
HETATM    2  C   UNL     1     -11.291   8.745  71.214  1.00  0.00    -0.291 C  
HETATM    3  C   UNL     1     -12.494   9.365  71.282  1.00  0.00    -0.335 C  
HETATM    4  S   UNL     1     -13.973   8.434  71.232  1.00  0.00    -0.104 SA 
HETATM    5  O   UNL     1     -11.124   7.377  71.152  1.00  0.00    -0.244 OA 
HETATM    6  C   UNL     1     -12.020   6.483  71.796  1.00  0.00    -0.344 C  
HETATM    7  C   UNL     1     -13.443   6.938  72.079  1.00  0.00    -0.021 C  
ENDROOT
BRANCH   3   8
HETATM    8  C   UNL     1     -12.656  10.885  71.241  1.00  0.00    -0.421 C  
HETATM    9  N   UNL     1     -12.112  11.505  70.128  1.00  0.00    -0.346 N  
HETATM   10  H   UNL     1     -11.712  10.895  69.415  1.00  0.00     0.000 HD 
HETATM   11  O   UNL     1     -13.258  11.489  72.122  1.00  0.00    -0.505 OA 
BRANCH   9  12
HETATM   12  C   UNL     1     -12.055  12.899  69.878  1.00  0.00    -0.265 A  
HETATM   13  C   UNL     1     -11.724  13.441  68.634  1.00  0.00    -0.384 A  
HETATM   14  C   UNL     1     -11.660  14.827  68.451  1.00  0.00    -0.350 A  
HETATM   15  C   UNL     1     -11.926  15.683  69.515  1.00  0.00    -0.363 A  
HETATM   16  C   UNL     1     -12.277  15.155  70.752  1.00  0.00    -0.392 A  
HETATM   17  C   UNL     1     -12.359  13.767  70.930  1.00  0.00    -0.456 A  
ENDBRANCH   9  12
ENDBRANCH   3   8
TORSDOF 2
ENDMDL
MODEL       90
REMARK 921   NORMALIZED FREE ENERGY PREDICTED BY IDOCK:   -3.86 KCAL/MOL
REMARK 922        TOTAL FREE ENERGY PREDICTED BY IDOCK:   -4.53 KCAL/MOL
REMARK 923 INTER-LIGAND FREE ENERGY PREDICTED BY IDOCK:   -4.22 KCAL/MOL
REMARK 924 INTRA-LIGAND FREE ENERGY PREDICTED BY IDOCK:   -0.32 KCAL/MOL
REMARK 927      BINDING AFFINITY PREDICTED BY RF-SCORE:    0.00 PKD
ROOT
HETATM    1  C   UNL     1      -9.668   6.122  69.338  1.00  0.00    -0.172 C  
HETATM    2  C   UNL     1      -9.108   7.019  68.262  1.00  0.00    -0.126 C  
HETATM    3  C   UNL     1      -9.079   8.373  68.258  1.00  0.00    -0.139 C  
HETATM    4  S   UNL     1      -8.219   9.236  67.003  1.00  0.00    -0.116 SA 
HETATM    5  O   UNL     1      -8.531   6.226  67.291  1.00  0.00    -0.109 OA 
HETATM    6  C   UNL     1      -8.454   6.639  65.935  1.00  0.00    -0.144 C  
HETATM    7  C   UNL     1      -8.478   8.125  65.612  1.00  0.00    -0.156 C  
ENDROOT
BRANCH   3   8
HETATM    8  C   UNL     1      -9.631   9.226  69.401  1.00  0.00    -0.168 C  
HETATM    9  N   UNL     1     -10.984   9.517  69.317  1.00  0.00    -0.373 N  
HETATM   10  H   UNL     1     -11.496   9.091  68.545  1.00  0.00     0.000 HD 
HETATM   11  O   UNL     1      -8.921   9.586  70.333  1.00  0.00    -0.237 OA 
BRANCH   9  12
HETATM   12  C   UNL     1     -11.728  10.344  70.195  1.00  0.00    -0.312 A  
HETATM   13  C   UNL     1     -12.485   9.847  71.258  1.00  0.00    -0.479 A  
HETATM   14  C   UNL     1     -13.220  10.712  72.079  1.00  0.00    -0.473 A  
HETATM   15  C   UNL     1     -13.203  12.081  71.840  1.00  0.00    -0.469 A  
HETATM   16  C   UNL     1     -12.435  12.589  70.797  1.00  0.00    -0.357 A  
HETATM   17  C   UNL     1     -11.686  11.726  69.987  1.00  0.00    -0.386 A  
ENDBRANCH   9  12
ENDBRANCH   3   8
TORSDOF 2
ENDMDL
MODEL       91
REMARK 921   NORMALIZED FREE ENERGY PREDICTED BY IDOCK:   -3.85 KCAL/MOL
REMARK 922        TOTAL FREE ENERGY PREDICTED BY IDOCK:   -4.52 KCAL/MOL
REMARK 923 INTER-LIGAND FREE ENERGY PREDICTED BY IDOCK:   -4.19 KCAL/MOL
REMARK 924 INTRA-LIGAND FREE ENERGY PREDICTED BY IDOCK:   -0.33 KCAL/MOL
REMARK 927      BINDING AFFINITY PREDICTED BY RF-SCORE:    0.00 PKD
ROOT
HETATM    1  C   UNL     1      -8.455  12.432  67.601  1.00  0.00    -0.169 C  
HETATM    2  C   UNL     1      -9.772  12.593  68.319  1.00  0.00    -0.216 C  
HETATM    3  C   UNL     1     -10.319  13.745  68.777  1.00  0.00    -0.192 C  
HETATM    4  S   UNL     1     -11.944  13.756  69.423  1.00  0.00    -0.340 SA 
HETATM    5  O   UNL     1     -10.397  11.364  68.363  1.00  0.00    -0.181 OA 
HETATM    6  C   UNL     1     -11.291  11.015  69.409  1.00  0.00    -0.284 C  
HETATM    7  C   UNL     1     -12.007  12.120  70.169  1.00  0.00    -0.314 C  
ENDROOT
BRANCH   3   8
HETATM    8  C   UNL     1      -9.650  15.110  68.619  1.00  0.00    -0.213 C  
HETATM    9  N   UNL     1      -9.847  15.724  67.392  1.00  0.00    -0.231 N  
HETATM   10  H   UNL     1     -10.462  15.245  66.735  1.00  0.00     0.000 HD 
HETATM   11  O   UNL     1      -9.020  15.625  69.537  1.00  0.00    -0.271 OA 
BRANCH   9  12
HETATM   12  C   UNL     1      -9.281  16.948  66.957  1.00  0.00    -0.234 A  
HETATM   13  C   UNL     1      -9.926  18.180  67.091  1.00  0.00    -0.341 A  
HETATM   14  C   UNL     1      -9.328  19.355  66.620  1.00  0.00    -0.408 A  
HETATM   15  C   UNL     1      -8.079  19.306  66.011  1.00  0.00    -0.234 A  
HETATM   16  C   UNL     1      -7.418  18.088  65.892  1.00  0.00    -0.213 A  
HETATM   17  C   UNL     1      -8.009  16.914  66.379  1.00  0.00    -0.352 A  
ENDBRANCH   9  12
ENDBRANCH   3   8
TORSDOF 2
ENDMDL
MODEL       92
REMARK 921   NORMALIZED FREE ENERGY PREDICTED BY IDOCK:   -3.84 KCAL/MOL
REMARK 922        TOTAL FREE ENERGY PREDICTED BY IDOCK:   -4.51 KCAL/MOL
REMARK 923 INTER-LIGAND FREE ENERGY PREDICTED BY IDOCK:   -4.19 KCAL/MOL
REMARK 924 INTRA-LIGAND FREE ENERGY PREDICTED BY IDOCK:   -0.32 KCAL/MOL
REMARK 927      BINDING AFFINITY PREDICTED BY RF-SCORE:    0.00 PKD
ROOT
HETATM    1  C   UNL     1     -11.081  10.475  70.125  1.00  0.00    -0.369 C  
HETATM    2  C   UNL     1     -10.753   9.870  68.782  1.00  0.00    -0.220 C  
HETATM    3  C   UNL     1     -10.195   8.659  68.543  1.00  0.00    -0.195 C  
HETATM    4  S   UNL     1     -10.061   8.054  66.909  1.00  0.00    -0.304 SA 
HETATM    5  O   UNL     1     -11.202  10.727  67.797  1.00  0.00    -0.297 OA 
HETATM    6  C   UNL     1     -10.580  10.796  66.524  1.00  0.00    -0.218 C  
HETATM    7  C   UNL     1      -9.802   9.593  66.014  1.00  0.00    -0.274 C  
ENDROOT
BRANCH   3   8
HETATM    8  C   UNL     1      -9.804   7.684  69.654  1.00  0.00    -0.181 C  
HETATM    9  N   UNL     1     -10.740   6.701  69.931  1.00  0.00    -0.230 N  
HETATM   10  H   UNL     1     -11.568   6.677  69.335  1.00  0.00     0.000 HD 
HETATM   11  O   UNL     1      -8.721   7.762  70.223  1.00  0.00    -0.140 OA 
BRANCH   9  12
HETATM   12  C   UNL     1     -10.666   5.724  70.955  1.00  0.00    -0.264 A  
HETATM   13  C   UNL     1      -9.947   4.533  70.826  1.00  0.00    -0.269 A  
HETATM   14  C   UNL     1      -9.928   3.593  71.864  1.00  0.00    -0.223 A  
HETATM   15  C   UNL     1     -10.631   3.838  73.039  1.00  0.00    -0.253 A  
HETATM   16  C   UNL     1     -11.332   5.031  73.186  1.00  0.00    -0.397 A  
HETATM   17  C   UNL     1     -11.336   5.979  72.155  1.00  0.00    -0.351 A  
ENDBRANCH   9  12
ENDBRANCH   3   8
TORSDOF 2
ENDMDL
MODEL       93
REMARK 921   NORMALIZED FREE ENERGY PREDICTED BY IDOCK:   -3.81 KCAL/MOL
REMARK 922        TOTAL FREE ENERGY PREDICTED BY IDOCK:   -4.47 KCAL/MOL
REMARK 923 INTER-LIGAND FREE ENERGY PREDICTED BY IDOCK:   -4.21 KCAL/MOL
REMARK 924 INTRA-LIGAND FREE ENERGY PREDICTED BY IDOCK:   -0.26 KCAL/MOL
REMARK 927      BINDING AFFINITY PREDICTED BY RF-SCORE:    0.00 PKD
ROOT
HETATM    1  C   UNL     1      -9.932   5.040  70.819  1.00  0.00    -0.291 C  
HETATM    2  C   UNL     1      -9.805   5.429  69.367  1.00  0.00    -0.184 C  
HETATM    3  C   UNL     1      -9.885   6.676  68.844  1.00  0.00    -0.139 C  
HETATM    4  S   UNL     1      -9.527   6.951  67.155  1.00  0.00    -0.146 SA 
HETATM    5  O   UNL     1      -9.497   4.298  68.638  1.00  0.00    -0.142 OA 
HETATM    6  C   UNL     1      -9.876   4.158  67.278  1.00  0.00    -0.123 C  
HETATM    7  C   UNL     1     -10.115   5.407  66.444  1.00  0.00    -0.204 C  
ENDROOT
BRANCH   3   8
HETATM    8  C   UNL     1     -10.123   7.926  69.692  1.00  0.00    -0.197 C  
HETATM    9  N   UNL     1     -11.359   8.528  69.519  1.00  0.00    -0.416 N  
HETATM   10  H   UNL     1     -12.014   8.056  68.896  1.00  0.00     0.000 HD 
HETATM   11  O   UNL     1      -9.281   8.330  70.487  1.00  0.00    -0.147 OA 
BRANCH   9  12
HETATM   12  C   UNL     1     -11.805   9.732  70.118  1.00  0.00    -0.079 A  
HETATM   13  C   UNL     1     -11.476  10.999  69.630  1.00  0.00    -0.375 A  
HETATM   14  C   UNL     1     -11.927  12.155  70.279  1.00  0.00    -0.389 A  
HETATM   15  C   UNL     1     -12.711  12.052  71.422  1.00  0.00    -0.380 A  
HETATM   16  C   UNL     1     -13.064  10.796  71.904  1.00  0.00    -0.557 A  
HETATM   17  C   UNL     1     -12.627   9.639  71.246  1.00  0.00    -0.443 A  
ENDBRANCH   9  12
ENDBRANCH   3   8
TORSDOF 2
ENDMDL
MODEL       94
REMARK 921   NORMALIZED FREE ENERGY PREDICTED BY IDOCK:   -3.80 KCAL/MOL
REMARK 922        TOTAL FREE ENERGY PREDICTED BY IDOCK:   -4.46 KCAL/MOL
REMARK 923 INTER-LIGAND FREE ENERGY PREDICTED BY IDOCK:   -4.15 KCAL/MOL
REMARK 924 INTRA-LIGAND FREE ENERGY PREDICTED BY IDOCK:   -0.31 KCAL/MOL
REMARK 927      BINDING AFFINITY PREDICTED BY RF-SCORE:    0.00 PKD
ROOT
HETATM    1  C   UNL     1      -8.536   6.236  67.908  1.00  0.00    -0.115 C  
HETATM    2  C   UNL     1      -8.581   5.446  69.192  1.00  0.00    -0.102 C  
HETATM    3  C   UNL     1      -9.461   5.592  70.212  1.00  0.00    -0.165 C  
HETATM    4  S   UNL     1      -9.468   4.457  71.542  1.00  0.00    -0.162 SA 
HETATM    5  O   UNL     1      -7.615   4.462  69.132  1.00  0.00    -0.055 OA 
HETATM    6  C   UNL     1      -6.988   3.956  70.301  1.00  0.00    -0.038 C  
HETATM    7  C   UNL     1      -7.717   4.053  71.632  1.00  0.00    -0.065 C  
ENDROOT
BRANCH   3   8
HETATM    8  C   UNL     1     -10.589   6.623  70.204  1.00  0.00    -0.221 C  
HETATM    9  N   UNL     1     -10.324   7.793  70.898  1.00  0.00    -0.200 N  
HETATM   10  H   UNL     1      -9.389   7.886  71.295  1.00  0.00     0.000 HD 
HETATM   11  O   UNL     1     -11.633   6.425  69.591  1.00  0.00    -0.417 OA 
BRANCH   9  12
HETATM   12  C   UNL     1     -11.216   8.872  71.112  1.00  0.00    -0.284 A  
HETATM   13  C   UNL     1     -12.251   8.835  72.050  1.00  0.00    -0.447 A  
HETATM   14  C   UNL     1     -13.119   9.924  72.201  1.00  0.00    -0.497 A  
HETATM   15  C   UNL     1     -12.957  11.059  71.414  1.00  0.00    -0.517 A  
HETATM   16  C   UNL     1     -11.916  11.115  70.492  1.00  0.00    -0.475 A  
HETATM   17  C   UNL     1     -11.038  10.032  70.353  1.00  0.00    -0.393 A  
ENDBRANCH   9  12
ENDBRANCH   3   8
TORSDOF 2
ENDMDL
MODEL       95
REMARK 921   NORMALIZED FREE ENERGY PREDICTED BY IDOCK:   -3.78 KCAL/MOL
REMARK 922        TOTAL FREE ENERGY PREDICTED BY IDOCK:   -4.44 KCAL/MOL
REMARK 923 INTER-LIGAND FREE ENERGY PREDICTED BY IDOCK:   -4.60 KCAL/MOL
REMARK 924 INTRA-LIGAND FREE ENERGY PREDICTED BY IDOCK:    0.16 KCAL/MOL
REMARK 927      BINDING AFFINITY PREDICTED BY RF-SCORE:    0.00 PKD
ROOT
HETATM    1  C   UNL     1      -6.948  16.782  66.757  1.00  0.00    -0.269 C  
HETATM    2  C   UNL     1      -8.159  17.662  66.940  1.00  0.00    -0.224 C  
HETATM    3  C   UNL     1      -9.345  17.317  67.498  1.00  0.00    -0.236 C  
HETATM    4  S   UNL     1     -10.570  18.530  67.790  1.00  0.00    -0.337 SA 
HETATM    5  O   UNL     1      -7.838  18.937  66.521  1.00  0.00    -0.247 OA 
HETATM    6  C   UNL     1      -8.818  19.823  66.002  1.00  0.00    -0.258 C  
HETATM    7  C   UNL     1     -10.274  19.631  66.399  1.00  0.00    -0.488 C  
ENDROOT
BRANCH   3   8
HETATM    8  C   UNL     1      -9.635  15.922  68.052  1.00  0.00    -0.211 C  
HETATM    9  N   UNL     1     -10.090  15.002  67.121  1.00  0.00    -0.238 N  
HETATM   10  H   UNL     1     -10.132  15.315  66.151  1.00  0.00     0.000 HD 
HETATM   11  O   UNL     1      -9.439  15.648  69.231  1.00  0.00    -0.230 OA 
BRANCH   9  12
HETATM   12  C   UNL     1     -10.504  13.671  67.378  1.00  0.00    -0.251 A  
HETATM   13  C   UNL     1     -10.305  12.621  66.479  1.00  0.00    -0.256 A  
HETATM   14  C   UNL     1     -10.757  11.329  66.777  1.00  0.00    -0.323 A  
HETATM   15  C   UNL     1     -11.412  11.079  67.978  1.00  0.00    -0.365 A  
HETATM   16  C   UNL     1     -11.595  12.113  68.890  1.00  0.00    -0.377 A  
HETATM   17  C   UNL     1     -11.128  13.402  68.600  1.00  0.00    -0.295 A  
ENDBRANCH   9  12
ENDBRANCH   3   8
TORSDOF 2
ENDMDL
MODEL       96
REMARK 921   NORMALIZED FREE ENERGY PREDICTED BY IDOCK:   -3.78 KCAL/MOL
REMARK 922        TOTAL FREE ENERGY PREDICTED BY IDOCK:   -4.44 KCAL/MOL
REMARK 923 INTER-LIGAND FREE ENERGY PREDICTED BY IDOCK:   -4.64 KCAL/MOL
REMARK 924 INTRA-LIGAND FREE ENERGY PREDICTED BY IDOCK:    0.20 KCAL/MOL
REMARK 927      BINDING AFFINITY PREDICTED BY RF-SCORE:    0.00 PKD
ROOT
HETATM    1  C   UNL     1      -8.420  12.206  67.039  1.00  0.00    -0.183 C  
HETATM    2  C   UNL     1      -9.744  12.760  66.572  1.00  0.00    -0.255 C  
HETATM    3  C   UNL     1     -10.978  12.273  66.846  1.00  0.00    -0.267 C  
HETATM    4  S   UNL     1     -12.405  13.162  66.368  1.00  0.00    -0.096 SA 
HETATM    5  O   UNL     1      -9.505  13.927  65.875  1.00  0.00    -0.189 OA 
HETATM    6  C   UNL     1     -10.370  14.371  64.840  1.00  0.00    -0.389 C  
HETATM    7  C   UNL     1     -11.821  13.916  64.843  1.00  0.00    -0.387 C  
ENDROOT
BRANCH   3   8
HETATM    8  C   UNL     1     -11.216  11.036  67.713  1.00  0.00    -0.308 C  
HETATM    9  N   UNL     1     -10.408   9.949  67.421  1.00  0.00    -0.229 N  
HETATM   10  H   UNL     1      -9.694  10.088  66.706  1.00  0.00     0.000 HD 
HETATM   11  O   UNL     1     -12.042  11.038  68.619  1.00  0.00    -0.551 OA 
BRANCH   9  12
HETATM   12  C   UNL     1     -10.471   8.663  68.014  1.00  0.00    -0.197 A  
HETATM   13  C   UNL     1     -10.275   8.439  69.379  1.00  0.00    -0.208 A  
HETATM   14  C   UNL     1     -10.326   7.143  69.906  1.00  0.00    -0.224 A  
HETATM   15  C   UNL     1     -10.573   6.060  69.069  1.00  0.00    -0.357 A  
HETATM   16  C   UNL     1     -10.791   6.274  67.712  1.00  0.00    -0.424 A  
HETATM   17  C   UNL     1     -10.758   7.572  67.187  1.00  0.00    -0.379 A  
ENDBRANCH   9  12
ENDBRANCH   3   8
TORSDOF 2
ENDMDL
MODEL       97
REMARK 921   NORMALIZED FREE ENERGY PREDICTED BY IDOCK:   -3.78 KCAL/MOL
REMARK 922        TOTAL FREE ENERGY PREDICTED BY IDOCK:   -4.44 KCAL/MOL
REMARK 923 INTER-LIGAND FREE ENERGY PREDICTED BY IDOCK:   -4.15 KCAL/MOL
REMARK 924 INTRA-LIGAND FREE ENERGY PREDICTED BY IDOCK:   -0.29 KCAL/MOL
REMARK 927      BINDING AFFINITY PREDICTED BY RF-SCORE:    0.00 PKD
ROOT
HETATM    1  C   UNL     1      -8.285   8.656  65.497  1.00  0.00    -0.135 C  
HETATM    2  C   UNL     1      -9.121   9.880  65.215  1.00  0.00    -0.211 C  
HETATM    3  C   UNL     1      -9.800  10.632  66.114  1.00  0.00    -0.217 C  
HETATM    4  S   UNL     1     -10.564  12.125  65.620  1.00  0.00    -0.272 SA 
HETATM    5  O   UNL     1      -9.014  10.180  63.872  1.00  0.00    -0.201 OA 
HETATM    6  C   UNL     1     -10.057  10.836  63.167  1.00  0.00    -0.210 C  
HETATM    7  C   UNL     1     -11.039  11.704  63.937  1.00  0.00    -0.401 C  
ENDROOT
BRANCH   3   8
HETATM    8  C   UNL     1      -9.813  10.335  67.614  1.00  0.00    -0.171 C  
HETATM    9  N   UNL     1     -10.944   9.682  68.075  1.00  0.00    -0.475 N  
HETATM   10  H   UNL     1     -11.631   9.406  67.373  1.00  0.00     0.000 HD 
HETATM   11  O   UNL     1      -8.865  10.630  68.333  1.00  0.00    -0.132 OA 
BRANCH   9  12
HETATM   12  C   UNL     1     -11.245   9.357  69.421  1.00  0.00     0.008 A  
HETATM   13  C   UNL     1     -12.082  10.134  70.227  1.00  0.00    -0.282 A  
HETATM   14  C   UNL     1     -12.325   9.777  71.559  1.00  0.00    -0.495 A  
HETATM   15  C   UNL     1     -11.731   8.639  72.095  1.00  0.00    -0.442 A  
HETATM   16  C   UNL     1     -10.913   7.847  71.296  1.00  0.00    -0.266 A  
HETATM   17  C   UNL     1     -10.684   8.195  69.958  1.00  0.00    -0.243 A  
ENDBRANCH   9  12
ENDBRANCH   3   8
TORSDOF 2
ENDMDL
MODEL       98
REMARK 921   NORMALIZED FREE ENERGY PREDICTED BY IDOCK:   -3.78 KCAL/MOL
REMARK 922        TOTAL FREE ENERGY PREDICTED BY IDOCK:   -4.44 KCAL/MOL
REMARK 923 INTER-LIGAND FREE ENERGY PREDICTED BY IDOCK:   -4.67 KCAL/MOL
REMARK 924 INTRA-LIGAND FREE ENERGY PREDICTED BY IDOCK:    0.24 KCAL/MOL
REMARK 927      BINDING AFFINITY PREDICTED BY RF-SCORE:    0.00 PKD
ROOT
HETATM    1  C   UNL     1     -12.899  12.027  63.835  1.00  0.00    -0.400 C  
HETATM    2  C   UNL     1     -11.974  13.016  64.503  1.00  0.00    -0.394 C  
HETATM    3  C   UNL     1     -11.179  12.797  65.577  1.00  0.00    -0.294 C  
HETATM    4  S   UNL     1     -10.037  14.015  66.095  1.00  0.00    -0.318 SA 
HETATM    5  O   UNL     1     -11.995  14.189  63.776  1.00  0.00    -0.318 OA 
HETATM    6  C   UNL     1     -11.755  15.450  64.383  1.00  0.00    -0.258 C  
HETATM    7  C   UNL     1     -10.942  15.510  65.667  1.00  0.00    -0.303 C  
ENDROOT
BRANCH   3   8
HETATM    8  C   UNL     1     -11.098  11.451  66.298  1.00  0.00    -0.221 C  
HETATM    9  N   UNL     1     -10.132  10.582  65.816  1.00  0.00    -0.260 N  
HETATM   10  H   UNL     1      -9.528  10.936  65.074  1.00  0.00     0.000 HD 
HETATM   11  O   UNL     1     -11.820  11.192  67.255  1.00  0.00    -0.525 OA 
BRANCH   9  12
HETATM   12  C   UNL     1      -9.897   9.253  66.248  1.00  0.00    -0.291 A  
HETATM   13  C   UNL     1     -10.523   8.688  67.361  1.00  0.00    -0.351 A  
HETATM   14  C   UNL     1     -10.233   7.376  67.755  1.00  0.00    -0.250 A  
HETATM   15  C   UNL     1      -9.312   6.620  67.038  1.00  0.00    -0.160 A  
HETATM   16  C   UNL     1      -8.699   7.165  65.915  1.00  0.00    -0.146 A  
HETATM   17  C   UNL     1      -9.002   8.472  65.510  1.00  0.00    -0.182 A  
ENDBRANCH   9  12
ENDBRANCH   3   8
TORSDOF 2
ENDMDL
MODEL       99
REMARK 921   NORMALIZED FREE ENERGY PREDICTED BY IDOCK:   -3.76 KCAL/MOL
REMARK 922        TOTAL FREE ENERGY PREDICTED BY IDOCK:   -4.42 KCAL/MOL
REMARK 923 INTER-LIGAND FREE ENERGY PREDICTED BY IDOCK:   -4.41 KCAL/MOL
REMARK 924 INTRA-LIGAND FREE ENERGY PREDICTED BY IDOCK:   -0.01 KCAL/MOL
REMARK 927      BINDING AFFINITY PREDICTED BY RF-SCORE:    0.00 PKD
ROOT
HETATM    1  C   UNL     1     -10.627   7.452  70.773  1.00  0.00    -0.234 C  
HETATM    2  C   UNL     1     -10.330   7.203  69.314  1.00  0.00    -0.203 C  
HETATM    3  C   UNL     1     -10.129   8.132  68.350  1.00  0.00    -0.200 C  
HETATM    4  S   UNL     1      -9.613   7.648  66.750  1.00  0.00    -0.218 SA 
HETATM    5  O   UNL     1     -10.204   5.842  69.122  1.00  0.00    -0.183 OA 
HETATM    6  C   UNL     1     -10.514   5.229  67.880  1.00  0.00    -0.085 C  
HETATM    7  C   UNL     1     -10.446   6.060  66.608  1.00  0.00    -0.228 C  
ENDROOT
BRANCH   3   8
HETATM    8  C   UNL     1     -10.170   9.637  68.615  1.00  0.00    -0.189 C  
HETATM    9  N   UNL     1     -11.260  10.300  68.075  1.00  0.00    -0.463 N  
HETATM   10  H   UNL     1     -11.960   9.724  67.608  1.00  0.00     0.000 HD 
HETATM   11  O   UNL     1      -9.309  10.192  69.290  1.00  0.00    -0.192 OA 
BRANCH   9  12
HETATM   12  C   UNL     1     -11.502  11.696  68.106  1.00  0.00    -0.313 A  
HETATM   13  C   UNL     1     -11.726  12.460  66.958  1.00  0.00    -0.423 A  
HETATM   14  C   UNL     1     -11.936  13.842  67.047  1.00  0.00    -0.452 A  
HETATM   15  C   UNL     1     -11.923  14.469  68.288  1.00  0.00    -0.303 A  
HETATM   16  C   UNL     1     -11.723  13.715  69.439  1.00  0.00    -0.379 A  
HETATM   17  C   UNL     1     -11.530  12.330  69.352  1.00  0.00    -0.341 A  
ENDBRANCH   9  12
ENDBRANCH   3   8
TORSDOF 2
ENDMDL
MODEL      100
REMARK 921   NORMALIZED FREE ENERGY PREDICTED BY IDOCK:   -3.76 KCAL/MOL
REMARK 922        TOTAL FREE ENERGY PREDICTED BY IDOCK:   -4.42 KCAL/MOL
REMARK 923 INTER-LIGAND FREE ENERGY PREDICTED BY IDOCK:   -4.45 KCAL/MOL
REMARK 924 INTRA-LIGAND FREE ENERGY PREDICTED BY IDOCK:    0.03 KCAL/MOL
REMARK 927      BINDING AFFINITY PREDICTED BY RF-SCORE:    0.00 PKD
ROOT
HETATM    1  C   UNL     1     -12.220  14.188  68.950  1.00  0.00    -0.257 C  
HETATM    2  C   UNL     1     -11.805  13.676  67.593  1.00  0.00    -0.369 C  
HETATM    3  C   UNL     1     -11.349  12.436  67.291  1.00  0.00    -0.323 C  
HETATM    4  S   UNL     1     -11.092  11.971  65.625  1.00  0.00    -0.310 SA 
HETATM    5  O   UNL     1     -12.049  14.663  66.661  1.00  0.00    -0.347 OA 
HETATM    6  C   UNL     1     -11.282  14.778  65.472  1.00  0.00    -0.346 C  
HETATM    7  C   UNL     1     -10.578  13.546  64.925  1.00  0.00    -0.397 C  
ENDROOT
BRANCH   3   8
HETATM    8  C   UNL     1     -11.189  11.326  68.330  1.00  0.00    -0.267 C  
HETATM    9  N   UNL     1      -9.951  11.277  68.952  1.00  0.00    -0.321 N  
HETATM   10  H   UNL     1      -9.288  12.013  68.709  1.00  0.00     0.000 HD 
HETATM   11  O   UNL     1     -12.112  10.568  68.605  1.00  0.00    -0.324 OA 
BRANCH   9  12
HETATM   12  C   UNL     1      -9.513  10.309  69.890  1.00  0.00    -0.015 A  
HETATM   13  C   UNL     1     -10.340   9.775  70.881  1.00  0.00    -0.245 A  
HETATM   14  C   UNL     1      -9.845   8.838  71.797  1.00  0.00    -0.391 A  
HETATM   15  C   UNL     1      -8.517   8.430  71.728  1.00  0.00    -0.220 A  
HETATM   16  C   UNL     1      -7.691   8.940  70.732  1.00  0.00    -0.126 A  
HETATM   17  C   UNL     1      -8.191   9.864  69.804  1.00  0.00    -0.191 A  
ENDBRANCH   9  12
ENDBRANCH   3   8
TORSDOF 2
ENDMDL
MODEL      101
REMARK 921   NORMALIZED FREE ENERGY PREDICTED BY IDOCK:   -3.71 KCAL/MOL
REMARK 922        TOTAL FREE ENERGY PREDICTED BY IDOCK:   -4.37 KCAL/MOL
REMARK 923 INTER-LIGAND FREE ENERGY PREDICTED BY IDOCK:   -4.18 KCAL/MOL
REMARK 924 INTRA-LIGAND FREE ENERGY PREDICTED BY IDOCK:   -0.18 KCAL/MOL
REMARK 927      BINDING AFFINITY PREDICTED BY RF-SCORE:    0.00 PKD
ROOT
HETATM    1  C   UNL     1      -7.537   9.084  67.273  1.00  0.00    -0.088 C  
HETATM    2  C   UNL     1      -8.295   9.853  66.220  1.00  0.00    -0.125 C  
HETATM    3  C   UNL     1      -9.228  10.815  66.420  1.00  0.00    -0.170 C  
HETATM    4  S   UNL     1      -9.864  11.725  65.070  1.00  0.00    -0.197 SA 
HETATM    5  O   UNL     1      -7.817   9.480  64.980  1.00  0.00    -0.110 OA 
HETATM    6  C   UNL     1      -8.633   9.521  63.819  1.00  0.00    -0.211 C  
HETATM    7  C   UNL     1      -9.822  10.468  63.784  1.00  0.00    -0.300 C  
ENDROOT
BRANCH   3   8
HETATM    8  C   UNL     1      -9.661  11.284  67.810  1.00  0.00    -0.173 C  
HETATM    9  N   UNL     1     -10.968  10.975  68.154  1.00  0.00    -0.226 N  
HETATM   10  H   UNL     1     -11.497  10.417  67.484  1.00  0.00     0.000 HD 
HETATM   11  O   UNL     1      -8.883  11.858  68.564  1.00  0.00    -0.169 OA 
BRANCH   9  12
HETATM   12  C   UNL     1     -11.643  11.355  69.340  1.00  0.00    -0.323 A  
HETATM   13  C   UNL     1     -11.951  12.681  69.655  1.00  0.00    -0.352 A  
HETATM   14  C   UNL     1     -12.599  12.999  70.855  1.00  0.00    -0.364 A  
HETATM   15  C   UNL     1     -12.944  11.992  71.749  1.00  0.00    -0.445 A  
HETATM   16  C   UNL     1     -12.662  10.666  71.435  1.00  0.00    -0.545 A  
HETATM   17  C   UNL     1     -12.029  10.346  70.227  1.00  0.00    -0.387 A  
ENDBRANCH   9  12
ENDBRANCH   3   8
TORSDOF 2
ENDMDL
MODEL      102
REMARK 921   NORMALIZED FREE ENERGY PREDICTED BY IDOCK:   -3.70 KCAL/MOL
REMARK 922        TOTAL FREE ENERGY PREDICTED BY IDOCK:   -4.35 KCAL/MOL
REMARK 923 INTER-LIGAND FREE ENERGY PREDICTED BY IDOCK:   -4.45 KCAL/MOL
REMARK 924 INTRA-LIGAND FREE ENERGY PREDICTED BY IDOCK:    0.10 KCAL/MOL
REMARK 927      BINDING AFFINITY PREDICTED BY RF-SCORE:    0.00 PKD
ROOT
HETATM    1  C   UNL     1     -10.816   7.177  67.187  1.00  0.00    -0.403 C  
HETATM    2  C   UNL     1      -9.573   7.284  66.338  1.00  0.00    -0.104 C  
HETATM    3  C   UNL     1      -9.062   8.403  65.771  1.00  0.00    -0.139 C  
HETATM    4  S   UNL     1      -7.507   8.359  64.973  1.00  0.00    -0.094 SA 
HETATM    5  O   UNL     1      -8.966   6.045  66.298  1.00  0.00    -0.142 OA 
HETATM    6  C   UNL     1      -8.180   5.632  65.190  1.00  0.00    -0.136 C  
HETATM    7  C   UNL     1      -7.531   6.688  64.309  1.00  0.00    -0.096 C  
ENDROOT
BRANCH   3   8
HETATM    8  C   UNL     1      -9.701   9.784  65.922  1.00  0.00    -0.266 C  
HETATM    9  N   UNL     1     -10.093  10.384  64.736  1.00  0.00    -0.347 N  
HETATM   10  H   UNL     1      -9.979   9.833  63.886  1.00  0.00     0.000 HD 
HETATM   11  O   UNL     1      -9.876  10.291  67.025  1.00  0.00    -0.179 OA 
BRANCH   9  12
HETATM   12  C   UNL     1     -10.637  11.684  64.584  1.00  0.00    -0.312 A  
HETATM   13  C   UNL     1     -10.186  12.792  65.306  1.00  0.00    -0.296 A  
HETATM   14  C   UNL     1     -10.777  14.049  65.131  1.00  0.00    -0.393 A  
HETATM   15  C   UNL     1     -11.826  14.206  64.232  1.00  0.00    -0.420 A  
HETATM   16  C   UNL     1     -12.269  13.114  63.492  1.00  0.00    -0.552 A  
HETATM   17  C   UNL     1     -11.666  11.860  63.654  1.00  0.00    -0.572 A  
ENDBRANCH   9  12
ENDBRANCH   3   8
TORSDOF 2
ENDMDL
MODEL      103
REMARK 921   NORMALIZED FREE ENERGY PREDICTED BY IDOCK:   -3.69 KCAL/MOL
REMARK 922        TOTAL FREE ENERGY PREDICTED BY IDOCK:   -4.34 KCAL/MOL
REMARK 923 INTER-LIGAND FREE ENERGY PREDICTED BY IDOCK:   -4.56 KCAL/MOL
REMARK 924 INTRA-LIGAND FREE ENERGY PREDICTED BY IDOCK:    0.22 KCAL/MOL
REMARK 927      BINDING AFFINITY PREDICTED BY RF-SCORE:    0.00 PKD
ROOT
HETATM    1  C   UNL     1     -12.162  12.634  64.874  1.00  0.00    -0.531 C  
HETATM    2  C   UNL     1     -11.211  13.755  65.214  1.00  0.00    -0.307 C  
HETATM    3  C   UNL     1     -10.205  13.729  66.120  1.00  0.00    -0.301 C  
HETATM    4  S   UNL     1      -9.090  15.070  66.243  1.00  0.00    -0.191 SA 
HETATM    5  O   UNL     1     -11.473  14.818  64.372  1.00  0.00    -0.336 OA 
HETATM    6  C   UNL     1     -11.226  16.160  64.762  1.00  0.00    -0.304 C  
HETATM    7  C   UNL     1     -10.184  16.439  65.835  1.00  0.00    -0.359 C  
ENDROOT
BRANCH   3   8
HETATM    8  C   UNL     1      -9.871  12.499  66.964  1.00  0.00    -0.217 C  
HETATM    9  N   UNL     1     -10.962  11.742  67.360  1.00  0.00    -0.246 N  
HETATM   10  H   UNL     1     -11.873  12.034  67.006  1.00  0.00     0.000 HD 
HETATM   11  O   UNL     1      -8.711  12.201  67.231  1.00  0.00    -0.167 OA 
BRANCH   9  12
HETATM   12  C   UNL     1     -10.942  10.604  68.204  1.00  0.00    -0.269 A  
HETATM   13  C   UNL     1     -10.639   9.319  67.750  1.00  0.00    -0.307 A  
HETATM   14  C   UNL     1     -10.658   8.227  68.627  1.00  0.00    -0.144 A  
HETATM   15  C   UNL     1     -10.982   8.415  69.966  1.00  0.00    -0.194 A  
HETATM   16  C   UNL     1     -11.264   9.694  70.434  1.00  0.00    -0.342 A  
HETATM   17  C   UNL     1     -11.228  10.789  69.560  1.00  0.00    -0.342 A  
ENDBRANCH   9  12
ENDBRANCH   3   8
TORSDOF 2
ENDMDL
MODEL      104
REMARK 921   NORMALIZED FREE ENERGY PREDICTED BY IDOCK:   -3.68 KCAL/MOL
REMARK 922        TOTAL FREE ENERGY PREDICTED BY IDOCK:   -4.33 KCAL/MOL
REMARK 923 INTER-LIGAND FREE ENERGY PREDICTED BY IDOCK:   -4.05 KCAL/MOL
REMARK 924 INTRA-LIGAND FREE ENERGY PREDICTED BY IDOCK:   -0.27 KCAL/MOL
REMARK 927      BINDING AFFINITY PREDICTED BY RF-SCORE:    0.00 PKD
ROOT
HETATM    1  C   UNL     1     -11.719  10.922  70.447  1.00  0.00    -0.444 C  
HETATM    2  C   UNL     1     -11.121   9.587  70.818  1.00  0.00    -0.323 C  
HETATM    3  C   UNL     1     -10.192   8.885  70.126  1.00  0.00    -0.196 C  
HETATM    4  S   UNL     1      -9.484   7.440  70.811  1.00  0.00    -0.166 SA 
HETATM    5  O   UNL     1     -11.612   9.219  72.054  1.00  0.00    -0.356 OA 
HETATM    6  C   UNL     1     -11.753   7.857  72.429  1.00  0.00    -0.367 C  
HETATM    7  C   UNL     1     -10.881   6.810  71.753  1.00  0.00    -0.229 C  
ENDROOT
BRANCH   3   8
HETATM    8  C   UNL     1      -9.586   9.370  68.809  1.00  0.00    -0.154 C  
HETATM    9  N   UNL     1     -10.099   8.772  67.669  1.00  0.00    -0.201 N  
HETATM   10  H   UNL     1     -10.867   8.114  67.804  1.00  0.00     0.000 HD 
HETATM   11  O   UNL     1      -8.734  10.252  68.782  1.00  0.00    -0.128 OA 
BRANCH   9  12
HETATM   12  C   UNL     1      -9.665   8.979  66.335  1.00  0.00    -0.268 A  
HETATM   13  C   UNL     1      -8.815   8.099  65.661  1.00  0.00    -0.160 A  
HETATM   14  C   UNL     1      -8.400   8.368  64.351  1.00  0.00    -0.106 A  
HETATM   15  C   UNL     1      -8.834   9.521  63.706  1.00  0.00    -0.238 A  
HETATM   16  C   UNL     1      -9.698  10.393  64.360  1.00  0.00    -0.396 A  
HETATM   17  C   UNL     1     -10.127  10.115  65.665  1.00  0.00    -0.324 A  
ENDBRANCH   9  12
ENDBRANCH   3   8
TORSDOF 2
ENDMDL
MODEL      105
REMARK 921   NORMALIZED FREE ENERGY PREDICTED BY IDOCK:   -3.68 KCAL/MOL
REMARK 922        TOTAL FREE ENERGY PREDICTED BY IDOCK:   -4.33 KCAL/MOL
REMARK 923 INTER-LIGAND FREE ENERGY PREDICTED BY IDOCK:   -4.04 KCAL/MOL
REMARK 924 INTRA-LIGAND FREE ENERGY PREDICTED BY IDOCK:   -0.28 KCAL/MOL
REMARK 927      BINDING AFFINITY PREDICTED BY RF-SCORE:    0.00 PKD
ROOT
HETATM    1  C   UNL     1      -9.180   8.867  66.601  1.00  0.00    -0.215 C  
HETATM    2  C   UNL     1      -8.766   9.138  65.176  1.00  0.00    -0.195 C  
HETATM    3  C   UNL     1      -9.120  10.196  64.408  1.00  0.00    -0.245 C  
HETATM    4  S   UNL     1      -8.390  10.433  62.837  1.00  0.00    -0.182 SA 
HETATM    5  O   UNL     1      -7.872   8.161  64.789  1.00  0.00    -0.120 OA 
HETATM    6  C   UNL     1      -7.745   7.755  63.435  1.00  0.00    -0.135 C  
HETATM    7  C   UNL     1      -8.147   8.723  62.332  1.00  0.00    -0.160 C  
ENDROOT
BRANCH   3   8
HETATM    8  C   UNL     1     -10.030  11.322  64.901  1.00  0.00    -0.274 C  
HETATM    9  N   UNL     1      -9.405  12.289  65.672  1.00  0.00    -0.436 N  
HETATM   10  H   UNL     1      -8.396  12.198  65.789  1.00  0.00     0.000 HD 
HETATM   11  O   UNL     1     -11.217  11.366  64.596  1.00  0.00    -0.258 OA 
BRANCH   9  12
HETATM   12  C   UNL     1     -10.024  13.390  66.314  1.00  0.00    -0.296 A  
HETATM   13  C   UNL     1     -10.843  13.260  67.438  1.00  0.00    -0.279 A  
HETATM   14  C   UNL     1     -11.447  14.383  68.017  1.00  0.00    -0.336 A  
HETATM   15  C   UNL     1     -11.236  15.645  67.474  1.00  0.00    -0.245 A  
HETATM   16  C   UNL     1     -10.405  15.789  66.368  1.00  0.00    -0.306 A  
HETATM   17  C   UNL     1      -9.786  14.668  65.799  1.00  0.00    -0.359 A  
ENDBRANCH   9  12
ENDBRANCH   3   8
TORSDOF 2
ENDMDL
MODEL      106
REMARK 921   NORMALIZED FREE ENERGY PREDICTED BY IDOCK:   -3.66 KCAL/MOL
REMARK 922        TOTAL FREE ENERGY PREDICTED BY IDOCK:   -4.31 KCAL/MOL
REMARK 923 INTER-LIGAND FREE ENERGY PREDICTED BY IDOCK:   -3.98 KCAL/MOL
REMARK 924 INTRA-LIGAND FREE ENERGY PREDICTED BY IDOCK:   -0.33 KCAL/MOL
REMARK 927      BINDING AFFINITY PREDICTED BY RF-SCORE:    0.00 PKD
ROOT
HETATM    1  C   UNL     1      -8.115   8.812  63.069  1.00  0.00    -0.175 C  
HETATM    2  C   UNL     1      -8.359   8.199  64.426  1.00  0.00    -0.042 C  
HETATM    3  C   UNL     1      -8.860   8.814  65.524  1.00  0.00    -0.188 C  
HETATM    4  S   UNL     1      -9.245   7.890  66.957  1.00  0.00    -0.156 SA 
HETATM    5  O   UNL     1      -8.070   6.851  64.353  1.00  0.00    -0.120 OA 
HETATM    6  C   UNL     1      -7.622   6.120  65.484  1.00  0.00    -0.086 C  
HETATM    7  C   UNL     1      -7.972   6.621  66.876  1.00  0.00    -0.109 C  
ENDROOT
BRANCH   3   8
HETATM    8  C   UNL     1      -9.272  10.286  65.544  1.00  0.00    -0.190 C  
HETATM    9  N   UNL     1     -10.620  10.523  65.328  1.00  0.00    -0.156 N  
HETATM   10  H   UNL     1     -11.220   9.703  65.238  1.00  0.00     0.000 HD 
HETATM   11  O   UNL     1      -8.459  11.176  65.772  1.00  0.00    -0.158 OA 
BRANCH   9  12
HETATM   12  C   UNL     1     -11.252  11.787  65.221  1.00  0.00    -0.254 A  
HETATM   13  C   UNL     1     -11.715  12.508  66.324  1.00  0.00    -0.462 A  
HETATM   14  C   UNL     1     -12.353  13.743  66.155  1.00  0.00    -0.496 A  
HETATM   15  C   UNL     1     -12.533  14.265  64.879  1.00  0.00    -0.403 A  
HETATM   16  C   UNL     1     -12.056  13.566  63.775  1.00  0.00    -0.482 A  
HETATM   17  C   UNL     1     -11.402  12.339  63.945  1.00  0.00    -0.501 A  
ENDBRANCH   9  12
ENDBRANCH   3   8
TORSDOF 2
ENDMDL
MODEL      107
REMARK 921   NORMALIZED FREE ENERGY PREDICTED BY IDOCK:   -3.60 KCAL/MOL
REMARK 922        TOTAL FREE ENERGY PREDICTED BY IDOCK:   -4.24 KCAL/MOL
REMARK 923 INTER-LIGAND FREE ENERGY PREDICTED BY IDOCK:   -4.16 KCAL/MOL
REMARK 924 INTRA-LIGAND FREE ENERGY PREDICTED BY IDOCK:   -0.08 KCAL/MOL
REMARK 927      BINDING AFFINITY PREDICTED BY RF-SCORE:    0.00 PKD
ROOT
HETATM    1  C   UNL     1      -7.388   7.270  69.098  1.00  0.00    -0.087 C  
HETATM    2  C   UNL     1      -8.648   6.711  69.710  1.00  0.00    -0.136 C  
HETATM    3  C   UNL     1      -9.735   7.405  70.124  1.00  0.00    -0.175 C  
HETATM    4  S   UNL     1     -11.178   6.563  70.640  1.00  0.00    -0.352 SA 
HETATM    5  O   UNL     1      -8.561   5.333  69.704  1.00  0.00    -0.096 OA 
HETATM    6  C   UNL     1      -9.221   4.537  70.675  1.00  0.00    -0.135 C  
HETATM    7  C   UNL     1     -10.450   5.094  71.378  1.00  0.00    -0.179 C  
ENDROOT
BRANCH   3   8
HETATM    8  C   UNL     1      -9.846   8.926  70.021  1.00  0.00    -0.174 C  
HETATM    9  N   UNL     1     -11.027   9.394  69.468  1.00  0.00    -0.358 N  
HETATM   10  H   UNL     1     -11.733   8.694  69.238  1.00  0.00     0.000 HD 
HETATM   11  O   UNL     1      -8.958   9.663  70.436  1.00  0.00    -0.244 OA 
BRANCH   9  12
HETATM   12  C   UNL     1     -11.355  10.744  69.188  1.00  0.00    -0.282 A  
HETATM   13  C   UNL     1     -11.687  11.673  70.177  1.00  0.00    -0.381 A  
HETATM   14  C   UNL     1     -12.025  12.988  69.839  1.00  0.00    -0.381 A  
HETATM   15  C   UNL     1     -12.036  13.385  68.506  1.00  0.00    -0.363 A  
HETATM   16  C   UNL     1     -11.686  12.474  67.514  1.00  0.00    -0.439 A  
HETATM   17  C   UNL     1     -11.330  11.162  67.854  1.00  0.00    -0.378 A  
ENDBRANCH   9  12
ENDBRANCH   3   8
TORSDOF 2
ENDMDL
MODEL      108
REMARK 921   NORMALIZED FREE ENERGY PREDICTED BY IDOCK:   -3.60 KCAL/MOL
REMARK 922        TOTAL FREE ENERGY PREDICTED BY IDOCK:   -4.24 KCAL/MOL
REMARK 923 INTER-LIGAND FREE ENERGY PREDICTED BY IDOCK:   -4.07 KCAL/MOL
REMARK 924 INTRA-LIGAND FREE ENERGY PREDICTED BY IDOCK:   -0.16 KCAL/MOL
REMARK 927      BINDING AFFINITY PREDICTED BY RF-SCORE:    0.00 PKD
ROOT
HETATM    1  C   UNL     1      -8.996  14.615  67.692  1.00  0.00    -0.187 C  
HETATM    2  C   UNL     1     -10.198  14.475  66.791  1.00  0.00    -0.266 C  
HETATM    3  C   UNL     1     -10.930  13.357  66.571  1.00  0.00    -0.290 C  
HETATM    4  S   UNL     1     -12.403  13.434  65.632  1.00  0.00    -0.467 SA 
HETATM    5  O   UNL     1     -10.502  15.718  66.274  1.00  0.00    -0.291 OA 
HETATM    6  C   UNL     1     -11.130  15.870  65.010  1.00  0.00    -0.360 C  
HETATM    7  C   UNL     1     -11.971  14.729  64.460  1.00  0.00    -0.440 C  
ENDROOT
BRANCH   3   8
HETATM    8  C   UNL     1     -10.632  12.015  67.242  1.00  0.00    -0.222 C  
HETATM    9  N   UNL     1     -10.016  11.076  66.431  1.00  0.00    -0.214 N  
HETATM   10  H   UNL     1      -9.764  11.379  65.491  1.00  0.00     0.000 HD 
HETATM   11  O   UNL     1     -10.895  11.818  68.424  1.00  0.00    -0.201 OA 
BRANCH   9  12
HETATM   12  C   UNL     1      -9.700   9.738  66.775  1.00  0.00    -0.194 A  
HETATM   13  C   UNL     1     -10.652   8.816  67.217  1.00  0.00    -0.303 A  
HETATM   14  C   UNL     1     -10.277   7.512  67.566  1.00  0.00    -0.288 A  
HETATM   15  C   UNL     1      -8.946   7.122  67.475  1.00  0.00    -0.121 A  
HETATM   16  C   UNL     1      -7.993   8.025  67.015  1.00  0.00    -0.108 A  
HETATM   17  C   UNL     1      -8.371   9.324  66.650  1.00  0.00    -0.122 A  
ENDBRANCH   9  12
ENDBRANCH   3   8
TORSDOF 2
ENDMDL
MODEL      109
REMARK 921   NORMALIZED FREE ENERGY PREDICTED BY IDOCK:   -3.58 KCAL/MOL
REMARK 922        TOTAL FREE ENERGY PREDICTED BY IDOCK:   -4.21 KCAL/MOL
REMARK 923 INTER-LIGAND FREE ENERGY PREDICTED BY IDOCK:   -4.29 KCAL/MOL
REMARK 924 INTRA-LIGAND FREE ENERGY PREDICTED BY IDOCK:    0.07 KCAL/MOL
REMARK 927      BINDING AFFINITY PREDICTED BY RF-SCORE:    0.00 PKD
ROOT
HETATM    1  C   UNL     1      -9.261   9.105  65.500  1.00  0.00    -0.287 C  
HETATM    2  C   UNL     1      -8.349   9.926  66.378  1.00  0.00    -0.125 C  
HETATM    3  C   UNL     1      -8.648  10.481  67.577  1.00  0.00    -0.121 C  
HETATM    4  S   UNL     1      -7.399  11.243  68.534  1.00  0.00    -0.114 SA 
HETATM    5  O   UNL     1      -7.096   9.953  65.799  1.00  0.00    -0.098 OA 
HETATM    6  C   UNL     1      -6.207  11.042  65.989  1.00  0.00    -0.075 C  
HETATM    7  C   UNL     1      -6.353  11.908  67.231  1.00  0.00    -0.143 C  
ENDROOT
BRANCH   3   8
HETATM    8  C   UNL     1     -10.016  10.343  68.245  1.00  0.00    -0.151 C  
HETATM    9  N   UNL     1      -9.997  10.344  69.631  1.00  0.00    -0.372 N  
HETATM   10  H   UNL     1      -9.092  10.495  70.075  1.00  0.00     0.000 HD 
HETATM   11  O   UNL     1     -11.047  10.276  67.585  1.00  0.00    -0.306 OA 
BRANCH   9  12
HETATM   12  C   UNL     1     -11.106  10.156  70.493  1.00  0.00    -0.327 A  
HETATM   13  C   UNL     1     -11.411   8.931  71.092  1.00  0.00    -0.364 A  
HETATM   14  C   UNL     1     -12.535   8.798  71.917  1.00  0.00    -0.434 A  
HETATM   15  C   UNL     1     -13.363   9.892  72.147  1.00  0.00    -0.498 A  
HETATM   16  C   UNL     1     -13.056  11.121  71.574  1.00  0.00    -0.489 A  
HETATM   17  C   UNL     1     -11.922  11.258  70.762  1.00  0.00    -0.383 A  
ENDBRANCH   9  12
ENDBRANCH   3   8
TORSDOF 2
ENDMDL
MODEL      110
REMARK 921   NORMALIZED FREE ENERGY PREDICTED BY IDOCK:   -3.55 KCAL/MOL
REMARK 922        TOTAL FREE ENERGY PREDICTED BY IDOCK:   -4.19 KCAL/MOL
REMARK 923 INTER-LIGAND FREE ENERGY PREDICTED BY IDOCK:   -3.94 KCAL/MOL
REMARK 924 INTRA-LIGAND FREE ENERGY PREDICTED BY IDOCK:   -0.25 KCAL/MOL
REMARK 927      BINDING AFFINITY PREDICTED BY RF-SCORE:    0.00 PKD
ROOT
HETATM    1  C   UNL     1      -7.231   9.227  65.362  1.00  0.00    -0.090 C  
HETATM    2  C   UNL     1      -7.859   8.928  66.702  1.00  0.00    -0.100 C  
HETATM    3  C   UNL     1      -8.775   9.678  67.361  1.00  0.00    -0.128 C  
HETATM    4  S   UNL     1      -9.525   9.074  68.821  1.00  0.00    -0.149 SA 
HETATM    5  O   UNL     1      -7.413   7.694  67.126  1.00  0.00    -0.091 OA 
HETATM    6  C   UNL     1      -7.303   7.370  68.504  1.00  0.00    -0.100 C  
HETATM    7  C   UNL     1      -8.168   8.115  69.509  1.00  0.00    -0.121 C  
ENDROOT
BRANCH   3   8
HETATM    8  C   UNL     1      -9.332  10.992  66.815  1.00  0.00    -0.181 C  
HETATM    9  N   UNL     1     -10.534  10.885  66.135  1.00  0.00    -0.246 N  
HETATM   10  H   UNL     1     -10.965   9.960  66.112  1.00  0.00     0.000 HD 
HETATM   11  O   UNL     1      -8.759  12.060  67.006  1.00  0.00    -0.175 OA 
BRANCH   9  12
HETATM   12  C   UNL     1     -11.226  11.926  65.467  1.00  0.00    -0.299 A  
HETATM   13  C   UNL     1     -11.286  12.036  64.076  1.00  0.00    -0.478 A  
HETATM   14  C   UNL     1     -11.965  13.101  63.471  1.00  0.00    -0.580 A  
HETATM   15  C   UNL     1     -12.589  14.065  64.255  1.00  0.00    -0.171 A  
HETATM   16  C   UNL     1     -12.553  13.953  65.641  1.00  0.00    -0.553 A  
HETATM   17  C   UNL     1     -11.889  12.878  66.246  1.00  0.00    -0.477 A  
ENDBRANCH   9  12
ENDBRANCH   3   8
TORSDOF 2
ENDMDL
MODEL      111
REMARK 921   NORMALIZED FREE ENERGY PREDICTED BY IDOCK:   -3.53 KCAL/MOL
REMARK 922        TOTAL FREE ENERGY PREDICTED BY IDOCK:   -4.16 KCAL/MOL
REMARK 923 INTER-LIGAND FREE ENERGY PREDICTED BY IDOCK:   -4.20 KCAL/MOL
REMARK 924 INTRA-LIGAND FREE ENERGY PREDICTED BY IDOCK:    0.04 KCAL/MOL
REMARK 927      BINDING AFFINITY PREDICTED BY RF-SCORE:    0.00 PKD
ROOT
HETATM    1  C   UNL     1      -7.286  13.565  67.459  1.00  0.00    -0.165 C  
HETATM    2  C   UNL     1      -8.708  13.999  67.718  1.00  0.00    -0.185 C  
HETATM    3  C   UNL     1      -9.203  15.258  67.658  1.00  0.00    -0.187 C  
HETATM    4  S   UNL     1     -10.922  15.541  67.810  1.00  0.00    -0.317 SA 
HETATM    5  O   UNL     1      -9.471  12.873  67.948  1.00  0.00    -0.194 OA 
HETATM    6  C   UNL     1     -10.628  12.907  68.769  1.00  0.00    -0.190 C  
HETATM    7  C   UNL     1     -11.365  14.225  68.954  1.00  0.00    -0.274 C  
ENDROOT
BRANCH   3   8
HETATM    8  C   UNL     1      -8.352  16.476  67.296  1.00  0.00    -0.174 C  
HETATM    9  N   UNL     1      -8.152  17.381  68.326  1.00  0.00    -0.240 N  
HETATM   10  H   UNL     1      -8.533  17.127  69.238  1.00  0.00     0.000 HD 
HETATM   11  O   UNL     1      -7.862  16.607  66.180  1.00  0.00    -0.308 OA 
BRANCH   9  12
HETATM   12  C   UNL     1      -7.472  18.622  68.243  1.00  0.00    -0.281 A  
HETATM   13  C   UNL     1      -6.487  19.018  69.151  1.00  0.00    -0.315 A  
HETATM   14  C   UNL     1      -5.866  20.267  69.033  1.00  0.00    -0.344 A  
HETATM   15  C   UNL     1      -6.228  21.131  68.005  1.00  0.00    -0.347 A  
HETATM   16  C   UNL     1      -7.192  20.739  67.083  1.00  0.00    -0.394 A  
HETATM   17  C   UNL     1      -7.802  19.481  67.191  1.00  0.00    -0.287 A  
ENDBRANCH   9  12
ENDBRANCH   3   8
TORSDOF 2
ENDMDL
MODEL      112
REMARK 921   NORMALIZED FREE ENERGY PREDICTED BY IDOCK:   -3.49 KCAL/MOL
REMARK 922        TOTAL FREE ENERGY PREDICTED BY IDOCK:   -4.11 KCAL/MOL
REMARK 923 INTER-LIGAND FREE ENERGY PREDICTED BY IDOCK:   -3.97 KCAL/MOL
REMARK 924 INTRA-LIGAND FREE ENERGY PREDICTED BY IDOCK:   -0.14 KCAL/MOL
REMARK 927      BINDING AFFINITY PREDICTED BY RF-SCORE:    0.00 PKD
ROOT
HETATM    1  C   UNL     1      -9.552   8.554  66.336  1.00  0.00    -0.314 C  
HETATM    2  C   UNL     1      -8.321   8.699  65.475  1.00  0.00    -0.150 C  
HETATM    3  C   UNL     1      -8.108   9.616  64.501  1.00  0.00    -0.143 C  
HETATM    4  S   UNL     1      -6.541   9.743  63.735  1.00  0.00    -0.124 SA 
HETATM    5  O   UNL     1      -7.381   7.785  65.903  1.00  0.00    -0.071 OA 
HETATM    6  C   UNL     1      -6.412   7.239  65.021  1.00  0.00    -0.037 C  
HETATM    7  C   UNL     1      -6.019   8.022  63.778  1.00  0.00    -0.062 C  
ENDROOT
BRANCH   3   8
HETATM    8  C   UNL     1      -9.130  10.687  64.120  1.00  0.00    -0.222 C  
HETATM    9  N   UNL     1      -9.466  11.567  65.136  1.00  0.00    -0.337 N  
HETATM   10  H   UNL     1      -8.964  11.461  66.018  1.00  0.00     0.000 HD 
HETATM   11  O   UNL     1      -9.580  10.767  62.982  1.00  0.00    -0.294 OA 
BRANCH   9  12
HETATM   12  C   UNL     1     -10.437  12.598  65.077  1.00  0.00    -0.308 A  
HETATM   13  C   UNL     1     -10.114  13.942  64.873  1.00  0.00    -0.294 A  
HETATM   14  C   UNL     1     -11.114  14.921  64.847  1.00  0.00    -0.424 A  
HETATM   15  C   UNL     1     -12.446  14.563  65.026  1.00  0.00    -0.307 A  
HETATM   16  C   UNL     1     -12.780  13.225  65.209  1.00  0.00    -0.474 A  
HETATM   17  C   UNL     1     -11.782  12.242  65.217  1.00  0.00    -0.413 A  
ENDBRANCH   9  12
ENDBRANCH   3   8
TORSDOF 2
ENDMDL
MODEL      113
REMARK 921   NORMALIZED FREE ENERGY PREDICTED BY IDOCK:   -3.48 KCAL/MOL
REMARK 922        TOTAL FREE ENERGY PREDICTED BY IDOCK:   -4.10 KCAL/MOL
REMARK 923 INTER-LIGAND FREE ENERGY PREDICTED BY IDOCK:   -3.88 KCAL/MOL
REMARK 924 INTRA-LIGAND FREE ENERGY PREDICTED BY IDOCK:   -0.22 KCAL/MOL
REMARK 927      BINDING AFFINITY PREDICTED BY RF-SCORE:    0.00 PKD
ROOT
HETATM    1  C   UNL     1     -11.984  12.373  65.588  1.00  0.00    -0.449 C  
HETATM    2  C   UNL     1     -11.262  13.697  65.583  1.00  0.00    -0.297 C  
HETATM    3  C   UNL     1     -10.381  14.153  66.505  1.00  0.00    -0.284 C  
HETATM    4  S   UNL     1      -9.504  15.641  66.232  1.00  0.00    -0.346 SA 
HETATM    5  O   UNL     1     -11.577  14.360  64.414  1.00  0.00    -0.380 OA 
HETATM    6  C   UNL     1     -11.584  15.777  64.335  1.00  0.00    -0.240 C  
HETATM    7  C   UNL     1     -10.734  16.577  65.311  1.00  0.00    -0.254 C  
ENDROOT
BRANCH   3   8
HETATM    8  C   UNL     1      -9.970  13.349  67.739  1.00  0.00    -0.233 C  
HETATM    9  N   UNL     1      -9.163  12.251  67.484  1.00  0.00    -0.175 N  
HETATM   10  H   UNL     1      -8.869  12.115  66.517  1.00  0.00     0.000 HD 
HETATM   11  O   UNL     1     -10.310  13.688  68.867  1.00  0.00    -0.209 OA 
BRANCH   9  12
HETATM   12  C   UNL     1      -8.705  11.299  68.429  1.00  0.00    -0.159 A  
HETATM   13  C   UNL     1      -9.535  10.338  69.012  1.00  0.00    -0.206 A  
HETATM   14  C   UNL     1      -9.031   9.438  69.959  1.00  0.00    -0.234 A  
HETATM   15  C   UNL     1      -7.692   9.494  70.330  1.00  0.00    -0.177 A  
HETATM   16  C   UNL     1      -6.853  10.432  69.740  1.00  0.00    -0.130 A  
HETATM   17  C   UNL     1      -7.352  11.322  68.780  1.00  0.00    -0.109 A  
ENDBRANCH   9  12
ENDBRANCH   3   8
TORSDOF 2
ENDMDL
MODEL      114
REMARK 921   NORMALIZED FREE ENERGY PREDICTED BY IDOCK:   -3.47 KCAL/MOL
REMARK 922        TOTAL FREE ENERGY PREDICTED BY IDOCK:   -4.10 KCAL/MOL
REMARK 923 INTER-LIGAND FREE ENERGY PREDICTED BY IDOCK:   -4.40 KCAL/MOL
REMARK 924 INTRA-LIGAND FREE ENERGY PREDICTED BY IDOCK:    0.30 KCAL/MOL
REMARK 927      BINDING AFFINITY PREDICTED BY RF-SCORE:    0.00 PKD
ROOT
HETATM    1  C   UNL     1      -9.554  15.505  69.088  1.00  0.00    -0.253 C  
HETATM    2  C   UNL     1     -10.299  15.350  67.785  1.00  0.00    -0.253 C  
HETATM    3  C   UNL     1     -11.015  14.276  67.374  1.00  0.00    -0.295 C  
HETATM    4  S   UNL     1     -11.964  14.354  65.908  1.00  0.00    -0.327 SA 
HETATM    5  O   UNL     1     -10.214  16.540  67.091  1.00  0.00    -0.273 OA 
HETATM    6  C   UNL     1     -10.257  16.584  65.673  1.00  0.00    -0.292 C  
HETATM    7  C   UNL     1     -10.941  15.454  64.918  1.00  0.00    -0.437 C  
ENDROOT
BRANCH   3   8
HETATM    8  C   UNL     1     -11.180  13.009  68.214  1.00  0.00    -0.275 C  
HETATM    9  N   UNL     1     -10.539  11.886  67.717  1.00  0.00    -0.198 N  
HETATM   10  H   UNL     1      -9.970  12.017  66.880  1.00  0.00     0.000 HD 
HETATM   11  O   UNL     1     -11.809  13.016  69.266  1.00  0.00    -0.302 OA 
BRANCH   9  12
HETATM   12  C   UNL     1     -10.591  10.575  68.252  1.00  0.00    -0.206 A  
HETATM   13  C   UNL     1     -10.473   9.423  67.470  1.00  0.00    -0.343 A  
HETATM   14  C   UNL     1     -10.556   8.152  68.052  1.00  0.00    -0.188 A  
HETATM   15  C   UNL     1     -10.759   8.024  69.421  1.00  0.00    -0.167 A  
HETATM   16  C   UNL     1     -10.857   9.164  70.213  1.00  0.00    -0.282 A  
HETATM   17  C   UNL     1     -10.756  10.436  69.634  1.00  0.00    -0.304 A  
ENDBRANCH   9  12
ENDBRANCH   3   8
TORSDOF 2
ENDMDL
MODEL      115
REMARK 921   NORMALIZED FREE ENERGY PREDICTED BY IDOCK:   -3.45 KCAL/MOL
REMARK 922        TOTAL FREE ENERGY PREDICTED BY IDOCK:   -4.07 KCAL/MOL
REMARK 923 INTER-LIGAND FREE ENERGY PREDICTED BY IDOCK:   -4.27 KCAL/MOL
REMARK 924 INTRA-LIGAND FREE ENERGY PREDICTED BY IDOCK:    0.20 KCAL/MOL
REMARK 927      BINDING AFFINITY PREDICTED BY RF-SCORE:    0.00 PKD
ROOT
HETATM    1  C   UNL     1      -8.002  15.982  66.906  1.00  0.00    -0.283 C  
HETATM    2  C   UNL     1      -7.359  14.870  67.698  1.00  0.00    -0.187 C  
HETATM    3  C   UNL     1      -7.847  13.623  67.903  1.00  0.00    -0.159 C  
HETATM    4  S   UNL     1      -6.868  12.410  68.696  1.00  0.00    -0.092 SA 
HETATM    5  O   UNL     1      -6.117  15.299  68.121  1.00  0.00    -0.111 OA 
HETATM    6  C   UNL     1      -5.521  14.808  69.311  1.00  0.00    -0.089 C  
HETATM    7  C   UNL     1      -5.935  13.442  69.837  1.00  0.00    -0.133 C  
ENDROOT
BRANCH   3   8
HETATM    8  C   UNL     1      -9.180  13.141  67.331  1.00  0.00    -0.213 C  
HETATM    9  N   UNL     1      -9.301  13.243  65.955  1.00  0.00    -0.481 N  
HETATM   10  H   UNL     1      -8.479  13.569  65.446  1.00  0.00     0.000 HD 
HETATM   11  O   UNL     1     -10.052  12.667  68.051  1.00  0.00    -0.215 OA 
BRANCH   9  12
HETATM   12  C   UNL     1     -10.450  12.942  65.181  1.00  0.00    -0.309 A  
HETATM   13  C   UNL     1     -11.749  13.261  65.583  1.00  0.00    -0.389 A  
HETATM   14  C   UNL     1     -12.849  12.916  64.787  1.00  0.00    -0.359 A  
HETATM   15  C   UNL     1     -12.656  12.248  63.583  1.00  0.00    -0.599 A  
HETATM   16  C   UNL     1     -11.365  11.945  63.163  1.00  0.00    -0.232 A  
HETATM   17  C   UNL     1     -10.263  12.305  63.950  1.00  0.00    -0.421 A  
ENDBRANCH   9  12
ENDBRANCH   3   8
TORSDOF 2
ENDMDL
MODEL      116
REMARK 921   NORMALIZED FREE ENERGY PREDICTED BY IDOCK:   -3.39 KCAL/MOL
REMARK 922        TOTAL FREE ENERGY PREDICTED BY IDOCK:   -4.00 KCAL/MOL
REMARK 923 INTER-LIGAND FREE ENERGY PREDICTED BY IDOCK:   -3.78 KCAL/MOL
REMARK 924 INTRA-LIGAND FREE ENERGY PREDICTED BY IDOCK:   -0.22 KCAL/MOL
REMARK 927      BINDING AFFINITY PREDICTED BY RF-SCORE:    0.00 PKD
ROOT
HETATM    1  C   UNL     1      -7.426  10.058  69.694  1.00  0.00    -0.134 C  
HETATM    2  C   UNL     1      -8.895  10.326  69.482  1.00  0.00    -0.148 C  
HETATM    3  C   UNL     1      -9.936   9.712  70.094  1.00  0.00    -0.261 C  
HETATM    4  S   UNL     1     -11.569  10.289  69.851  1.00  0.00    -0.238 SA 
HETATM    5  O   UNL     1      -9.022  11.386  68.607  1.00  0.00    -0.172 OA 
HETATM    6  C   UNL     1     -10.148  11.522  67.754  1.00  0.00    -0.182 C  
HETATM    7  C   UNL     1     -11.460  10.863  68.150  1.00  0.00    -0.295 C  
ENDROOT
BRANCH   3   8
HETATM    8  C   UNL     1      -9.762   8.612  71.140  1.00  0.00    -0.224 C  
HETATM    9  N   UNL     1     -10.158   7.347  70.736  1.00  0.00    -0.190 N  
HETATM   10  H   UNL     1     -10.470   7.253  69.769  1.00  0.00     0.000 HD 
HETATM   11  O   UNL     1      -9.271   8.845  72.239  1.00  0.00    -0.376 OA 
BRANCH   9  12
HETATM   12  C   UNL     1     -10.176   6.172  71.527  1.00  0.00    -0.203 A  
HETATM   13  C   UNL     1      -9.236   5.146  71.396  1.00  0.00    -0.180 A  
HETATM   14  C   UNL     1      -9.317   3.996  72.190  1.00  0.00    -0.181 A  
HETATM   15  C   UNL     1     -10.341   3.862  73.122  1.00  0.00    -0.241 A  
HETATM   16  C   UNL     1     -11.270   4.887  73.276  1.00  0.00    -0.423 A  
HETATM   17  C   UNL     1     -11.179   6.046  72.494  1.00  0.00    -0.333 A  
ENDBRANCH   9  12
ENDBRANCH   3   8
TORSDOF 2
ENDMDL
MODEL      117
REMARK 921   NORMALIZED FREE ENERGY PREDICTED BY IDOCK:   -3.37 KCAL/MOL
REMARK 922        TOTAL FREE ENERGY PREDICTED BY IDOCK:   -3.98 KCAL/MOL
REMARK 923 INTER-LIGAND FREE ENERGY PREDICTED BY IDOCK:   -3.75 KCAL/MOL
REMARK 924 INTRA-LIGAND FREE ENERGY PREDICTED BY IDOCK:   -0.23 KCAL/MOL
REMARK 927      BINDING AFFINITY PREDICTED BY RF-SCORE:    0.00 PKD
ROOT
HETATM    1  C   UNL     1     -11.854  10.644  70.219  1.00  0.00    -0.430 C  
HETATM    2  C   UNL     1     -12.331   9.398  70.925  1.00  0.00    -0.193 C  
HETATM    3  C   UNL     1     -11.807   8.153  70.829  1.00  0.00    -0.159 C  
HETATM    4  S   UNL     1     -12.383   6.870  71.868  1.00  0.00    -0.294 SA 
HETATM    5  O   UNL     1     -13.358   9.747  71.777  1.00  0.00    -0.387 OA 
HETATM    6  C   UNL     1     -14.388   8.833  72.122  1.00  0.00    -0.393 C  
HETATM    7  C   UNL     1     -14.111   7.340  72.036  1.00  0.00    -0.181 C  
ENDROOT
BRANCH   3   8
HETATM    8  C   UNL     1     -10.598   7.817  69.955  1.00  0.00    -0.238 C  
HETATM    9  N   UNL     1     -10.830   7.857  68.590  1.00  0.00    -0.415 N  
HETATM   10  H   UNL     1     -11.757   8.163  68.292  1.00  0.00     0.000 HD 
HETATM   11  O   UNL     1      -9.503   7.568  70.446  1.00  0.00    -0.161 OA 
BRANCH   9  12
HETATM   12  C   UNL     1      -9.912   7.518  67.565  1.00  0.00    -0.174 A  
HETATM   13  C   UNL     1      -9.140   8.463  66.884  1.00  0.00    -0.179 A  
HETATM   14  C   UNL     1      -8.266   8.071  65.863  1.00  0.00    -0.127 A  
HETATM   15  C   UNL     1      -8.160   6.729  65.513  1.00  0.00    -0.128 A  
HETATM   16  C   UNL     1      -8.908   5.778  66.199  1.00  0.00    -0.146 A  
HETATM   17  C   UNL     1      -9.769   6.168  67.233  1.00  0.00    -0.146 A  
ENDBRANCH   9  12
ENDBRANCH   3   8
TORSDOF 2
ENDMDL
MODEL      118
REMARK 921   NORMALIZED FREE ENERGY PREDICTED BY IDOCK:   -3.37 KCAL/MOL
REMARK 922        TOTAL FREE ENERGY PREDICTED BY IDOCK:   -3.98 KCAL/MOL
REMARK 923 INTER-LIGAND FREE ENERGY PREDICTED BY IDOCK:   -3.64 KCAL/MOL
REMARK 924 INTRA-LIGAND FREE ENERGY PREDICTED BY IDOCK:   -0.33 KCAL/MOL
REMARK 927      BINDING AFFINITY PREDICTED BY RF-SCORE:    0.00 PKD
ROOT
HETATM    1  C   UNL     1      -8.340   8.025  66.794  1.00  0.00    -0.116 C  
HETATM    2  C   UNL     1      -8.629   6.674  67.401  1.00  0.00    -0.119 C  
HETATM    3  C   UNL     1      -9.201   6.421  68.603  1.00  0.00    -0.125 C  
HETATM    4  S   UNL     1      -9.624   4.786  69.054  1.00  0.00    -0.175 SA 
HETATM    5  O   UNL     1      -8.294   5.702  66.479  1.00  0.00    -0.109 OA 
HETATM    6  C   UNL     1      -7.876   4.405  66.877  1.00  0.00    -0.098 C  
HETATM    7  C   UNL     1      -8.309   3.873  68.235  1.00  0.00    -0.091 C  
ENDROOT
BRANCH   3   8
HETATM    8  C   UNL     1      -9.661   7.522  69.559  1.00  0.00    -0.156 C  
HETATM    9  N   UNL     1     -10.975   7.930  69.398  1.00  0.00    -0.428 N  
HETATM   10  H   UNL     1     -11.530   7.424  68.707  1.00  0.00     0.000 HD 
HETATM   11  O   UNL     1      -8.916   7.973  70.422  1.00  0.00    -0.143 OA 
BRANCH   9  12
HETATM   12  C   UNL     1     -11.628   8.978  70.095  1.00  0.00     0.011 A  
HETATM   13  C   UNL     1     -11.582  10.313  69.688  1.00  0.00    -0.267 A  
HETATM   14  C   UNL     1     -12.227  11.310  70.430  1.00  0.00    -0.453 A  
HETATM   15  C   UNL     1     -12.923  10.977  71.587  1.00  0.00    -0.561 A  
HETATM   16  C   UNL     1     -12.994   9.647  71.989  1.00  0.00    -0.518 A  
HETATM   17  C   UNL     1     -12.363   8.648  71.237  1.00  0.00    -0.298 A  
ENDBRANCH   9  12
ENDBRANCH   3   8
TORSDOF 2
ENDMDL
MODEL      119
REMARK 921   NORMALIZED FREE ENERGY PREDICTED BY IDOCK:   -3.35 KCAL/MOL
REMARK 922        TOTAL FREE ENERGY PREDICTED BY IDOCK:   -3.96 KCAL/MOL
REMARK 923 INTER-LIGAND FREE ENERGY PREDICTED BY IDOCK:   -4.00 KCAL/MOL
REMARK 924 INTRA-LIGAND FREE ENERGY PREDICTED BY IDOCK:    0.04 KCAL/MOL
REMARK 927      BINDING AFFINITY PREDICTED BY RF-SCORE:    0.00 PKD
ROOT
HETATM    1  C   UNL     1      -9.533   3.436  69.945  1.00  0.00    -0.236 C  
HETATM    2  C   UNL     1      -9.630   4.230  68.665  1.00  0.00    -0.142 C  
HETATM    3  C   UNL     1     -10.029   5.517  68.529  1.00  0.00    -0.157 C  
HETATM    4  S   UNL     1      -9.899   6.324  66.983  1.00  0.00    -0.161 SA 
HETATM    5  O   UNL     1      -9.152   3.450  67.632  1.00  0.00    -0.136 OA 
HETATM    6  C   UNL     1      -9.616   3.605  66.300  1.00  0.00    -0.130 C  
HETATM    7  C   UNL     1     -10.199   4.943  65.871  1.00  0.00    -0.223 C  
ENDROOT
BRANCH   3   8
HETATM    8  C   UNL     1     -10.453   6.392  69.709  1.00  0.00    -0.215 C  
HETATM    9  N   UNL     1     -11.769   6.826  69.677  1.00  0.00    -0.642 N  
HETATM   10  H   UNL     1     -12.346   6.478  68.911  1.00  0.00     0.000 HD 
HETATM   11  O   UNL     1      -9.681   6.649  70.626  1.00  0.00    -0.172 OA 
BRANCH   9  12
HETATM   12  C   UNL     1     -12.394   7.703  70.597  1.00  0.00     0.065 A  
HETATM   13  C   UNL     1     -11.792   8.872  71.071  1.00  0.00    -0.324 A  
HETATM   14  C   UNL     1     -12.449   9.689  71.999  1.00  0.00    -0.412 A  
HETATM   15  C   UNL     1     -13.713   9.341  72.462  1.00  0.00    -0.475 A  
HETATM   16  C   UNL     1     -14.331   8.192  71.981  1.00  0.00    -0.524 A  
HETATM   17  C   UNL     1     -13.681   7.383  71.039  1.00  0.00    -0.117 A  
ENDBRANCH   9  12
ENDBRANCH   3   8
TORSDOF 2
ENDMDL
MODEL      120
REMARK 921   NORMALIZED FREE ENERGY PREDICTED BY IDOCK:   -3.33 KCAL/MOL
REMARK 922        TOTAL FREE ENERGY PREDICTED BY IDOCK:   -3.94 KCAL/MOL
REMARK 923 INTER-LIGAND FREE ENERGY PREDICTED BY IDOCK:   -3.81 KCAL/MOL
REMARK 924 INTRA-LIGAND FREE ENERGY PREDICTED BY IDOCK:   -0.13 KCAL/MOL
REMARK 927      BINDING AFFINITY PREDICTED BY RF-SCORE:    0.00 PKD
ROOT
HETATM    1  C   UNL     1      -9.204   9.223  70.469  1.00  0.00    -0.311 C  
HETATM    2  C   UNL     1      -9.525   8.664  69.105  1.00  0.00    -0.157 C  
HETATM    3  C   UNL     1     -10.215   7.532  68.825  1.00  0.00    -0.197 C  
HETATM    4  S   UNL     1     -10.647   7.145  67.176  1.00  0.00    -0.351 SA 
HETATM    5  O   UNL     1      -9.073   9.555  68.152  1.00  0.00    -0.127 OA 
HETATM    6  C   UNL     1      -8.672   9.129  66.859  1.00  0.00    -0.123 C  
HETATM    7  C   UNL     1      -9.233   7.830  66.301  1.00  0.00    -0.166 C  
ENDROOT
BRANCH   3   8
HETATM    8  C   UNL     1     -10.797   6.619  69.904  1.00  0.00    -0.278 C  
HETATM    9  N   UNL     1      -9.862   5.992  70.712  1.00  0.00    -0.178 N  
HETATM   10  H   UNL     1      -8.885   6.240  70.557  1.00  0.00     0.000 HD 
HETATM   11  O   UNL     1     -12.008   6.491  70.050  1.00  0.00    -0.358 OA 
BRANCH   9  12
HETATM   12  C   UNL     1     -10.123   5.042  71.731  1.00  0.00    -0.200 A  
HETATM   13  C   UNL     1     -10.690   5.377  72.963  1.00  0.00    -0.301 A  
HETATM   14  C   UNL     1     -10.904   4.399  73.942  1.00  0.00    -0.339 A  
HETATM   15  C   UNL     1     -10.551   3.077  73.695  1.00  0.00    -0.264 A  
HETATM   16  C   UNL     1     -10.006   2.729  72.463  1.00  0.00    -0.229 A  
HETATM   17  C   UNL     1      -9.808   3.704  71.477  1.00  0.00    -0.227 A  
ENDBRANCH   9  12
ENDBRANCH   3   8
TORSDOF 2
ENDMDL
MODEL      121
REMARK 921   NORMALIZED FREE ENERGY PREDICTED BY IDOCK:   -3.31 KCAL/MOL
REMARK 922        TOTAL FREE ENERGY PREDICTED BY IDOCK:   -3.91 KCAL/MOL
REMARK 923 INTER-LIGAND FREE ENERGY PREDICTED BY IDOCK:   -3.85 KCAL/MOL
REMARK 924 INTRA-LIGAND FREE ENERGY PREDICTED BY IDOCK:   -0.07 KCAL/MOL
REMARK 927      BINDING AFFINITY PREDICTED BY RF-SCORE:    0.00 PKD
ROOT
HETATM    1  C   UNL     1     -10.779  13.634  65.749  1.00  0.00    -0.280 C  
HETATM    2  C   UNL     1     -10.520  14.498  66.958  1.00  0.00    -0.268 C  
HETATM    3  C   UNL     1     -10.437  14.096  68.249  1.00  0.00    -0.249 C  
HETATM    4  S   UNL     1      -9.947  15.220  69.496  1.00  0.00    -0.216 SA 
HETATM    5  O   UNL     1     -10.285  15.788  66.529  1.00  0.00    -0.267 OA 
HETATM    6  C   UNL     1     -10.590  16.914  67.338  1.00  0.00    -0.294 C  
HETATM    7  C   UNL     1     -10.645  16.746  68.849  1.00  0.00    -0.350 C  
ENDROOT
BRANCH   3   8
HETATM    8  C   UNL     1     -10.597  12.639  68.684  1.00  0.00    -0.222 C  
HETATM    9  N   UNL     1      -9.449  11.869  68.595  1.00  0.00    -0.364 N  
HETATM   10  H   UNL     1      -8.596  12.351  68.310  1.00  0.00     0.000 HD 
HETATM   11  O   UNL     1     -11.664  12.211  69.112  1.00  0.00    -0.288 OA 
BRANCH   9  12
HETATM   12  C   UNL     1      -9.337  10.481  68.860  1.00  0.00    -0.187 A  
HETATM   13  C   UNL     1      -9.843   9.879  70.014  1.00  0.00    -0.291 A  
HETATM   14  C   UNL     1      -9.681   8.505  70.234  1.00  0.00    -0.182 A  
HETATM   15  C   UNL     1      -9.011   7.724  69.299  1.00  0.00    -0.139 A  
HETATM   16  C   UNL     1      -8.522   8.310  68.136  1.00  0.00    -0.132 A  
HETATM   17  C   UNL     1      -8.699   9.681  67.908  1.00  0.00    -0.119 A  
ENDBRANCH   9  12
ENDBRANCH   3   8
TORSDOF 2
ENDMDL
MODEL      122
REMARK 921   NORMALIZED FREE ENERGY PREDICTED BY IDOCK:   -3.31 KCAL/MOL
REMARK 922        TOTAL FREE ENERGY PREDICTED BY IDOCK:   -3.91 KCAL/MOL
REMARK 923 INTER-LIGAND FREE ENERGY PREDICTED BY IDOCK:   -4.19 KCAL/MOL
REMARK 924 INTRA-LIGAND FREE ENERGY PREDICTED BY IDOCK:    0.28 KCAL/MOL
REMARK 927      BINDING AFFINITY PREDICTED BY RF-SCORE:    0.00 PKD
ROOT
HETATM    1  C   UNL     1     -10.910   8.415  69.811  1.00  0.00    -0.184 C  
HETATM    2  C   UNL     1      -9.562   8.836  69.280  1.00  0.00    -0.162 C  
HETATM    3  C   UNL     1      -9.314   9.726  68.289  1.00  0.00    -0.129 C  
HETATM    4  S   UNL     1      -7.675  10.224  67.937  1.00  0.00    -0.089 SA 
HETATM    5  O   UNL     1      -8.585   8.225  70.039  1.00  0.00    -0.125 OA 
HETATM    6  C   UNL     1      -7.308   7.911  69.504  1.00  0.00    -0.087 C  
HETATM    7  C   UNL     1      -6.788   8.706  68.317  1.00  0.00    -0.066 C  
ENDROOT
BRANCH   3   8
HETATM    8  C   UNL     1     -10.418  10.470  67.536  1.00  0.00    -0.239 C  
HETATM    9  N   UNL     1     -10.010  11.110  66.376  1.00  0.00    -0.210 N  
HETATM   10  H   UNL     1      -9.037  10.979  66.100  1.00  0.00     0.000 HD 
HETATM   11  O   UNL     1     -11.580  10.458  67.927  1.00  0.00    -0.406 OA 
BRANCH   9  12
HETATM   12  C   UNL     1     -10.807  11.927  65.536  1.00  0.00    -0.295 A  
HETATM   13  C   UNL     1     -11.413  13.109  65.968  1.00  0.00    -0.370 A  
HETATM   14  C   UNL     1     -12.209  13.864  65.099  1.00  0.00    -0.443 A  
HETATM   15  C   UNL     1     -12.406  13.441  63.789  1.00  0.00    -0.418 A  
HETATM   16  C   UNL     1     -11.789  12.277  63.341  1.00  0.00    -0.563 A  
HETATM   17  C   UNL     1     -10.978  11.531  64.206  1.00  0.00    -0.406 A  
ENDBRANCH   9  12
ENDBRANCH   3   8
TORSDOF 2
ENDMDL
MODEL      123
REMARK 921   NORMALIZED FREE ENERGY PREDICTED BY IDOCK:   -3.28 KCAL/MOL
REMARK 922        TOTAL FREE ENERGY PREDICTED BY IDOCK:   -3.89 KCAL/MOL
REMARK 923 INTER-LIGAND FREE ENERGY PREDICTED BY IDOCK:   -3.56 KCAL/MOL
REMARK 924 INTRA-LIGAND FREE ENERGY PREDICTED BY IDOCK:   -0.33 KCAL/MOL
REMARK 927      BINDING AFFINITY PREDICTED BY RF-SCORE:    0.00 PKD
ROOT
HETATM    1  C   UNL     1     -12.147  11.870  70.305  1.00  0.00    -0.409 C  
HETATM    2  C   UNL     1     -12.184  10.418  70.715  1.00  0.00    -0.359 C  
HETATM    3  C   UNL     1     -11.528   9.386  70.133  1.00  0.00    -0.138 C  
HETATM    4  S   UNL     1     -11.550   7.799  70.865  1.00  0.00    -0.249 SA 
HETATM    5  O   UNL     1     -12.942  10.310  71.863  1.00  0.00    -0.427 OA 
HETATM    6  C   UNL     1     -13.661   9.126  72.177  1.00  0.00    -0.471 C  
HETATM    7  C   UNL     1     -13.194   7.801  71.594  1.00  0.00    -0.343 C  
ENDROOT
BRANCH   3   8
HETATM    8  C   UNL     1     -10.608   9.554  68.923  1.00  0.00    -0.216 C  
HETATM    9  N   UNL     1      -9.259   9.670  69.221  1.00  0.00    -0.172 N  
HETATM   10  H   UNL     1      -8.998   9.572  70.202  1.00  0.00     0.000 HD 
HETATM   11  O   UNL     1     -11.048   9.549  67.779  1.00  0.00    -0.186 OA 
BRANCH   9  12
HETATM   12  C   UNL     1      -8.207   9.910  68.302  1.00  0.00    -0.109 A  
HETATM   13  C   UNL     1      -7.575   8.895  67.580  1.00  0.00    -0.093 A  
HETATM   14  C   UNL     1      -6.524   9.189  66.703  1.00  0.00    -0.067 A  
HETATM   15  C   UNL     1      -6.096  10.503  66.544  1.00  0.00    -0.079 A  
HETATM   16  C   UNL     1      -6.732  11.524  67.242  1.00  0.00    -0.112 A  
HETATM   17  C   UNL     1      -7.796  11.232  68.106  1.00  0.00    -0.127 A  
ENDBRANCH   9  12
ENDBRANCH   3   8
TORSDOF 2
ENDMDL
MODEL      124
REMARK 921   NORMALIZED FREE ENERGY PREDICTED BY IDOCK:   -3.28 KCAL/MOL
REMARK 922        TOTAL FREE ENERGY PREDICTED BY IDOCK:   -3.88 KCAL/MOL
REMARK 923 INTER-LIGAND FREE ENERGY PREDICTED BY IDOCK:   -3.86 KCAL/MOL
REMARK 924 INTRA-LIGAND FREE ENERGY PREDICTED BY IDOCK:   -0.02 KCAL/MOL
REMARK 927      BINDING AFFINITY PREDICTED BY RF-SCORE:    0.00 PKD
ROOT
HETATM    1  C   UNL     1     -11.367   6.527  70.073  1.00  0.00    -0.472 C  
HETATM    2  C   UNL     1      -9.872   6.642  69.903  1.00  0.00    -0.167 C  
HETATM    3  C   UNL     1      -9.207   7.334  68.947  1.00  0.00    -0.141 C  
HETATM    4  S   UNL     1      -7.468   7.500  69.024  1.00  0.00    -0.097 SA 
HETATM    5  O   UNL     1      -9.263   5.987  70.955  1.00  0.00    -0.152 OA 
HETATM    6  C   UNL     1      -7.980   5.395  70.826  1.00  0.00    -0.099 C  
HETATM    7  C   UNL     1      -7.025   5.922  69.766  1.00  0.00    -0.066 C  
ENDROOT
BRANCH   3   8
HETATM    8  C   UNL     1      -9.911   8.139  67.855  1.00  0.00    -0.182 C  
HETATM    9  N   UNL     1      -9.587   9.486  67.815  1.00  0.00    -0.132 N  
HETATM   10  H   UNL     1      -8.872   9.803  68.470  1.00  0.00     0.000 HD 
HETATM   11  O   UNL     1     -10.676   7.606  67.058  1.00  0.00    -0.348 OA 
BRANCH   9  12
HETATM   12  C   UNL     1     -10.147  10.467  66.959  1.00  0.00    -0.215 A  
HETATM   13  C   UNL     1     -10.853  11.578  67.427  1.00  0.00    -0.294 A  
HETATM   14  C   UNL     1     -11.405  12.503  66.532  1.00  0.00    -0.387 A  
HETATM   15  C   UNL     1     -11.256  12.322  65.162  1.00  0.00    -0.369 A  
HETATM   16  C   UNL     1     -10.537  11.231  64.686  1.00  0.00    -0.392 A  
HETATM   17  C   UNL     1      -9.969  10.314  65.581  1.00  0.00    -0.347 A  
ENDBRANCH   9  12
ENDBRANCH   3   8
TORSDOF 2
ENDMDL
MODEL      125
REMARK 921   NORMALIZED FREE ENERGY PREDICTED BY IDOCK:   -3.28 KCAL/MOL
REMARK 922        TOTAL FREE ENERGY PREDICTED BY IDOCK:   -3.88 KCAL/MOL
REMARK 923 INTER-LIGAND FREE ENERGY PREDICTED BY IDOCK:   -3.70 KCAL/MOL
REMARK 924 INTRA-LIGAND FREE ENERGY PREDICTED BY IDOCK:   -0.18 KCAL/MOL
REMARK 927      BINDING AFFINITY PREDICTED BY RF-SCORE:    0.00 PKD
ROOT
HETATM    1  C   UNL     1     -12.121   8.655  72.159  1.00  0.00    -0.451 C  
HETATM    2  C   UNL     1     -12.221  10.008  71.498  1.00  0.00    -0.405 C  
HETATM    3  C   UNL     1     -11.461  10.479  70.481  1.00  0.00    -0.345 C  
HETATM    4  S   UNL     1     -11.848  12.007  69.723  1.00  0.00    -0.298 SA 
HETATM    5  O   UNL     1     -13.294  10.681  72.045  1.00  0.00    -0.440 OA 
HETATM    6  C   UNL     1     -13.331  12.098  72.117  1.00  0.00    -0.333 C  
HETATM    7  C   UNL     1     -12.503  12.911  71.133  1.00  0.00    -0.249 C  
ENDROOT
BRANCH   3   8
HETATM    8  C   UNL     1     -10.346   9.667  69.822  1.00  0.00    -0.241 C  
HETATM    9  N   UNL     1      -9.148   9.640  70.519  1.00  0.00    -0.321 N  
HETATM   10  H   UNL     1      -9.136  10.106  71.426  1.00  0.00     0.000 HD 
HETATM   11  O   UNL     1     -10.529   9.062  68.772  1.00  0.00    -0.216 OA 
BRANCH   9  12
HETATM   12  C   UNL     1      -7.939   9.031  70.100  1.00  0.00    -0.114 A  
HETATM   13  C   UNL     1      -6.789   9.755  69.776  1.00  0.00    -0.074 A  
HETATM   14  C   UNL     1      -5.629   9.100  69.345  1.00  0.00    -0.035 A  
HETATM   15  C   UNL     1      -5.611   7.713  69.235  1.00  0.00    -0.026 A  
HETATM   16  C   UNL     1      -6.744   6.981  69.576  1.00  0.00    -0.049 A  
HETATM   17  C   UNL     1      -7.899   7.635  70.023  1.00  0.00    -0.101 A  
ENDBRANCH   9  12
ENDBRANCH   3   8
TORSDOF 2
ENDMDL
MODEL      126
REMARK 921   NORMALIZED FREE ENERGY PREDICTED BY IDOCK:   -3.27 KCAL/MOL
REMARK 922        TOTAL FREE ENERGY PREDICTED BY IDOCK:   -3.87 KCAL/MOL
REMARK 923 INTER-LIGAND FREE ENERGY PREDICTED BY IDOCK:   -3.57 KCAL/MOL
REMARK 924 INTRA-LIGAND FREE ENERGY PREDICTED BY IDOCK:   -0.31 KCAL/MOL
REMARK 927      BINDING AFFINITY PREDICTED BY RF-SCORE:    0.00 PKD
ROOT
HETATM    1  C   UNL     1     -10.286  14.795  65.829  1.00  0.00    -0.358 C  
HETATM    2  C   UNL     1      -9.622  13.618  66.499  1.00  0.00    -0.286 C  
HETATM    3  C   UNL     1      -8.901  13.629  67.646  1.00  0.00    -0.194 C  
HETATM    4  S   UNL     1      -8.364  12.129  68.367  1.00  0.00    -0.108 SA 
HETATM    5  O   UNL     1      -9.944  12.477  65.793  1.00  0.00    -0.261 OA 
HETATM    6  C   UNL     1      -9.080  11.351  65.755  1.00  0.00    -0.184 C  
HETATM    7  C   UNL     1      -8.090  11.140  66.889  1.00  0.00    -0.150 C  
ENDROOT
BRANCH   3   8
HETATM    8  C   UNL     1      -8.650  14.895  68.465  1.00  0.00    -0.162 C  
HETATM    9  N   UNL     1      -7.487  15.578  68.150  1.00  0.00    -0.110 N  
HETATM   10  H   UNL     1      -6.940  15.215  67.369  1.00  0.00     0.000 HD 
HETATM   11  O   UNL     1      -9.451  15.280  69.311  1.00  0.00    -0.224 OA 
BRANCH   9  12
HETATM   12  C   UNL     1      -6.978  16.730  68.802  1.00  0.00    -0.197 A  
HETATM   13  C   UNL     1      -7.463  18.019  68.567  1.00  0.00    -0.283 A  
HETATM   14  C   UNL     1      -6.905  19.123  69.223  1.00  0.00    -0.336 A  
HETATM   15  C   UNL     1      -5.856  18.945  70.119  1.00  0.00    -0.242 A  
HETATM   16  C   UNL     1      -5.381  17.664  70.376  1.00  0.00    -0.263 A  
HETATM   17  C   UNL     1      -5.950  16.557  69.733  1.00  0.00    -0.208 A  
ENDBRANCH   9  12
ENDBRANCH   3   8
TORSDOF 2
ENDMDL
MODEL      127
REMARK 921   NORMALIZED FREE ENERGY PREDICTED BY IDOCK:   -3.26 KCAL/MOL
REMARK 922        TOTAL FREE ENERGY PREDICTED BY IDOCK:   -3.86 KCAL/MOL
REMARK 923 INTER-LIGAND FREE ENERGY PREDICTED BY IDOCK:   -3.96 KCAL/MOL
REMARK 924 INTRA-LIGAND FREE ENERGY PREDICTED BY IDOCK:    0.10 KCAL/MOL
REMARK 927      BINDING AFFINITY PREDICTED BY RF-SCORE:    0.00 PKD
ROOT
HETATM    1  C   UNL     1      -7.208  13.002  68.637  1.00  0.00    -0.101 C  
HETATM    2  C   UNL     1      -8.606  13.172  68.095  1.00  0.00    -0.181 C  
HETATM    3  C   UNL     1      -9.612  12.266  68.127  1.00  0.00    -0.213 C  
HETATM    4  S   UNL     1     -11.222  12.713  67.612  1.00  0.00    -0.302 SA 
HETATM    5  O   UNL     1      -8.737  14.464  67.627  1.00  0.00    -0.170 OA 
HETATM    6  C   UNL     1      -9.628  14.790  66.571  1.00  0.00    -0.284 C  
HETATM    7  C   UNL     1     -10.830  13.895  66.314  1.00  0.00    -0.290 C  
ENDROOT
BRANCH   3   8
HETATM    8  C   UNL     1      -9.468  10.877  68.750  1.00  0.00    -0.190 C  
HETATM    9  N   UNL     1     -10.575  10.430  69.453  1.00  0.00    -0.224 N  
HETATM   10  H   UNL     1     -11.398  11.032  69.441  1.00  0.00     0.000 HD 
HETATM   11  O   UNL     1      -8.452  10.208  68.597  1.00  0.00    -0.111 OA 
BRANCH   9  12
HETATM   12  C   UNL     1     -10.681   9.222  70.187  1.00  0.00    -0.235 A  
HETATM   13  C   UNL     1     -10.571   7.959  69.602  1.00  0.00    -0.234 A  
HETATM   14  C   UNL     1     -10.709   6.798  70.374  1.00  0.00    -0.281 A  
HETATM   15  C   UNL     1     -10.959   6.895  71.739  1.00  0.00    -0.259 A  
HETATM   16  C   UNL     1     -11.049   8.148  72.336  1.00  0.00    -0.437 A  
HETATM   17  C   UNL     1     -10.894   9.309  71.566  1.00  0.00    -0.442 A  
ENDBRANCH   9  12
ENDBRANCH   3   8
TORSDOF 2
ENDMDL
MODEL      128
REMARK 921   NORMALIZED FREE ENERGY PREDICTED BY IDOCK:   -3.26 KCAL/MOL
REMARK 922        TOTAL FREE ENERGY PREDICTED BY IDOCK:   -3.86 KCAL/MOL
REMARK 923 INTER-LIGAND FREE ENERGY PREDICTED BY IDOCK:   -3.57 KCAL/MOL
REMARK 924 INTRA-LIGAND FREE ENERGY PREDICTED BY IDOCK:   -0.29 KCAL/MOL
REMARK 927      BINDING AFFINITY PREDICTED BY RF-SCORE:    0.00 PKD
ROOT
HETATM    1  C   UNL     1      -8.951   6.419  66.662  1.00  0.00    -0.145 C  
HETATM    2  C   UNL     1      -9.471   7.728  67.206  1.00  0.00    -0.148 C  
HETATM    3  C   UNL     1     -10.212   7.913  68.324  1.00  0.00    -0.203 C  
HETATM    4  S   UNL     1     -10.565   9.528  68.894  1.00  0.00    -0.197 SA 
HETATM    5  O   UNL     1      -8.987   8.750  66.415  1.00  0.00    -0.140 OA 
HETATM    6  C   UNL     1      -9.697   9.969  66.250  1.00  0.00    -0.214 C  
HETATM    7  C   UNL     1     -10.676  10.406  67.328  1.00  0.00    -0.273 C  
ENDROOT
BRANCH   3   8
HETATM    8  C   UNL     1     -10.644   6.768  69.241  1.00  0.00    -0.231 C  
HETATM    9  N   UNL     1      -9.992   6.715  70.463  1.00  0.00    -0.179 N  
HETATM   10  H   UNL     1      -9.335   7.469  70.664  1.00  0.00     0.000 HD 
HETATM   11  O   UNL     1     -11.531   5.986  68.916  1.00  0.00    -0.221 OA 
BRANCH   9  12
HETATM   12  C   UNL     1     -10.144   5.720  71.461  1.00  0.00    -0.196 A  
HETATM   13  C   UNL     1      -9.537   4.465  71.390  1.00  0.00    -0.234 A  
HETATM   14  C   UNL     1      -9.742   3.512  72.395  1.00  0.00    -0.217 A  
HETATM   15  C   UNL     1     -10.559   3.810  73.481  1.00  0.00    -0.281 A  
HETATM   16  C   UNL     1     -11.151   5.065  73.573  1.00  0.00    -0.386 A  
HETATM   17  C   UNL     1     -10.932   6.024  72.575  1.00  0.00    -0.300 A  
ENDBRANCH   9  12
ENDBRANCH   3   8
TORSDOF 2
ENDMDL
MODEL      129
REMARK 921   NORMALIZED FREE ENERGY PREDICTED BY IDOCK:   -3.26 KCAL/MOL
REMARK 922        TOTAL FREE ENERGY PREDICTED BY IDOCK:   -3.86 KCAL/MOL
REMARK 923 INTER-LIGAND FREE ENERGY PREDICTED BY IDOCK:   -4.29 KCAL/MOL
REMARK 924 INTRA-LIGAND FREE ENERGY PREDICTED BY IDOCK:    0.43 KCAL/MOL
REMARK 927      BINDING AFFINITY PREDICTED BY RF-SCORE:    0.00 PKD
ROOT
HETATM    1  C   UNL     1     -11.865  14.380  64.372  1.00  0.00    -0.433 C  
HETATM    2  C   UNL     1     -11.049  15.154  65.378  1.00  0.00    -0.367 C  
HETATM    3  C   UNL     1     -10.529  14.692  66.540  1.00  0.00    -0.290 C  
HETATM    4  S   UNL     1      -9.452  15.692  67.487  1.00  0.00    -0.215 SA 
HETATM    5  O   UNL     1     -10.828  16.421  64.876  1.00  0.00    -0.655 OA 
HETATM    6  C   UNL     1     -10.646  17.542  65.728  1.00  0.00    -0.174 C  
HETATM    7  C   UNL     1     -10.137  17.320  67.144  1.00  0.00    -0.297 C  
ENDROOT
BRANCH   3   8
HETATM    8  C   UNL     1     -10.701  13.250  67.019  1.00  0.00    -0.260 C  
HETATM    9  N   UNL     1      -9.538  12.497  67.047  1.00  0.00    -0.211 N  
HETATM   10  H   UNL     1      -8.673  12.982  66.808  1.00  0.00     0.000 HD 
HETATM   11  O   UNL     1     -11.791  12.821  67.382  1.00  0.00    -0.361 OA 
BRANCH   9  12
HETATM   12  C   UNL     1      -9.427  11.122  67.374  1.00  0.00    -0.164 A  
HETATM   13  C   UNL     1      -8.277  10.368  67.131  1.00  0.00    -0.122 A  
HETATM   14  C   UNL     1      -8.233   9.006  67.454  1.00  0.00    -0.108 A  
HETATM   15  C   UNL     1      -9.342   8.388  68.021  1.00  0.00    -0.146 A  
HETATM   16  C   UNL     1     -10.485   9.135  68.288  1.00  0.00    -0.254 A  
HETATM   17  C   UNL     1     -10.523  10.501  67.981  1.00  0.00    -0.232 A  
ENDBRANCH   9  12
ENDBRANCH   3   8
TORSDOF 2
ENDMDL
MODEL      130
REMARK 921   NORMALIZED FREE ENERGY PREDICTED BY IDOCK:   -3.25 KCAL/MOL
REMARK 922        TOTAL FREE ENERGY PREDICTED BY IDOCK:   -3.85 KCAL/MOL
REMARK 923 INTER-LIGAND FREE ENERGY PREDICTED BY IDOCK:   -4.25 KCAL/MOL
REMARK 924 INTRA-LIGAND FREE ENERGY PREDICTED BY IDOCK:    0.40 KCAL/MOL
REMARK 927      BINDING AFFINITY PREDICTED BY RF-SCORE:    0.00 PKD
ROOT
HETATM    1  C   UNL     1      -9.602  12.712  67.028  1.00  0.00    -0.219 C  
HETATM    2  C   UNL     1     -10.447  13.383  68.082  1.00  0.00    -0.245 C  
HETATM    3  C   UNL     1     -11.200  12.781  69.033  1.00  0.00    -0.264 C  
HETATM    4  S   UNL     1     -11.966  13.730  70.286  1.00  0.00    -0.306 SA 
HETATM    5  O   UNL     1     -10.262  14.747  67.984  1.00  0.00    -0.223 OA 
HETATM    6  C   UNL     1     -11.273  15.669  68.363  1.00  0.00    -0.352 C  
HETATM    7  C   UNL     1     -12.323  15.240  69.376  1.00  0.00    -0.133 C  
ENDROOT
BRANCH   3   8
HETATM    8  C   UNL     1     -11.302  11.263  69.184  1.00  0.00    -0.282 C  
HETATM    9  N   UNL     1     -10.504  10.716  70.177  1.00  0.00    -0.435 N  
HETATM   10  H   UNL     1      -9.974  11.371  70.751  1.00  0.00     0.000 HD 
HETATM   11  O   UNL     1     -12.066  10.600  68.492  1.00  0.00    -0.420 OA 
BRANCH   9  12
HETATM   12  C   UNL     1     -10.350   9.339  70.476  1.00  0.00    -0.254 A  
HETATM   13  C   UNL     1      -9.601   8.870  71.557  1.00  0.00    -0.362 A  
HETATM   14  C   UNL     1      -9.463   7.496  71.790  1.00  0.00    -0.170 A  
HETATM   15  C   UNL     1     -10.074   6.580  70.940  1.00  0.00    -0.210 A  
HETATM   16  C   UNL     1     -10.840   7.037  69.872  1.00  0.00    -0.280 A  
HETATM   17  C   UNL     1     -10.992   8.412  69.649  1.00  0.00    -0.094 A  
ENDBRANCH   9  12
ENDBRANCH   3   8
TORSDOF 2
ENDMDL
MODEL      131
REMARK 921   NORMALIZED FREE ENERGY PREDICTED BY IDOCK:   -3.25 KCAL/MOL
REMARK 922        TOTAL FREE ENERGY PREDICTED BY IDOCK:   -3.85 KCAL/MOL
REMARK 923 INTER-LIGAND FREE ENERGY PREDICTED BY IDOCK:   -3.52 KCAL/MOL
REMARK 924 INTRA-LIGAND FREE ENERGY PREDICTED BY IDOCK:   -0.32 KCAL/MOL
REMARK 927      BINDING AFFINITY PREDICTED BY RF-SCORE:    0.00 PKD
ROOT
HETATM    1  C   UNL     1      -8.217   6.504  64.973  1.00  0.00    -0.115 C  
HETATM    2  C   UNL     1      -9.012   6.261  66.232  1.00  0.00    -0.155 C  
HETATM    3  C   UNL     1      -9.521   7.194  67.072  1.00  0.00    -0.155 C  
HETATM    4  S   UNL     1     -10.574   6.722  68.385  1.00  0.00    -0.233 SA 
HETATM    5  O   UNL     1      -9.225   4.903  66.357  1.00  0.00    -0.128 OA 
HETATM    6  C   UNL     1      -9.384   4.284  67.624  1.00  0.00    -0.161 C  
HETATM    7  C   UNL     1      -9.877   5.116  68.798  1.00  0.00    -0.168 C  
ENDROOT
BRANCH   3   8
HETATM    8  C   UNL     1      -9.358   8.698  66.849  1.00  0.00    -0.170 C  
HETATM    9  N   UNL     1     -10.430   9.321  66.230  1.00  0.00    -0.123 N  
HETATM   10  H   UNL     1     -11.246   8.740  66.036  1.00  0.00     0.000 HD 
HETATM   11  O   UNL     1      -8.359   9.298  67.231  1.00  0.00    -0.123 OA 
BRANCH   9  12
HETATM   12  C   UNL     1     -10.509  10.680  65.839  1.00  0.00    -0.174 A  
HETATM   13  C   UNL     1     -10.869  11.709  66.713  1.00  0.00    -0.322 A  
HETATM   14  C   UNL     1     -10.954  13.033  66.264  1.00  0.00    -0.303 A  
HETATM   15  C   UNL     1     -10.680  13.336  64.935  1.00  0.00    -0.365 A  
HETATM   16  C   UNL     1     -10.300  12.323  64.061  1.00  0.00    -0.423 A  
HETATM   17  C   UNL     1     -10.198  11.001  64.514  1.00  0.00    -0.406 A  
ENDBRANCH   9  12
ENDBRANCH   3   8
TORSDOF 2
ENDMDL
MODEL      132
REMARK 921   NORMALIZED FREE ENERGY PREDICTED BY IDOCK:   -3.25 KCAL/MOL
REMARK 922        TOTAL FREE ENERGY PREDICTED BY IDOCK:   -3.84 KCAL/MOL
REMARK 923 INTER-LIGAND FREE ENERGY PREDICTED BY IDOCK:   -3.72 KCAL/MOL
REMARK 924 INTRA-LIGAND FREE ENERGY PREDICTED BY IDOCK:   -0.13 KCAL/MOL
REMARK 927      BINDING AFFINITY PREDICTED BY RF-SCORE:    0.00 PKD
ROOT
HETATM    1  C   UNL     1     -12.076  11.767  69.526  1.00  0.00    -0.314 C  
HETATM    2  C   UNL     1     -11.048  12.072  68.465  1.00  0.00    -0.244 C  
HETATM    3  C   UNL     1     -10.323  11.180  67.748  1.00  0.00    -0.187 C  
HETATM    4  S   UNL     1      -9.310  11.721  66.429  1.00  0.00    -0.222 SA 
HETATM    5  O   UNL     1     -11.019  13.437  68.266  1.00  0.00    -0.241 OA 
HETATM    6  C   UNL     1      -9.845  14.106  67.831  1.00  0.00    -0.224 C  
HETATM    7  C   UNL     1      -8.795  13.327  67.054  1.00  0.00    -0.212 C  
ENDROOT
BRANCH   3   8
HETATM    8  C   UNL     1     -10.454   9.666  67.916  1.00  0.00    -0.246 C  
HETATM    9  N   UNL     1     -10.134   9.184  69.175  1.00  0.00    -0.188 N  
HETATM   10  H   UNL     1      -9.902   9.879  69.885  1.00  0.00     0.000 HD 
HETATM   11  O   UNL     1     -10.849   8.952  67.001  1.00  0.00    -0.190 OA 
BRANCH   9  12
HETATM   12  C   UNL     1     -10.096   7.826  69.578  1.00  0.00    -0.194 A  
HETATM   13  C   UNL     1      -9.088   6.940  69.190  1.00  0.00    -0.136 A  
HETATM   14  C   UNL     1      -9.115   5.601  69.599  1.00  0.00    -0.148 A  
HETATM   15  C   UNL     1     -10.153   5.138  70.400  1.00  0.00    -0.333 A  
HETATM   16  C   UNL     1     -11.151   6.017  70.810  1.00  0.00    -0.355 A  
HETATM   17  C   UNL     1     -11.114   7.361  70.415  1.00  0.00    -0.284 A  
ENDBRANCH   9  12
ENDBRANCH   3   8
TORSDOF 2
ENDMDL
MODEL      133
REMARK 921   NORMALIZED FREE ENERGY PREDICTED BY IDOCK:   -3.24 KCAL/MOL
REMARK 922        TOTAL FREE ENERGY PREDICTED BY IDOCK:   -3.84 KCAL/MOL
REMARK 923 INTER-LIGAND FREE ENERGY PREDICTED BY IDOCK:   -3.52 KCAL/MOL
REMARK 924 INTRA-LIGAND FREE ENERGY PREDICTED BY IDOCK:   -0.31 KCAL/MOL
REMARK 927      BINDING AFFINITY PREDICTED BY RF-SCORE:    0.00 PKD
ROOT
HETATM    1  C   UNL     1     -11.535   6.239  69.807  1.00  0.00    -0.449 C  
HETATM    2  C   UNL     1     -10.199   5.949  69.168  1.00  0.00    -0.215 C  
HETATM    3  C   UNL     1      -9.491   6.762  68.348  1.00  0.00    -0.126 C  
HETATM    4  S   UNL     1      -7.871   6.325  67.854  1.00  0.00    -0.104 SA 
HETATM    5  O   UNL     1      -9.751   4.729  69.631  1.00  0.00    -0.164 OA 
HETATM    6  C   UNL     1      -8.900   3.900  68.854  1.00  0.00    -0.107 C  
HETATM    7  C   UNL     1      -8.027   4.535  67.783  1.00  0.00    -0.088 C  
ENDROOT
BRANCH   3   8
HETATM    8  C   UNL     1      -9.965   8.156  67.937  1.00  0.00    -0.182 C  
HETATM    9  N   UNL     1      -9.750   9.152  68.876  1.00  0.00    -0.159 N  
HETATM   10  H   UNL     1      -9.246   8.882  69.721  1.00  0.00     0.000 HD 
HETATM   11  O   UNL     1     -10.465   8.364  66.837  1.00  0.00    -0.317 OA 
BRANCH   9  12
HETATM   12  C   UNL     1     -10.157  10.506  68.784  1.00  0.00    -0.191 A  
HETATM   13  C   UNL     1     -11.434  10.947  69.140  1.00  0.00    -0.373 A  
HETATM   14  C   UNL     1     -11.788  12.295  69.005  1.00  0.00    -0.358 A  
HETATM   15  C   UNL     1     -10.867  13.212  68.510  1.00  0.00    -0.285 A  
HETATM   16  C   UNL     1      -9.586  12.787  68.173  1.00  0.00    -0.223 A  
HETATM   17  C   UNL     1      -9.226  11.442  68.324  1.00  0.00    -0.183 A  
ENDBRANCH   9  12
ENDBRANCH   3   8
TORSDOF 2
ENDMDL
MODEL      134
REMARK 921   NORMALIZED FREE ENERGY PREDICTED BY IDOCK:   -3.23 KCAL/MOL
REMARK 922        TOTAL FREE ENERGY PREDICTED BY IDOCK:   -3.83 KCAL/MOL
REMARK 923 INTER-LIGAND FREE ENERGY PREDICTED BY IDOCK:   -3.79 KCAL/MOL
REMARK 924 INTRA-LIGAND FREE ENERGY PREDICTED BY IDOCK:   -0.04 KCAL/MOL
REMARK 927      BINDING AFFINITY PREDICTED BY RF-SCORE:    0.00 PKD
ROOT
HETATM    1  C   UNL     1     -11.376  10.589  69.553  1.00  0.00    -0.341 C  
HETATM    2  C   UNL     1     -11.580  11.977  68.997  1.00  0.00    -0.313 C  
HETATM    3  C   UNL     1     -11.302  12.405  67.742  1.00  0.00    -0.299 C  
HETATM    4  S   UNL     1     -11.780  14.006  67.228  1.00  0.00    -0.409 SA 
HETATM    5  O   UNL     1     -12.194  12.748  69.964  1.00  0.00    -0.284 OA 
HETATM    6  C   UNL     1     -12.005  14.153  70.033  1.00  0.00    -0.340 C  
HETATM    7  C   UNL     1     -11.606  14.908  68.775  1.00  0.00    -0.323 C  
ENDROOT
BRANCH   3   8
HETATM    8  C   UNL     1     -10.719  11.498  66.658  1.00  0.00    -0.268 C  
HETATM    9  N   UNL     1      -9.567  10.818  67.017  1.00  0.00    -0.168 N  
HETATM   10  H   UNL     1      -9.249  10.933  67.979  1.00  0.00     0.000 HD 
HETATM   11  O   UNL     1     -11.268  11.368  65.569  1.00  0.00    -0.199 OA 
BRANCH   9  12
HETATM   12  C   UNL     1      -8.785   9.978  66.185  1.00  0.00    -0.140 A  
HETATM   13  C   UNL     1      -7.726  10.446  65.403  1.00  0.00    -0.136 A  
HETATM   14  C   UNL     1      -7.004   9.573  64.581  1.00  0.00    -0.102 A  
HETATM   15  C   UNL     1      -7.337   8.223  64.534  1.00  0.00    -0.091 A  
HETATM   16  C   UNL     1      -8.376   7.743  65.324  1.00  0.00    -0.128 A  
HETATM   17  C   UNL     1      -9.088   8.613  66.160  1.00  0.00    -0.250 A  
ENDBRANCH   9  12
ENDBRANCH   3   8
TORSDOF 2
ENDMDL
MODEL      135
REMARK 921   NORMALIZED FREE ENERGY PREDICTED BY IDOCK:   -3.21 KCAL/MOL
REMARK 922        TOTAL FREE ENERGY PREDICTED BY IDOCK:   -3.81 KCAL/MOL
REMARK 923 INTER-LIGAND FREE ENERGY PREDICTED BY IDOCK:   -4.09 KCAL/MOL
REMARK 924 INTRA-LIGAND FREE ENERGY PREDICTED BY IDOCK:    0.28 KCAL/MOL
REMARK 927      BINDING AFFINITY PREDICTED BY RF-SCORE:    0.00 PKD
ROOT
HETATM    1  C   UNL     1     -11.181   9.427  71.242  1.00  0.00    -0.437 C  
HETATM    2  C   UNL     1     -11.584  10.796  70.752  1.00  0.00    -0.224 C  
HETATM    3  C   UNL     1     -11.166  11.417  69.623  1.00  0.00    -0.230 C  
HETATM    4  S   UNL     1     -11.888  12.931  69.127  1.00  0.00    -0.278 SA 
HETATM    5  O   UNL     1     -12.542  11.300  71.608  1.00  0.00    -0.331 OA 
HETATM    6  C   UNL     1     -12.701  12.695  71.815  1.00  0.00    -0.137 C  
HETATM    7  C   UNL     1     -12.243  13.661  70.733  1.00  0.00    -0.347 C  
ENDROOT
BRANCH   3   8
HETATM    8  C   UNL     1     -10.183  10.788  68.636  1.00  0.00    -0.185 C  
HETATM    9  N   UNL     1     -10.603  10.772  67.315  1.00  0.00    -0.241 N  
HETATM   10  H   UNL     1     -11.491  11.231  67.113  1.00  0.00     0.000 HD 
HETATM   11  O   UNL     1      -9.091  10.365  69.001  1.00  0.00    -0.169 OA 
BRANCH   9  12
HETATM   12  C   UNL     1      -9.926  10.185  66.218  1.00  0.00    -0.242 A  
HETATM   13  C   UNL     1      -9.010   9.139  66.354  1.00  0.00    -0.182 A  
HETATM   14  C   UNL     1      -8.352   8.613  65.235  1.00  0.00    -0.177 A  
HETATM   15  C   UNL     1      -8.606   9.133  63.970  1.00  0.00    -0.186 A  
HETATM   16  C   UNL     1      -9.532  10.160  63.820  1.00  0.00    -0.330 A  
HETATM   17  C   UNL     1     -10.203  10.674  64.938  1.00  0.00    -0.395 A  
ENDBRANCH   9  12
ENDBRANCH   3   8
TORSDOF 2
ENDMDL
MODEL      136
REMARK 921   NORMALIZED FREE ENERGY PREDICTED BY IDOCK:   -3.21 KCAL/MOL
REMARK 922        TOTAL FREE ENERGY PREDICTED BY IDOCK:   -3.80 KCAL/MOL
REMARK 923 INTER-LIGAND FREE ENERGY PREDICTED BY IDOCK:   -4.26 KCAL/MOL
REMARK 924 INTRA-LIGAND FREE ENERGY PREDICTED BY IDOCK:    0.46 KCAL/MOL
REMARK 927      BINDING AFFINITY PREDICTED BY RF-SCORE:    0.00 PKD
ROOT
HETATM    1  C   UNL     1     -10.937  15.478  67.985  1.00  0.00    -0.311 C  
HETATM    2  C   UNL     1     -11.133  14.197  68.759  1.00  0.00    -0.262 C  
HETATM    3  C   UNL     1     -10.887  12.936  68.330  1.00  0.00    -0.242 C  
HETATM    4  S   UNL     1     -11.001  11.587  69.437  1.00  0.00    -0.125 SA 
HETATM    5  O   UNL     1     -11.527  14.519  70.042  1.00  0.00    -0.261 OA 
HETATM    6  C   UNL     1     -12.337  13.648  70.817  1.00  0.00    -0.371 C  
HETATM    7  C   UNL     1     -12.327  12.159  70.509  1.00  0.00    -0.272 C  
ENDROOT
BRANCH   3   8
HETATM    8  C   UNL     1     -10.348  12.616  66.935  1.00  0.00    -0.233 C  
HETATM    9  N   UNL     1     -10.328  11.270  66.606  1.00  0.00    -0.229 N  
HETATM   10  H   UNL     1     -10.727  10.627  67.289  1.00  0.00     0.000 HD 
HETATM   11  O   UNL     1      -9.996  13.504  66.166  1.00  0.00    -0.292 OA 
BRANCH   9  12
HETATM   12  C   UNL     1      -9.812  10.697  65.418  1.00  0.00    -0.267 A  
HETATM   13  C   UNL     1     -10.128  11.166  64.141  1.00  0.00    -0.388 A  
HETATM   14  C   UNL     1      -9.606  10.543  63.000  1.00  0.00    -0.369 A  
HETATM   15  C   UNL     1      -8.763   9.445  63.130  1.00  0.00    -0.222 A  
HETATM   16  C   UNL     1      -8.424   8.983  64.397  1.00  0.00    -0.190 A  
HETATM   17  C   UNL     1      -8.933   9.616  65.539  1.00  0.00    -0.223 A  
ENDBRANCH   9  12
ENDBRANCH   3   8
TORSDOF 2
ENDMDL
MODEL      137
REMARK 921   NORMALIZED FREE ENERGY PREDICTED BY IDOCK:   -3.18 KCAL/MOL
REMARK 922        TOTAL FREE ENERGY PREDICTED BY IDOCK:   -3.77 KCAL/MOL
REMARK 923 INTER-LIGAND FREE ENERGY PREDICTED BY IDOCK:   -3.47 KCAL/MOL
REMARK 924 INTRA-LIGAND FREE ENERGY PREDICTED BY IDOCK:   -0.30 KCAL/MOL
REMARK 927      BINDING AFFINITY PREDICTED BY RF-SCORE:    0.00 PKD
ROOT
HETATM    1  C   UNL     1     -11.751  12.356  64.901  1.00  0.00    -0.418 C  
HETATM    2  C   UNL     1     -10.934  13.576  65.246  1.00  0.00    -0.295 C  
HETATM    3  C   UNL     1      -9.869  13.639  66.081  1.00  0.00    -0.293 C  
HETATM    4  S   UNL     1      -8.934  15.111  66.212  1.00  0.00    -0.155 SA 
HETATM    5  O   UNL     1     -11.394  14.635  64.490  1.00  0.00    -0.367 OA 
HETATM    6  C   UNL     1     -11.297  15.977  64.944  1.00  0.00    -0.229 C  
HETATM    7  C   UNL     1     -10.226  16.338  65.961  1.00  0.00    -0.358 C  
ENDROOT
BRANCH   3   8
HETATM    8  C   UNL     1      -9.315  12.424  66.825  1.00  0.00    -0.220 C  
HETATM    9  N   UNL     1      -8.556  11.558  66.054  1.00  0.00    -0.349 N  
HETATM   10  H   UNL     1      -8.386  11.836  65.087  1.00  0.00     0.000 HD 
HETATM   11  O   UNL     1      -9.510  12.264  68.025  1.00  0.00    -0.193 OA 
BRANCH   9  12
HETATM   12  C   UNL     1      -7.993  10.326  66.470  1.00  0.00    -0.118 A  
HETATM   13  C   UNL     1      -6.702  10.211  66.991  1.00  0.00    -0.078 A  
HETATM   14  C   UNL     1      -6.189   8.963  67.364  1.00  0.00    -0.055 A  
HETATM   15  C   UNL     1      -6.965   7.819  67.217  1.00  0.00    -0.078 A  
HETATM   16  C   UNL     1      -8.260   7.924  66.719  1.00  0.00    -0.116 A  
HETATM   17  C   UNL     1      -8.779   9.175  66.362  1.00  0.00    -0.147 A  
ENDBRANCH   9  12
ENDBRANCH   3   8
TORSDOF 2
ENDMDL
MODEL      138
REMARK 921   NORMALIZED FREE ENERGY PREDICTED BY IDOCK:   -3.17 KCAL/MOL
REMARK 922        TOTAL FREE ENERGY PREDICTED BY IDOCK:   -3.76 KCAL/MOL
REMARK 923 INTER-LIGAND FREE ENERGY PREDICTED BY IDOCK:   -3.43 KCAL/MOL
REMARK 924 INTRA-LIGAND FREE ENERGY PREDICTED BY IDOCK:   -0.33 KCAL/MOL
REMARK 927      BINDING AFFINITY PREDICTED BY RF-SCORE:    0.00 PKD
ROOT
HETATM    1  C   UNL     1      -8.274   8.263  66.139  1.00  0.00    -0.119 C  
HETATM    2  C   UNL     1      -8.626   6.806  65.966  1.00  0.00    -0.145 C  
HETATM    3  C   UNL     1      -9.118   5.965  66.907  1.00  0.00    -0.120 C  
HETATM    4  S   UNL     1      -9.640   4.355  66.469  1.00  0.00    -0.213 SA 
HETATM    5  O   UNL     1      -8.450   6.470  64.639  1.00  0.00    -0.044 OA 
HETATM    6  C   UNL     1      -8.113   5.150  64.239  1.00  0.00    -0.125 C  
HETATM    7  C   UNL     1      -8.477   3.986  65.147  1.00  0.00    -0.113 C  
ENDROOT
BRANCH   3   8
HETATM    8  C   UNL     1      -9.404   6.395  68.346  1.00  0.00    -0.121 C  
HETATM    9  N   UNL     1     -10.667   6.922  68.563  1.00  0.00    -0.298 N  
HETATM   10  H   UNL     1     -11.306   6.919  67.768  1.00  0.00     0.000 HD 
HETATM   11  O   UNL     1      -8.575   6.243  69.237  1.00  0.00    -0.123 OA 
BRANCH   9  12
HETATM   12  C   UNL     1     -11.163   7.463  69.776  1.00  0.00    -0.091 A  
HETATM   13  C   UNL     1     -10.931   8.781  70.176  1.00  0.00    -0.236 A  
HETATM   14  C   UNL     1     -11.426   9.255  71.398  1.00  0.00    -0.439 A  
HETATM   15  C   UNL     1     -12.156   8.411  72.228  1.00  0.00    -0.456 A  
HETATM   16  C   UNL     1     -12.410   7.103  71.829  1.00  0.00    -0.385 A  
HETATM   17  C   UNL     1     -11.930   6.634  70.599  1.00  0.00    -0.404 A  
ENDBRANCH   9  12
ENDBRANCH   3   8
TORSDOF 2
ENDMDL
MODEL      139
REMARK 921   NORMALIZED FREE ENERGY PREDICTED BY IDOCK:   -3.16 KCAL/MOL
REMARK 922        TOTAL FREE ENERGY PREDICTED BY IDOCK:   -3.74 KCAL/MOL
REMARK 923 INTER-LIGAND FREE ENERGY PREDICTED BY IDOCK:   -3.41 KCAL/MOL
REMARK 924 INTRA-LIGAND FREE ENERGY PREDICTED BY IDOCK:   -0.33 KCAL/MOL
REMARK 927      BINDING AFFINITY PREDICTED BY RF-SCORE:    0.00 PKD
ROOT
HETATM    1  C   UNL     1     -10.829   9.203  69.079  1.00  0.00    -0.115 C  
HETATM    2  C   UNL     1     -10.607   9.892  67.755  1.00  0.00    -0.261 C  
HETATM    3  C   UNL     1      -9.868   9.442  66.712  1.00  0.00    -0.218 C  
HETATM    4  S   UNL     1      -9.879  10.297  65.187  1.00  0.00    -0.327 SA 
HETATM    5  O   UNL     1     -11.367  11.044  67.730  1.00  0.00    -0.314 OA 
HETATM    6  C   UNL     1     -10.980  12.179  66.971  1.00  0.00    -0.271 C  
HETATM    7  C   UNL     1     -10.073  11.989  65.765  1.00  0.00    -0.238 C  
ENDROOT
BRANCH   3   8
HETATM    8  C   UNL     1      -9.122   8.108  66.729  1.00  0.00    -0.157 C  
HETATM    9  N   UNL     1      -9.849   7.021  66.270  1.00  0.00    -0.419 N  
HETATM   10  H   UNL     1     -10.784   7.216  65.910  1.00  0.00     0.000 HD 
HETATM   11  O   UNL     1      -7.953   8.032  67.091  1.00  0.00    -0.109 OA 
BRANCH   9  12
HETATM   12  C   UNL     1      -9.429   5.668  66.250  1.00  0.00    -0.155 A  
HETATM   13  C   UNL     1      -8.652   5.123  65.226  1.00  0.00    -0.148 A  
HETATM   14  C   UNL     1      -8.285   3.771  65.247  1.00  0.00    -0.097 A  
HETATM   15  C   UNL     1      -8.696   2.955  66.295  1.00  0.00    -0.134 A  
HETATM   16  C   UNL     1      -9.451   3.492  67.332  1.00  0.00    -0.234 A  
HETATM   17  C   UNL     1      -9.803   4.848  67.319  1.00  0.00    -0.214 A  
ENDBRANCH   9  12
ENDBRANCH   3   8
TORSDOF 2
ENDMDL
MODEL      140
REMARK 921   NORMALIZED FREE ENERGY PREDICTED BY IDOCK:   -3.15 KCAL/MOL
REMARK 922        TOTAL FREE ENERGY PREDICTED BY IDOCK:   -3.74 KCAL/MOL
REMARK 923 INTER-LIGAND FREE ENERGY PREDICTED BY IDOCK:   -3.45 KCAL/MOL
REMARK 924 INTRA-LIGAND FREE ENERGY PREDICTED BY IDOCK:   -0.28 KCAL/MOL
REMARK 927      BINDING AFFINITY PREDICTED BY RF-SCORE:    0.00 PKD
ROOT
HETATM    1  C   UNL     1     -10.368  11.470  65.832  1.00  0.00    -0.293 C  
HETATM    2  C   UNL     1      -9.336  10.436  65.457  1.00  0.00    -0.197 C  
HETATM    3  C   UNL     1      -9.054   9.286  66.114  1.00  0.00    -0.179 C  
HETATM    4  S   UNL     1      -7.948   8.121  65.423  1.00  0.00    -0.134 SA 
HETATM    5  O   UNL     1      -8.765  10.806  64.256  1.00  0.00    -0.161 OA 
HETATM    6  C   UNL     1      -7.434  10.447  63.918  1.00  0.00    -0.004 C  
HETATM    7  C   UNL     1      -6.811   9.222  64.568  1.00  0.00    -0.089 C  
ENDROOT
BRANCH   3   8
HETATM    8  C   UNL     1      -9.779   8.849  67.387  1.00  0.00    -0.176 C  
HETATM    9  N   UNL     1      -9.292   9.401  68.561  1.00  0.00    -0.137 N  
HETATM   10  H   UNL     1      -8.543  10.088  68.467  1.00  0.00     0.000 HD 
HETATM   11  O   UNL     1     -10.743   8.092  67.348  1.00  0.00    -0.269 OA 
BRANCH   9  12
HETATM   12  C   UNL     1      -9.727   9.111  69.878  1.00  0.00    -0.191 A  
HETATM   13  C   UNL     1      -9.040   8.252  70.740  1.00  0.00    -0.168 A  
HETATM   14  C   UNL     1      -9.530   7.984  72.023  1.00  0.00    -0.257 A  
HETATM   15  C   UNL     1     -10.714   8.572  72.454  1.00  0.00    -0.376 A  
HETATM   16  C   UNL     1     -11.395   9.445  71.612  1.00  0.00    -0.452 A  
HETATM   17  C   UNL     1     -10.895   9.728  70.334  1.00  0.00    -0.370 A  
ENDBRANCH   9  12
ENDBRANCH   3   8
TORSDOF 2
ENDMDL
MODEL      141
REMARK 921   NORMALIZED FREE ENERGY PREDICTED BY IDOCK:   -3.04 KCAL/MOL
REMARK 922        TOTAL FREE ENERGY PREDICTED BY IDOCK:   -3.61 KCAL/MOL
REMARK 923 INTER-LIGAND FREE ENERGY PREDICTED BY IDOCK:   -3.45 KCAL/MOL
REMARK 924 INTRA-LIGAND FREE ENERGY PREDICTED BY IDOCK:   -0.16 KCAL/MOL
REMARK 927      BINDING AFFINITY PREDICTED BY RF-SCORE:    0.00 PKD
ROOT
HETATM    1  C   UNL     1      -8.703   4.165  66.827  1.00  0.00    -0.114 C  
HETATM    2  C   UNL     1      -8.374   5.391  66.011  1.00  0.00    -0.120 C  
HETATM    3  C   UNL     1      -8.907   6.629  66.142  1.00  0.00    -0.149 C  
HETATM    4  S   UNL     1      -8.264   7.971  65.224  1.00  0.00    -0.141 SA 
HETATM    5  O   UNL     1      -7.352   5.072  65.140  1.00  0.00    -0.069 OA 
HETATM    6  C   UNL     1      -7.202   5.728  63.890  1.00  0.00    -0.055 C  
HETATM    7  C   UNL     1      -7.777   7.125  63.713  1.00  0.00    -0.119 C  
ENDROOT
BRANCH   3   8
HETATM    8  C   UNL     1      -9.965   6.978  67.190  1.00  0.00    -0.189 C  
HETATM    9  N   UNL     1      -9.478   7.198  68.468  1.00  0.00    -0.139 N  
HETATM   10  H   UNL     1      -8.464   7.168  68.582  1.00  0.00     0.000 HD 
HETATM   11  O   UNL     1     -11.150   7.086  66.892  1.00  0.00    -0.359 OA 
BRANCH   9  12
HETATM   12  C   UNL     1     -10.242   7.460  69.632  1.00  0.00    -0.210 A  
HETATM   13  C   UNL     1     -10.124   8.636  70.377  1.00  0.00    -0.213 A  
HETATM   14  C   UNL     1     -10.888   8.830  71.534  1.00  0.00    -0.374 A  
HETATM   15  C   UNL     1     -11.777   7.847  71.955  1.00  0.00    -0.342 A  
HETATM   16  C   UNL     1     -11.919   6.681  71.208  1.00  0.00    -0.409 A  
HETATM   17  C   UNL     1     -11.167   6.495  70.041  1.00  0.00    -0.453 A  
ENDBRANCH   9  12
ENDBRANCH   3   8
TORSDOF 2
ENDMDL
MODEL      142
REMARK 921   NORMALIZED FREE ENERGY PREDICTED BY IDOCK:   -3.02 KCAL/MOL
REMARK 922        TOTAL FREE ENERGY PREDICTED BY IDOCK:   -3.60 KCAL/MOL
REMARK 923 INTER-LIGAND FREE ENERGY PREDICTED BY IDOCK:   -3.51 KCAL/MOL
REMARK 924 INTRA-LIGAND FREE ENERGY PREDICTED BY IDOCK:   -0.09 KCAL/MOL
REMARK 927      BINDING AFFINITY PREDICTED BY RF-SCORE:    0.00 PKD
ROOT
HETATM    1  C   UNL     1      -8.953   8.281  72.804  1.00  0.00    -0.323 C  
HETATM    2  C   UNL     1      -9.165   8.351  71.312  1.00  0.00    -0.178 C  
HETATM    3  C   UNL     1      -9.853   7.475  70.541  1.00  0.00    -0.183 C  
HETATM    4  S   UNL     1     -10.146   7.823  68.853  1.00  0.00    -0.199 SA 
HETATM    5  O   UNL     1      -8.609   9.526  70.848  1.00  0.00    -0.259 OA 
HETATM    6  C   UNL     1      -8.104   9.644  69.526  1.00  0.00    -0.129 C  
HETATM    7  C   UNL     1      -8.644   8.724  68.443  1.00  0.00    -0.134 C  
ENDROOT
BRANCH   3   8
HETATM    8  C   UNL     1     -10.551   6.235  71.101  1.00  0.00    -0.239 C  
HETATM    9  N   UNL     1      -9.703   5.254  71.590  1.00  0.00    -0.155 N  
HETATM   10  H   UNL     1      -8.706   5.469  71.590  1.00  0.00     0.000 HD 
HETATM   11  O   UNL     1     -11.773   6.150  71.139  1.00  0.00    -0.282 OA 
BRANCH   9  12
HETATM   12  C   UNL     1     -10.079   3.983  72.092  1.00  0.00    -0.163 A  
HETATM   13  C   UNL     1      -9.765   2.783  71.449  1.00  0.00    -0.218 A  
HETATM   14  C   UNL     1     -10.184   1.557  71.979  1.00  0.00    -0.223 A  
HETATM   15  C   UNL     1     -10.923   1.522  73.157  1.00  0.00    -0.246 A  
HETATM   16  C   UNL     1     -11.223   2.710  73.816  1.00  0.00    -0.284 A  
HETATM   17  C   UNL     1     -10.789   3.936  73.295  1.00  0.00    -0.297 A  
ENDBRANCH   9  12
ENDBRANCH   3   8
TORSDOF 2
ENDMDL
MODEL      143
REMARK 921   NORMALIZED FREE ENERGY PREDICTED BY IDOCK:   -3.02 KCAL/MOL
REMARK 922        TOTAL FREE ENERGY PREDICTED BY IDOCK:   -3.59 KCAL/MOL
REMARK 923 INTER-LIGAND FREE ENERGY PREDICTED BY IDOCK:   -3.27 KCAL/MOL
REMARK 924 INTRA-LIGAND FREE ENERGY PREDICTED BY IDOCK:   -0.32 KCAL/MOL
REMARK 927      BINDING AFFINITY PREDICTED BY RF-SCORE:    0.00 PKD
ROOT
HETATM    1  C   UNL     1     -10.719  11.134  63.932  1.00  0.00    -0.407 C  
HETATM    2  C   UNL     1     -10.512  11.974  65.168  1.00  0.00    -0.289 C  
HETATM    3  C   UNL     1      -9.748  11.671  66.245  1.00  0.00    -0.218 C  
HETATM    4  S   UNL     1      -9.485  12.856  67.503  1.00  0.00    -0.206 SA 
HETATM    5  O   UNL     1     -11.170  13.174  64.994  1.00  0.00    -0.290 OA 
HETATM    6  C   UNL     1     -11.682  13.914  66.092  1.00  0.00    -0.376 C  
HETATM    7  C   UNL     1     -11.061  13.722  67.467  1.00  0.00    -0.278 C  
ENDROOT
BRANCH   3   8
HETATM    8  C   UNL     1      -8.944  10.376  66.363  1.00  0.00    -0.149 C  
HETATM    9  N   UNL     1      -9.636   9.300  66.895  1.00  0.00    -0.163 N  
HETATM   10  H   UNL     1     -10.625   9.448  67.099  1.00  0.00     0.000 HD 
HETATM   11  O   UNL     1      -7.782  10.306  65.977  1.00  0.00    -0.118 OA 
BRANCH   9  12
HETATM   12  C   UNL     1      -9.113   8.015  67.183  1.00  0.00    -0.137 A  
HETATM   13  C   UNL     1      -9.010   6.999  66.230  1.00  0.00    -0.175 A  
HETATM   14  C   UNL     1      -8.506   5.740  66.578  1.00  0.00    -0.116 A  
HETATM   15  C   UNL     1      -8.102   5.488  67.884  1.00  0.00    -0.100 A  
HETATM   16  C   UNL     1      -8.180   6.499  68.836  1.00  0.00    -0.119 A  
HETATM   17  C   UNL     1      -8.668   7.764  68.484  1.00  0.00    -0.128 A  
ENDBRANCH   9  12
ENDBRANCH   3   8
TORSDOF 2
ENDMDL
MODEL      144
REMARK 921   NORMALIZED FREE ENERGY PREDICTED BY IDOCK:   -3.01 KCAL/MOL
REMARK 922        TOTAL FREE ENERGY PREDICTED BY IDOCK:   -3.57 KCAL/MOL
REMARK 923 INTER-LIGAND FREE ENERGY PREDICTED BY IDOCK:   -4.00 KCAL/MOL
REMARK 924 INTRA-LIGAND FREE ENERGY PREDICTED BY IDOCK:    0.42 KCAL/MOL
REMARK 927      BINDING AFFINITY PREDICTED BY RF-SCORE:    0.00 PKD
ROOT
HETATM    1  C   UNL     1     -11.827  10.894  68.474  1.00  0.00    -0.236 C  
HETATM    2  C   UNL     1     -10.496  11.571  68.259  1.00  0.00    -0.197 C  
HETATM    3  C   UNL     1      -9.299  11.205  68.775  1.00  0.00    -0.149 C  
HETATM    4  S   UNL     1      -7.832  12.007  68.263  1.00  0.00    -0.151 SA 
HETATM    5  O   UNL     1     -10.672  12.601  67.358  1.00  0.00    -0.225 OA 
HETATM    6  C   UNL     1      -9.852  13.759  67.375  1.00  0.00    -0.238 C  
HETATM    7  C   UNL     1      -8.457  13.669  67.974  1.00  0.00    -0.174 C  
ENDROOT
BRANCH   3   8
HETATM    8  C   UNL     1      -9.116   9.992  69.689  1.00  0.00    -0.210 C  
HETATM    9  N   UNL     1     -10.015   9.906  70.740  1.00  0.00    -0.333 N  
HETATM   10  H   UNL     1     -10.746  10.616  70.775  1.00  0.00     0.000 HD 
HETATM   11  O   UNL     1      -8.254   9.148  69.469  1.00  0.00    -0.109 OA 
BRANCH   9  12
HETATM   12  C   UNL     1     -10.022   8.934  71.771  1.00  0.00    -0.327 A  
HETATM   13  C   UNL     1     -11.192   8.363  72.276  1.00  0.00    -0.446 A  
HETATM   14  C   UNL     1     -11.140   7.423  73.313  1.00  0.00    -0.303 A  
HETATM   15  C   UNL     1      -9.914   7.048  73.853  1.00  0.00    -0.370 A  
HETATM   16  C   UNL     1      -8.741   7.594  73.342  1.00  0.00    -0.253 A  
HETATM   17  C   UNL     1      -8.792   8.522  72.293  1.00  0.00    -0.279 A  
ENDBRANCH   9  12
ENDBRANCH   3   8
TORSDOF 2
ENDMDL
MODEL      145
REMARK 921   NORMALIZED FREE ENERGY PREDICTED BY IDOCK:   -2.99 KCAL/MOL
REMARK 922        TOTAL FREE ENERGY PREDICTED BY IDOCK:   -3.56 KCAL/MOL
REMARK 923 INTER-LIGAND FREE ENERGY PREDICTED BY IDOCK:   -4.05 KCAL/MOL
REMARK 924 INTRA-LIGAND FREE ENERGY PREDICTED BY IDOCK:    0.49 KCAL/MOL
REMARK 927      BINDING AFFINITY PREDICTED BY RF-SCORE:    0.00 PKD
ROOT
HETATM    1  C   UNL     1     -10.094   8.158  68.509  1.00  0.00    -0.220 C  
HETATM    2  C   UNL     1     -10.825   8.321  69.818  1.00  0.00    -0.185 C  
HETATM    3  C   UNL     1     -11.295   9.472  70.356  1.00  0.00    -0.264 C  
HETATM    4  S   UNL     1     -12.282   9.436  71.799  1.00  0.00    -0.387 SA 
HETATM    5  O   UNL     1     -11.027   7.069  70.363  1.00  0.00    -0.247 OA 
HETATM    6  C   UNL     1     -11.122   6.868  71.765  1.00  0.00    -0.244 C  
HETATM    7  C   UNL     1     -11.559   8.025  72.649  1.00  0.00    -0.387 C  
ENDROOT
BRANCH   3   8
HETATM    8  C   UNL     1     -11.149  10.834  69.676  1.00  0.00    -0.279 C  
HETATM    9  N   UNL     1     -10.134  10.917  68.737  1.00  0.00    -0.187 N  
HETATM   10  H   UNL     1      -9.622  10.058  68.540  1.00  0.00     0.000 HD 
HETATM   11  O   UNL     1     -11.909  11.762  69.932  1.00  0.00    -0.313 OA 
BRANCH   9  12
HETATM   12  C   UNL     1      -9.735  12.074  68.022  1.00  0.00    -0.198 A  
HETATM   13  C   UNL     1      -8.529  12.739  68.253  1.00  0.00    -0.161 A  
HETATM   14  C   UNL     1      -8.198  13.892  67.531  1.00  0.00    -0.196 A  
HETATM   15  C   UNL     1      -9.074  14.389  66.572  1.00  0.00    -0.233 A  
HETATM   16  C   UNL     1     -10.268  13.723  66.318  1.00  0.00    -0.298 A  
HETATM   17  C   UNL     1     -10.591  12.559  67.028  1.00  0.00    -0.251 A  
ENDBRANCH   9  12
ENDBRANCH   3   8
TORSDOF 2
ENDMDL
MODEL      146
REMARK 921   NORMALIZED FREE ENERGY PREDICTED BY IDOCK:   -2.99 KCAL/MOL
REMARK 922        TOTAL FREE ENERGY PREDICTED BY IDOCK:   -3.55 KCAL/MOL
REMARK 923 INTER-LIGAND FREE ENERGY PREDICTED BY IDOCK:   -3.24 KCAL/MOL
REMARK 924 INTRA-LIGAND FREE ENERGY PREDICTED BY IDOCK:   -0.32 KCAL/MOL
REMARK 927      BINDING AFFINITY PREDICTED BY RF-SCORE:    0.00 PKD
ROOT
HETATM    1  C   UNL     1     -10.592   7.030  70.937  1.00  0.00    -0.238 C  
HETATM    2  C   UNL     1     -10.674   8.126  69.903  1.00  0.00    -0.241 C  
HETATM    3  C   UNL     1     -10.180   8.101  68.642  1.00  0.00    -0.207 C  
HETATM    4  S   UNL     1     -10.535   9.400  67.527  1.00  0.00    -0.274 SA 
HETATM    5  O   UNL     1     -11.429   9.158  70.422  1.00  0.00    -0.259 OA 
HETATM    6  C   UNL     1     -11.230  10.506  70.024  1.00  0.00    -0.315 C  
HETATM    7  C   UNL     1     -10.610  10.791  68.664  1.00  0.00    -0.199 C  
ENDROOT
BRANCH   3   8
HETATM    8  C   UNL     1      -9.438   6.899  68.058  1.00  0.00    -0.124 C  
HETATM    9  N   UNL     1     -10.248   5.911  67.521  1.00  0.00    -0.168 N  
HETATM   10  H   UNL     1     -11.251   6.099  67.508  1.00  0.00     0.000 HD 
HETATM   11  O   UNL     1      -8.213   6.848  68.043  1.00  0.00    -0.114 OA 
BRANCH   9  12
HETATM   12  C   UNL     1      -9.827   4.667  66.988  1.00  0.00    -0.205 A  
HETATM   13  C   UNL     1      -9.458   3.580  67.783  1.00  0.00    -0.230 A  
HETATM   14  C   UNL     1      -9.027   2.381  67.200  1.00  0.00    -0.169 A  
HETATM   15  C   UNL     1      -8.962   2.263  65.816  1.00  0.00    -0.117 A  
HETATM   16  C   UNL     1      -9.349   3.333  65.015  1.00  0.00    -0.150 A  
HETATM   17  C   UNL     1      -9.796   4.526  65.598  1.00  0.00    -0.227 A  
ENDBRANCH   9  12
ENDBRANCH   3   8
TORSDOF 2
ENDMDL
MODEL      147
REMARK 921   NORMALIZED FREE ENERGY PREDICTED BY IDOCK:   -2.97 KCAL/MOL
REMARK 922        TOTAL FREE ENERGY PREDICTED BY IDOCK:   -3.53 KCAL/MOL
REMARK 923 INTER-LIGAND FREE ENERGY PREDICTED BY IDOCK:   -3.29 KCAL/MOL
REMARK 924 INTRA-LIGAND FREE ENERGY PREDICTED BY IDOCK:   -0.24 KCAL/MOL
REMARK 927      BINDING AFFINITY PREDICTED BY RF-SCORE:    0.00 PKD
ROOT
HETATM    1  C   UNL     1      -7.689   7.888  64.359  1.00  0.00    -0.123 C  
HETATM    2  C   UNL     1      -8.488   6.887  65.156  1.00  0.00    -0.021 C  
HETATM    3  C   UNL     1      -9.229   7.126  66.264  1.00  0.00    -0.127 C  
HETATM    4  S   UNL     1     -10.236   5.869  66.943  1.00  0.00    -0.240 SA 
HETATM    5  O   UNL     1      -8.420   5.667  64.514  1.00  0.00    -0.135 OA 
HETATM    6  C   UNL     1      -8.521   4.441  65.223  1.00  0.00    -0.121 C  
HETATM    7  C   UNL     1      -9.245   4.418  66.561  1.00  0.00    -0.142 C  
ENDROOT
BRANCH   3   8
HETATM    8  C   UNL     1      -9.372   8.513  66.892  1.00  0.00    -0.172 C  
HETATM    9  N   UNL     1     -10.587   9.139  66.668  1.00  0.00    -0.155 N  
HETATM   10  H   UNL     1     -11.292   8.601  66.163  1.00  0.00     0.000 HD 
HETATM   11  O   UNL     1      -8.477   9.003  67.572  1.00  0.00    -0.116 OA 
BRANCH   9  12
HETATM   12  C   UNL     1     -10.952  10.448  67.068  1.00  0.00    -0.154 A  
HETATM   13  C   UNL     1     -11.015  11.529  66.185  1.00  0.00    -0.320 A  
HETATM   14  C   UNL     1     -11.359  12.807  66.642  1.00  0.00    -0.364 A  
HETATM   15  C   UNL     1     -11.642  13.013  67.988  1.00  0.00    -0.383 A  
HETATM   16  C   UNL     1     -11.604  11.940  68.872  1.00  0.00    -0.370 A  
HETATM   17  C   UNL     1     -11.277  10.657  68.412  1.00  0.00    -0.347 A  
ENDBRANCH   9  12
ENDBRANCH   3   8
TORSDOF 2
ENDMDL
MODEL      148
REMARK 921   NORMALIZED FREE ENERGY PREDICTED BY IDOCK:   -2.95 KCAL/MOL
REMARK 922        TOTAL FREE ENERGY PREDICTED BY IDOCK:   -3.52 KCAL/MOL
REMARK 923 INTER-LIGAND FREE ENERGY PREDICTED BY IDOCK:   -3.68 KCAL/MOL
REMARK 924 INTRA-LIGAND FREE ENERGY PREDICTED BY IDOCK:    0.16 KCAL/MOL
REMARK 927      BINDING AFFINITY PREDICTED BY RF-SCORE:    0.00 PKD
ROOT
HETATM    1  C   UNL     1      -6.672   9.395  68.920  1.00  0.00    -0.051 C  
HETATM    2  C   UNL     1      -7.561   9.249  67.710  1.00  0.00    -0.084 C  
HETATM    3  C   UNL     1      -8.877   8.929  67.695  1.00  0.00    -0.134 C  
HETATM    4  S   UNL     1      -9.784   8.988  66.201  1.00  0.00    -0.269 SA 
HETATM    5  O   UNL     1      -6.830   9.588  66.590  1.00  0.00    -0.081 OA 
HETATM    6  C   UNL     1      -7.110   9.029  65.315  1.00  0.00    -0.084 C  
HETATM    7  C   UNL     1      -8.508   8.506  65.028  1.00  0.00    -0.164 C  
ENDROOT
BRANCH   3   8
HETATM    8  C   UNL     1      -9.688   8.661  68.963  1.00  0.00    -0.173 C  
HETATM    9  N   UNL     1     -10.831   9.432  69.104  1.00  0.00    -0.356 N  
HETATM   10  H   UNL     1     -11.059  10.057  68.331  1.00  0.00     0.000 HD 
HETATM   11  O   UNL     1      -9.354   7.798  69.767  1.00  0.00    -0.153 OA 
BRANCH   9  12
HETATM   12  C   UNL     1     -11.715   9.442  70.212  1.00  0.00    -0.083 A  
HETATM   13  C   UNL     1     -12.103   8.285  70.891  1.00  0.00    -0.149 A  
HETATM   14  C   UNL     1     -12.999   8.352  71.965  1.00  0.00    -0.388 A  
HETATM   15  C   UNL     1     -13.514   9.580  72.367  1.00  0.00    -0.475 A  
HETATM   16  C   UNL     1     -13.117  10.741  71.711  1.00  0.00    -0.573 A  
HETATM   17  C   UNL     1     -12.208  10.675  70.647  1.00  0.00    -0.459 A  
ENDBRANCH   9  12
ENDBRANCH   3   8
TORSDOF 2
ENDMDL
MODEL      149
REMARK 921   NORMALIZED FREE ENERGY PREDICTED BY IDOCK:   -2.95 KCAL/MOL
REMARK 922        TOTAL FREE ENERGY PREDICTED BY IDOCK:   -3.51 KCAL/MOL
REMARK 923 INTER-LIGAND FREE ENERGY PREDICTED BY IDOCK:   -3.25 KCAL/MOL
REMARK 924 INTRA-LIGAND FREE ENERGY PREDICTED BY IDOCK:   -0.25 KCAL/MOL
REMARK 927      BINDING AFFINITY PREDICTED BY RF-SCORE:    0.00 PKD
ROOT
HETATM    1  C   UNL     1      -9.455   9.114  66.037  1.00  0.00    -0.321 C  
HETATM    2  C   UNL     1      -8.697   7.832  65.796  1.00  0.00    -0.133 C  
HETATM    3  C   UNL     1      -8.878   6.644  66.422  1.00  0.00    -0.144 C  
HETATM    4  S   UNL     1      -8.027   5.218  65.876  1.00  0.00    -0.107 SA 
HETATM    5  O   UNL     1      -7.825   8.033  64.745  1.00  0.00    -0.116 OA 
HETATM    6  C   UNL     1      -6.607   7.312  64.636  1.00  0.00    -0.043 C  
HETATM    7  C   UNL     1      -6.486   5.956  65.314  1.00  0.00    -0.042 C  
ENDROOT
BRANCH   3   8
HETATM    8  C   UNL     1      -9.928   6.423  67.511  1.00  0.00    -0.136 C  
HETATM    9  N   UNL     1      -9.475   6.598  68.809  1.00  0.00    -0.130 N  
HETATM   10  H   UNL     1      -8.512   6.915  68.919  1.00  0.00     0.000 HD 
HETATM   11  O   UNL     1     -11.090   6.147  67.234  1.00  0.00    -0.333 OA 
BRANCH   9  12
HETATM   12  C   UNL     1     -10.213   6.383  70.000  1.00  0.00    -0.180 A  
HETATM   13  C   UNL     1     -11.278   7.195  70.398  1.00  0.00    -0.320 A  
HETATM   14  C   UNL     1     -11.957   6.948  71.598  1.00  0.00    -0.379 A  
HETATM   15  C   UNL     1     -11.573   5.887  72.410  1.00  0.00    -0.341 A  
HETATM   16  C   UNL     1     -10.528   5.059  72.012  1.00  0.00    -0.269 A  
HETATM   17  C   UNL     1      -9.860   5.295  70.803  1.00  0.00    -0.261 A  
ENDBRANCH   9  12
ENDBRANCH   3   8
TORSDOF 2
ENDMDL
MODEL      150
REMARK 921   NORMALIZED FREE ENERGY PREDICTED BY IDOCK:   -2.93 KCAL/MOL
REMARK 922        TOTAL FREE ENERGY PREDICTED BY IDOCK:   -3.50 KCAL/MOL
REMARK 923 INTER-LIGAND FREE ENERGY PREDICTED BY IDOCK:   -3.64 KCAL/MOL
REMARK 924 INTRA-LIGAND FREE ENERGY PREDICTED BY IDOCK:    0.15 KCAL/MOL
REMARK 927      BINDING AFFINITY PREDICTED BY RF-SCORE:    0.00 PKD
ROOT
HETATM    1  C   UNL     1     -11.718  13.810  65.448  1.00  0.00    -0.346 C  
HETATM    2  C   UNL     1     -10.532  14.098  66.335  1.00  0.00    -0.283 C  
HETATM    3  C   UNL     1      -9.529  13.248  66.663  1.00  0.00    -0.260 C  
HETATM    4  S   UNL     1      -8.141  13.822  67.557  1.00  0.00    -0.186 SA 
HETATM    5  O   UNL     1     -10.576  15.428  66.702  1.00  0.00    -0.296 OA 
HETATM    6  C   UNL     1     -10.024  15.885  67.927  1.00  0.00    -0.221 C  
HETATM    7  C   UNL     1      -8.914  15.079  68.585  1.00  0.00    -0.186 C  
ENDROOT
BRANCH   3   8
HETATM    8  C   UNL     1      -9.452  11.809  66.153  1.00  0.00    -0.226 C  
HETATM    9  N   UNL     1      -9.846  10.840  67.062  1.00  0.00    -0.183 N  
HETATM   10  H   UNL     1     -10.206  11.173  67.957  1.00  0.00     0.000 HD 
HETATM   11  O   UNL     1      -9.098  11.553  65.007  1.00  0.00    -0.096 OA 
BRANCH   9  12
HETATM   12  C   UNL     1      -9.800   9.436  66.877  1.00  0.00    -0.201 A  
HETATM   13  C   UNL     1     -10.765   8.564  67.388  1.00  0.00    -0.215 A  
HETATM   14  C   UNL     1     -10.655   7.182  67.193  1.00  0.00    -0.417 A  
HETATM   15  C   UNL     1      -9.577   6.661  66.486  1.00  0.00    -0.187 A  
HETATM   16  C   UNL     1      -8.622   7.522  65.954  1.00  0.00    -0.165 A  
HETATM   17  C   UNL     1      -8.741   8.906  66.134  1.00  0.00    -0.177 A  
ENDBRANCH   9  12
ENDBRANCH   3   8
TORSDOF 2
ENDMDL
MODEL      151
REMARK 921   NORMALIZED FREE ENERGY PREDICTED BY IDOCK:   -2.90 KCAL/MOL
REMARK 922        TOTAL FREE ENERGY PREDICTED BY IDOCK:   -3.45 KCAL/MOL
REMARK 923 INTER-LIGAND FREE ENERGY PREDICTED BY IDOCK:   -3.29 KCAL/MOL
REMARK 924 INTRA-LIGAND FREE ENERGY PREDICTED BY IDOCK:   -0.17 KCAL/MOL
REMARK 927      BINDING AFFINITY PREDICTED BY RF-SCORE:    0.00 PKD
ROOT
HETATM    1  C   UNL     1      -9.424  13.520  66.543  1.00  0.00    -0.265 C  
HETATM    2  C   UNL     1      -8.250  13.216  67.441  1.00  0.00    -0.187 C  
HETATM    3  C   UNL     1      -8.116  12.166  68.287  1.00  0.00    -0.166 C  
HETATM    4  S   UNL     1      -6.601  11.881  69.111  1.00  0.00    -0.106 SA 
HETATM    5  O   UNL     1      -7.263  14.149  67.198  1.00  0.00    -0.081 OA 
HETATM    6  C   UNL     1      -6.334  14.534  68.200  1.00  0.00    -0.141 C  
HETATM    7  C   UNL     1      -6.034  13.573  69.340  1.00  0.00    -0.097 C  
ENDROOT
BRANCH   3   8
HETATM    8  C   UNL     1      -9.186  11.086  68.456  1.00  0.00    -0.177 C  
HETATM    9  N   UNL     1      -8.749   9.788  68.246  1.00  0.00    -0.119 N  
HETATM   10  H   UNL     1      -7.754   9.665  68.059  1.00  0.00     0.000 HD 
HETATM   11  O   UNL     1     -10.332  11.367  68.790  1.00  0.00    -0.201 OA 
BRANCH   9  12
HETATM   12  C   UNL     1      -9.544   8.614  68.263  1.00  0.00    -0.147 A  
HETATM   13  C   UNL     1      -9.930   7.968  69.439  1.00  0.00    -0.190 A  
HETATM   14  C   UNL     1     -10.696   6.797  69.394  1.00  0.00    -0.291 A  
HETATM   15  C   UNL     1     -11.081   6.263  68.169  1.00  0.00    -0.364 A  
HETATM   16  C   UNL     1     -10.721   6.910  66.992  1.00  0.00    -0.432 A  
HETATM   17  C   UNL     1      -9.969   8.092  67.037  1.00  0.00    -0.324 A  
ENDBRANCH   9  12
ENDBRANCH   3   8
TORSDOF 2
ENDMDL
MODEL      152
REMARK 921   NORMALIZED FREE ENERGY PREDICTED BY IDOCK:   -2.88 KCAL/MOL
REMARK 922        TOTAL FREE ENERGY PREDICTED BY IDOCK:   -3.43 KCAL/MOL
REMARK 923 INTER-LIGAND FREE ENERGY PREDICTED BY IDOCK:   -3.30 KCAL/MOL
REMARK 924 INTRA-LIGAND FREE ENERGY PREDICTED BY IDOCK:   -0.13 KCAL/MOL
REMARK 927      BINDING AFFINITY PREDICTED BY RF-SCORE:    0.00 PKD
ROOT
HETATM    1  C   UNL     1      -9.366  10.024  64.288  1.00  0.00    -0.345 C  
HETATM    2  C   UNL     1     -10.110  11.197  64.878  1.00  0.00    -0.289 C  
HETATM    3  C   UNL     1     -10.317  11.459  66.191  1.00  0.00    -0.248 C  
HETATM    4  S   UNL     1     -11.046  12.969  66.687  1.00  0.00    -0.298 SA 
HETATM    5  O   UNL     1     -10.484  12.037  63.848  1.00  0.00    -0.327 OA 
HETATM    6  C   UNL     1     -11.639  12.858  63.934  1.00  0.00    -0.453 C  
HETATM    7  C   UNL     1     -12.161  13.260  65.305  1.00  0.00    -0.418 C  
ENDROOT
BRANCH   3   8
HETATM    8  C   UNL     1      -9.797  10.564  67.315  1.00  0.00    -0.177 C  
HETATM    9  N   UNL     1      -8.422  10.397  67.347  1.00  0.00    -0.122 N  
HETATM   10  H   UNL     1      -7.882  10.929  66.665  1.00  0.00     0.000 HD 
HETATM   11  O   UNL     1     -10.556  10.067  68.141  1.00  0.00    -0.198 OA 
BRANCH   9  12
HETATM   12  C   UNL     1      -7.690   9.565  68.230  1.00  0.00    -0.086 A  
HETATM   13  C   UNL     1      -7.380   8.233  67.947  1.00  0.00    -0.096 A  
HETATM   14  C   UNL     1      -6.674   7.450  68.868  1.00  0.00    -0.049 A  
HETATM   15  C   UNL     1      -6.273   7.996  70.083  1.00  0.00    -0.032 A  
HETATM   16  C   UNL     1      -6.557   9.328  70.367  1.00  0.00    -0.068 A  
HETATM   17  C   UNL     1      -7.249  10.116  69.437  1.00  0.00    -0.096 A  
ENDBRANCH   9  12
ENDBRANCH   3   8
TORSDOF 2
ENDMDL
MODEL      153
REMARK 921   NORMALIZED FREE ENERGY PREDICTED BY IDOCK:   -2.83 KCAL/MOL
REMARK 922        TOTAL FREE ENERGY PREDICTED BY IDOCK:   -3.37 KCAL/MOL
REMARK 923 INTER-LIGAND FREE ENERGY PREDICTED BY IDOCK:   -3.10 KCAL/MOL
REMARK 924 INTRA-LIGAND FREE ENERGY PREDICTED BY IDOCK:   -0.28 KCAL/MOL
REMARK 927      BINDING AFFINITY PREDICTED BY RF-SCORE:    0.00 PKD
ROOT
HETATM    1  C   UNL     1      -6.688  11.597  67.100  1.00  0.00    -0.142 C  
HETATM    2  C   UNL     1      -8.125  12.057  67.110  1.00  0.00    -0.177 C  
HETATM    3  C   UNL     1      -9.225  11.309  66.856  1.00  0.00    -0.175 C  
HETATM    4  S   UNL     1     -10.823  11.977  67.097  1.00  0.00    -0.267 SA 
HETATM    5  O   UNL     1      -8.157  13.375  67.517  1.00  0.00    -0.158 OA 
HETATM    6  C   UNL     1      -9.178  14.265  67.093  1.00  0.00    -0.223 C  
HETATM    7  C   UNL     1     -10.523  13.698  66.666  1.00  0.00    -0.272 C  
ENDROOT
BRANCH   3   8
HETATM    8  C   UNL     1      -9.165   9.821  66.511  1.00  0.00    -0.156 C  
HETATM    9  N   UNL     1      -9.696   8.973  67.469  1.00  0.00    -0.154 N  
HETATM   10  H   UNL     1     -10.129   9.414  68.280  1.00  0.00     0.000 HD 
HETATM   11  O   UNL     1      -8.708   9.429  65.442  1.00  0.00    -0.145 OA 
BRANCH   9  12
HETATM   12  C   UNL     1      -9.699   7.556  67.438  1.00  0.00    -0.159 A  
HETATM   13  C   UNL     1     -10.731   6.805  66.871  1.00  0.00    -0.394 A  
HETATM   14  C   UNL     1     -10.691   5.405  66.890  1.00  0.00    -0.264 A  
HETATM   15  C   UNL     1      -9.617   4.747  67.479  1.00  0.00    -0.190 A  
HETATM   16  C   UNL     1      -8.574   5.485  68.027  1.00  0.00    -0.100 A  
HETATM   17  C   UNL     1      -8.605   6.885  67.992  1.00  0.00    -0.123 A  
ENDBRANCH   9  12
ENDBRANCH   3   8
TORSDOF 2
ENDMDL
MODEL      154
REMARK 921   NORMALIZED FREE ENERGY PREDICTED BY IDOCK:   -2.79 KCAL/MOL
REMARK 922        TOTAL FREE ENERGY PREDICTED BY IDOCK:   -3.33 KCAL/MOL
REMARK 923 INTER-LIGAND FREE ENERGY PREDICTED BY IDOCK:   -3.08 KCAL/MOL
REMARK 924 INTRA-LIGAND FREE ENERGY PREDICTED BY IDOCK:   -0.25 KCAL/MOL
REMARK 927      BINDING AFFINITY PREDICTED BY RF-SCORE:    0.00 PKD
ROOT
HETATM    1  C   UNL     1     -12.008  10.853  70.368  1.00  0.00    -0.453 C  
HETATM    2  C   UNL     1     -11.377   9.487  70.249  1.00  0.00    -0.236 C  
HETATM    3  C   UNL     1     -10.286   9.151  69.520  1.00  0.00    -0.203 C  
HETATM    4  S   UNL     1      -9.591   7.552  69.654  1.00  0.00    -0.159 SA 
HETATM    5  O   UNL     1     -12.046   8.623  71.092  1.00  0.00    -0.291 OA 
HETATM    6  C   UNL     1     -12.137   7.233  70.820  1.00  0.00    -0.245 C  
HETATM    7  C   UNL     1     -11.075   6.579  69.950  1.00  0.00    -0.371 C  
ENDROOT
BRANCH   3   8
HETATM    8  C   UNL     1      -9.499  10.156  68.678  1.00  0.00    -0.164 C  
HETATM    9  N   UNL     1      -8.368  10.676  69.286  1.00  0.00    -0.291 N  
HETATM   10  H   UNL     1      -8.130  10.302  70.205  1.00  0.00     0.000 HD 
HETATM   11  O   UNL     1      -9.841  10.440  67.535  1.00  0.00    -0.166 OA 
BRANCH   9  12
HETATM   12  C   UNL     1      -7.509  11.675  68.763  1.00  0.00    -0.114 A  
HETATM   13  C   UNL     1      -6.200  11.418  68.350  1.00  0.00    -0.045 A  
HETATM   14  C   UNL     1      -5.388  12.449  67.863  1.00  0.00    -0.083 A  
HETATM   15  C   UNL     1      -5.880  13.748  67.788  1.00  0.00    -0.103 A  
HETATM   16  C   UNL     1      -7.190  14.011  68.177  1.00  0.00    -0.129 A  
HETATM   17  C   UNL     1      -8.008  12.975  68.648  1.00  0.00    -0.027 A  
ENDBRANCH   9  12
ENDBRANCH   3   8
TORSDOF 2
ENDMDL
MODEL      155
REMARK 921   NORMALIZED FREE ENERGY PREDICTED BY IDOCK:   -2.78 KCAL/MOL
REMARK 922        TOTAL FREE ENERGY PREDICTED BY IDOCK:   -3.33 KCAL/MOL
REMARK 923 INTER-LIGAND FREE ENERGY PREDICTED BY IDOCK:   -3.01 KCAL/MOL
REMARK 924 INTRA-LIGAND FREE ENERGY PREDICTED BY IDOCK:   -0.32 KCAL/MOL
REMARK 927      BINDING AFFINITY PREDICTED BY RF-SCORE:    0.00 PKD
ROOT
HETATM    1  C   UNL     1      -6.953   5.743  67.439  1.00  0.00    -0.065 C  
HETATM    2  C   UNL     1      -7.379   6.983  66.692  1.00  0.00    -0.080 C  
HETATM    3  C   UNL     1      -8.052   8.048  67.190  1.00  0.00    -0.117 C  
HETATM    4  S   UNL     1      -8.295   9.477  66.212  1.00  0.00    -0.116 SA 
HETATM    5  O   UNL     1      -6.888   6.907  65.405  1.00  0.00    -0.049 OA 
HETATM    6  C   UNL     1      -7.544   7.535  64.314  1.00  0.00    -0.105 C  
HETATM    7  C   UNL     1      -8.444   8.731  64.582  1.00  0.00    -0.151 C  
ENDROOT
BRANCH   3   8
HETATM    8  C   UNL     1      -8.491   8.152  68.651  1.00  0.00    -0.127 C  
HETATM    9  N   UNL     1      -9.817   7.828  68.892  1.00  0.00    -0.162 N  
HETATM   10  H   UNL     1     -10.358   7.495  68.094  1.00  0.00     0.000 HD 
HETATM   11  O   UNL     1      -7.703   8.466  69.536  1.00  0.00    -0.091 OA 
BRANCH   9  12
HETATM   12  C   UNL     1     -10.498   7.913  70.131  1.00  0.00    -0.231 A  
HETATM   13  C   UNL     1     -11.082   9.090  70.606  1.00  0.00    -0.314 A  
HETATM   14  C   UNL     1     -11.722   9.119  71.851  1.00  0.00    -0.436 A  
HETATM   15  C   UNL     1     -11.781   7.970  72.632  1.00  0.00    -0.418 A  
HETATM   16  C   UNL     1     -11.222   6.787  72.159  1.00  0.00    -0.294 A  
HETATM   17  C   UNL     1     -10.597   6.753  70.906  1.00  0.00    -0.252 A  
ENDBRANCH   9  12
ENDBRANCH   3   8
TORSDOF 2
ENDMDL
MODEL      156
REMARK 921   NORMALIZED FREE ENERGY PREDICTED BY IDOCK:   -2.75 KCAL/MOL
REMARK 922        TOTAL FREE ENERGY PREDICTED BY IDOCK:   -3.29 KCAL/MOL
REMARK 923 INTER-LIGAND FREE ENERGY PREDICTED BY IDOCK:   -2.98 KCAL/MOL
REMARK 924 INTRA-LIGAND FREE ENERGY PREDICTED BY IDOCK:   -0.31 KCAL/MOL
REMARK 927      BINDING AFFINITY PREDICTED BY RF-SCORE:    0.00 PKD
ROOT
HETATM    1  C   UNL     1      -6.719   2.862  67.596  1.00  0.00    -0.041 C  
HETATM    2  C   UNL     1      -7.587   3.453  66.513  1.00  0.00    -0.077 C  
HETATM    3  C   UNL     1      -8.476   4.468  66.639  1.00  0.00    -0.105 C  
HETATM    4  S   UNL     1      -9.258   5.139  65.227  1.00  0.00    -0.024 SA 
HETATM    5  O   UNL     1      -7.266   2.845  65.316  1.00  0.00    -0.063 OA 
HETATM    6  C   UNL     1      -8.214   2.703  64.270  1.00  0.00    -0.082 C  
HETATM    7  C   UNL     1      -9.387   3.669  64.198  1.00  0.00    -0.142 C  
ENDROOT
BRANCH   3   8
HETATM    8  C   UNL     1      -8.735   5.195  67.959  1.00  0.00    -0.102 C  
HETATM    9  N   UNL     1      -9.867   4.786  68.644  1.00  0.00    -0.157 N  
HETATM   10  H   UNL     1     -10.387   4.005  68.244  1.00  0.00     0.000 HD 
HETATM   11  O   UNL     1      -7.964   6.050  68.381  1.00  0.00    -0.104 OA 
BRANCH   9  12
HETATM   12  C   UNL     1     -10.378   5.341  69.844  1.00  0.00    -0.304 A  
HETATM   13  C   UNL     1     -10.031   4.871  71.113  1.00  0.00    -0.278 A  
HETATM   14  C   UNL     1     -10.586   5.444  72.264  1.00  0.00    -0.280 A  
HETATM   15  C   UNL     1     -11.494   6.492  72.153  1.00  0.00    -0.332 A  
HETATM   16  C   UNL     1     -11.829   6.982  70.896  1.00  0.00    -0.401 A  
HETATM   17  C   UNL     1     -11.261   6.420  69.744  1.00  0.00    -0.484 A  
ENDBRANCH   9  12
ENDBRANCH   3   8
TORSDOF 2
ENDMDL
MODEL      157
REMARK 921   NORMALIZED FREE ENERGY PREDICTED BY IDOCK:   -2.73 KCAL/MOL
REMARK 922        TOTAL FREE ENERGY PREDICTED BY IDOCK:   -3.26 KCAL/MOL
REMARK 923 INTER-LIGAND FREE ENERGY PREDICTED BY IDOCK:   -3.24 KCAL/MOL
REMARK 924 INTRA-LIGAND FREE ENERGY PREDICTED BY IDOCK:   -0.02 KCAL/MOL
REMARK 927      BINDING AFFINITY PREDICTED BY RF-SCORE:    0.00 PKD
ROOT
HETATM    1  C   UNL     1      -6.199   7.862  65.360  1.00  0.00    -0.038 C  
HETATM    2  C   UNL     1      -7.269   8.727  64.740  1.00  0.00    -0.091 C  
HETATM    3  C   UNL     1      -8.373   9.224  65.347  1.00  0.00    -0.137 C  
HETATM    4  S   UNL     1      -9.405  10.362  64.511  1.00  0.00    -0.290 SA 
HETATM    5  O   UNL     1      -6.896   9.018  63.443  1.00  0.00    -0.090 OA 
HETATM    6  C   UNL     1      -7.855   9.269  62.427  1.00  0.00    -0.118 C  
HETATM    7  C   UNL     1      -9.236   9.771  62.821  1.00  0.00    -0.223 C  
ENDROOT
BRANCH   3   8
HETATM    8  C   UNL     1      -8.706   8.971  66.818  1.00  0.00    -0.123 C  
HETATM    9  N   UNL     1      -9.864   8.245  67.043  1.00  0.00    -0.207 N  
HETATM   10  H   UNL     1     -10.352   7.896  66.218  1.00  0.00     0.000 HD 
HETATM   11  O   UNL     1      -7.969   9.361  67.717  1.00  0.00    -0.095 OA 
BRANCH   9  12
HETATM   12  C   UNL     1     -10.440   7.938  68.301  1.00  0.00    -0.164 A  
HETATM   13  C   UNL     1     -10.656   8.892  69.298  1.00  0.00    -0.219 A  
HETATM   14  C   UNL     1     -11.207   8.526  70.532  1.00  0.00    -0.262 A  
HETATM   15  C   UNL     1     -11.546   7.200  70.777  1.00  0.00    -0.358 A  
HETATM   16  C   UNL     1     -11.355   6.245  69.784  1.00  0.00    -0.506 A  
HETATM   17  C   UNL     1     -10.820   6.614  68.543  1.00  0.00    -0.319 A  
ENDBRANCH   9  12
ENDBRANCH   3   8
TORSDOF 2
ENDMDL
MODEL      158
REMARK 921   NORMALIZED FREE ENERGY PREDICTED BY IDOCK:   -2.71 KCAL/MOL
REMARK 922        TOTAL FREE ENERGY PREDICTED BY IDOCK:   -3.24 KCAL/MOL
REMARK 923 INTER-LIGAND FREE ENERGY PREDICTED BY IDOCK:   -3.01 KCAL/MOL
REMARK 924 INTRA-LIGAND FREE ENERGY PREDICTED BY IDOCK:   -0.23 KCAL/MOL
REMARK 927      BINDING AFFINITY PREDICTED BY RF-SCORE:    0.00 PKD
ROOT
HETATM    1  C   UNL     1      -8.406   8.386  64.540  1.00  0.00    -0.125 C  
HETATM    2  C   UNL     1      -7.471   9.205  65.396  1.00  0.00    -0.093 C  
HETATM    3  C   UNL     1      -7.712   9.691  66.637  1.00  0.00    -0.098 C  
HETATM    4  S   UNL     1      -6.435  10.465  67.547  1.00  0.00    -0.059 SA 
HETATM    5  O   UNL     1      -6.263   9.316  64.738  1.00  0.00    -0.068 OA 
HETATM    6  C   UNL     1      -5.409  10.435  64.922  1.00  0.00    -0.134 C  
HETATM    7  C   UNL     1      -5.508  11.235  66.212  1.00  0.00    -0.137 C  
ENDROOT
BRANCH   3   8
HETATM    8  C   UNL     1      -9.025   9.461  67.386  1.00  0.00    -0.124 C  
HETATM    9  N   UNL     1      -8.935   8.632  68.493  1.00  0.00    -0.139 N  
HETATM   10  H   UNL     1      -8.002   8.303  68.742  1.00  0.00     0.000 HD 
HETATM   11  O   UNL     1     -10.065  10.010  67.038  1.00  0.00    -0.197 OA 
BRANCH   9  12
HETATM   12  C   UNL     1     -10.004   8.196  69.313  1.00  0.00    -0.188 A  
HETATM   13  C   UNL     1     -10.655   9.026  70.229  1.00  0.00    -0.250 A  
HETATM   14  C   UNL     1     -11.691   8.532  71.032  1.00  0.00    -0.310 A  
HETATM   15  C   UNL     1     -12.083   7.203  70.924  1.00  0.00    -0.368 A  
HETATM   16  C   UNL     1     -11.457   6.373  69.999  1.00  0.00    -0.496 A  
HETATM   17  C   UNL     1     -10.432   6.871  69.184  1.00  0.00    -0.224 A  
ENDBRANCH   9  12
ENDBRANCH   3   8
TORSDOF 2
ENDMDL
MODEL      159
REMARK 921   NORMALIZED FREE ENERGY PREDICTED BY IDOCK:   -2.67 KCAL/MOL
REMARK 922        TOTAL FREE ENERGY PREDICTED BY IDOCK:   -3.20 KCAL/MOL
REMARK 923 INTER-LIGAND FREE ENERGY PREDICTED BY IDOCK:   -2.88 KCAL/MOL
REMARK 924 INTRA-LIGAND FREE ENERGY PREDICTED BY IDOCK:   -0.33 KCAL/MOL
REMARK 927      BINDING AFFINITY PREDICTED BY RF-SCORE:    0.00 PKD
ROOT
HETATM    1  C   UNL     1      -8.129   4.660  69.471  1.00  0.00    -0.065 C  
HETATM    2  C   UNL     1      -7.573   5.504  68.351  1.00  0.00    -0.084 C  
HETATM    3  C   UNL     1      -7.620   6.854  68.242  1.00  0.00    -0.107 C  
HETATM    4  S   UNL     1      -6.756   7.668  66.958  1.00  0.00    -0.069 SA 
HETATM    5  O   UNL     1      -6.910   4.675  67.468  1.00  0.00    -0.057 OA 
HETATM    6  C   UNL     1      -6.797   4.988  66.088  1.00  0.00    -0.061 C  
HETATM    7  C   UNL     1      -6.889   6.441  65.649  1.00  0.00    -0.052 C  
ENDROOT
BRANCH   3   8
HETATM    8  C   UNL     1      -8.270   7.756  69.291  1.00  0.00    -0.129 C  
HETATM    9  N   UNL     1      -9.620   8.002  69.101  1.00  0.00    -0.155 N  
HETATM   10  H   UNL     1     -10.068   7.516  68.324  1.00  0.00     0.000 HD 
HETATM   11  O   UNL     1      -7.633   8.192  70.244  1.00  0.00    -0.076 OA 
BRANCH   9  12
HETATM   12  C   UNL     1     -10.442   8.858  69.875  1.00  0.00    -0.214 A  
HETATM   13  C   UNL     1     -11.103   8.444  71.034  1.00  0.00    -0.298 A  
HETATM   14  C   UNL     1     -11.922   9.328  71.746  1.00  0.00    -0.455 A  
HETATM   15  C   UNL     1     -12.087  10.636  71.302  1.00  0.00    -0.401 A  
HETATM   16  C   UNL     1     -11.416  11.066  70.161  1.00  0.00    -0.383 A  
HETATM   17  C   UNL     1     -10.583  10.185  69.459  1.00  0.00    -0.269 A  
ENDBRANCH   9  12
ENDBRANCH   3   8
TORSDOF 2
ENDMDL
MODEL      160
REMARK 921   NORMALIZED FREE ENERGY PREDICTED BY IDOCK:   -2.60 KCAL/MOL
REMARK 922        TOTAL FREE ENERGY PREDICTED BY IDOCK:   -3.12 KCAL/MOL
REMARK 923 INTER-LIGAND FREE ENERGY PREDICTED BY IDOCK:   -3.63 KCAL/MOL
REMARK 924 INTRA-LIGAND FREE ENERGY PREDICTED BY IDOCK:    0.51 KCAL/MOL
REMARK 927      BINDING AFFINITY PREDICTED BY RF-SCORE:    0.00 PKD
ROOT
HETATM    1  C   UNL     1     -11.235  10.724  69.535  1.00  0.00    -0.342 C  
HETATM    2  C   UNL     1      -9.881  10.061  69.580  1.00  0.00    -0.235 C  
HETATM    3  C   UNL     1      -8.741  10.486  68.983  1.00  0.00    -0.156 C  
HETATM    4  S   UNL     1      -7.223   9.681  69.304  1.00  0.00    -0.074 SA 
HETATM    5  O   UNL     1      -9.959   8.970  70.421  1.00  0.00    -0.179 OA 
HETATM    6  C   UNL     1      -9.127   7.832  70.250  1.00  0.00    -0.152 C  
HETATM    7  C   UNL     1      -7.794   7.991  69.535  1.00  0.00    -0.105 C  
ENDROOT
BRANCH   3   8
HETATM    8  C   UNL     1      -8.661  11.760  68.142  1.00  0.00    -0.168 C  
HETATM    9  N   UNL     1      -9.861  12.433  67.978  1.00  0.00    -0.200 N  
HETATM   10  H   UNL     1     -10.668  12.057  68.476  1.00  0.00     0.000 HD 
HETATM   11  O   UNL     1      -7.596  12.160  67.686  1.00  0.00    -0.119 OA 
BRANCH   9  12
HETATM   12  C   UNL     1     -10.083  13.589  67.189  1.00  0.00    -0.245 A  
HETATM   13  C   UNL     1      -9.905  14.889  67.668  1.00  0.00    -0.217 A  
HETATM   14  C   UNL     1     -10.162  15.995  66.849  1.00  0.00    -0.280 A  
HETATM   15  C   UNL     1     -10.600  15.808  65.543  1.00  0.00    -0.424 A  
HETATM   16  C   UNL     1     -10.760  14.518  65.048  1.00  0.00    -0.444 A  
HETATM   17  C   UNL     1     -10.486  13.411  65.862  1.00  0.00    -0.287 A  
ENDBRANCH   9  12
ENDBRANCH   3   8
TORSDOF 2
ENDMDL
MODEL      161
REMARK 921   NORMALIZED FREE ENERGY PREDICTED BY IDOCK:   -2.53 KCAL/MOL
REMARK 922        TOTAL FREE ENERGY PREDICTED BY IDOCK:   -3.04 KCAL/MOL
REMARK 923 INTER-LIGAND FREE ENERGY PREDICTED BY IDOCK:   -2.74 KCAL/MOL
REMARK 924 INTRA-LIGAND FREE ENERGY PREDICTED BY IDOCK:   -0.31 KCAL/MOL
REMARK 927      BINDING AFFINITY PREDICTED BY RF-SCORE:    0.00 PKD
ROOT
HETATM    1  C   UNL     1     -10.045   6.592  69.362  1.00  0.00    -0.198 C  
HETATM    2  C   UNL     1     -10.072   7.803  68.462  1.00  0.00    -0.199 C  
HETATM    3  C   UNL     1      -9.560   7.906  67.212  1.00  0.00    -0.159 C  
HETATM    4  S   UNL     1      -9.853   9.338  66.253  1.00  0.00    -0.292 SA 
HETATM    5  O   UNL     1     -10.799   8.795  69.090  1.00  0.00    -0.173 OA 
HETATM    6  C   UNL     1     -10.546  10.171  68.854  1.00  0.00    -0.215 C  
HETATM    7  C   UNL     1      -9.896  10.590  67.544  1.00  0.00    -0.168 C  
ENDROOT
BRANCH   3   8
HETATM    8  C   UNL     1      -8.852   6.754  66.500  1.00  0.00    -0.143 C  
HETATM    9  N   UNL     1      -9.692   5.824  65.907  1.00  0.00    -0.363 N  
HETATM   10  H   UNL     1     -10.692   6.021  65.946  1.00  0.00     0.000 HD 
HETATM   11  O   UNL     1      -7.629   6.694  66.438  1.00  0.00    -0.086 OA 
BRANCH   9  12
HETATM   12  C   UNL     1      -9.303   4.628  65.253  1.00  0.00    -0.157 A  
HETATM   13  C   UNL     1      -8.855   4.589  63.931  1.00  0.00    -0.144 A  
HETATM   14  C   UNL     1      -8.507   3.374  63.329  1.00  0.00    -0.089 A  
HETATM   15  C   UNL     1      -8.606   2.187  64.047  1.00  0.00    -0.083 A  
HETATM   16  C   UNL     1      -9.031   2.216  65.371  1.00  0.00    -0.121 A  
HETATM   17  C   UNL     1      -9.362   3.434  65.979  1.00  0.00    -0.148 A  
ENDBRANCH   9  12
ENDBRANCH   3   8
TORSDOF 2
ENDMDL
MODEL      162
REMARK 921   NORMALIZED FREE ENERGY PREDICTED BY IDOCK:   -2.49 KCAL/MOL
REMARK 922        TOTAL FREE ENERGY PREDICTED BY IDOCK:   -3.00 KCAL/MOL
REMARK 923 INTER-LIGAND FREE ENERGY PREDICTED BY IDOCK:   -2.68 KCAL/MOL
REMARK 924 INTRA-LIGAND FREE ENERGY PREDICTED BY IDOCK:   -0.32 KCAL/MOL
REMARK 927      BINDING AFFINITY PREDICTED BY RF-SCORE:    0.00 PKD
ROOT
HETATM    1  C   UNL     1     -11.043   5.914  69.990  1.00  0.00    -0.411 C  
HETATM    2  C   UNL     1      -9.799   6.182  70.802  1.00  0.00    -0.186 C  
HETATM    3  C   UNL     1      -8.606   6.635  70.346  1.00  0.00    -0.143 C  
HETATM    4  S   UNL     1      -7.335   7.060  71.469  1.00  0.00    -0.080 SA 
HETATM    5  O   UNL     1     -10.095   5.972  72.133  1.00  0.00    -0.179 OA 
HETATM    6  C   UNL     1      -9.106   5.557  73.064  1.00  0.00    -0.125 C  
HETATM    7  C   UNL     1      -7.645   5.865  72.777  1.00  0.00    -0.096 C  
ENDROOT
BRANCH   3   8
HETATM    8  C   UNL     1      -8.340   6.960  68.876  1.00  0.00    -0.121 C  
HETATM    9  N   UNL     1      -8.531   8.286  68.523  1.00  0.00    -0.125 N  
HETATM   10  H   UNL     1      -8.769   8.931  69.277  1.00  0.00     0.000 HD 
HETATM   11  O   UNL     1      -7.952   6.102  68.091  1.00  0.00    -0.105 OA 
BRANCH   9  12
HETATM   12  C   UNL     1      -8.429   8.839  67.222  1.00  0.00    -0.111 A  
HETATM   13  C   UNL     1      -7.211   9.174  66.626  1.00  0.00    -0.085 A  
HETATM   14  C   UNL     1      -7.173   9.741  65.346  1.00  0.00    -0.114 A  
HETATM   15  C   UNL     1      -8.355   9.976  64.653  1.00  0.00    -0.167 A  
HETATM   16  C   UNL     1      -9.572   9.626  65.228  1.00  0.00    -0.347 A  
HETATM   17  C   UNL     1      -9.609   9.044  66.502  1.00  0.00    -0.286 A  
ENDBRANCH   9  12
ENDBRANCH   3   8
TORSDOF 2
ENDMDL
MODEL      163
REMARK 921   NORMALIZED FREE ENERGY PREDICTED BY IDOCK:   -2.48 KCAL/MOL
REMARK 922        TOTAL FREE ENERGY PREDICTED BY IDOCK:   -2.99 KCAL/MOL
REMARK 923 INTER-LIGAND FREE ENERGY PREDICTED BY IDOCK:   -3.38 KCAL/MOL
REMARK 924 INTRA-LIGAND FREE ENERGY PREDICTED BY IDOCK:    0.39 KCAL/MOL
REMARK 927      BINDING AFFINITY PREDICTED BY RF-SCORE:    0.00 PKD
ROOT
HETATM    1  C   UNL     1     -10.381  13.029  69.167  1.00  0.00     0.148 C  
HETATM    2  C   UNL     1     -10.640  13.143  67.685  1.00  0.00    -0.228 C  
HETATM    3  C   UNL     1     -10.426  12.196  66.741  1.00  0.00    -0.218 C  
HETATM    4  S   UNL     1     -10.963  12.449  65.096  1.00  0.00    -0.313 SA 
HETATM    5  O   UNL     1     -11.230  14.367  67.440  1.00  0.00    -0.300 OA 
HETATM    6  C   UNL     1     -11.071  15.040  66.200  1.00  0.00    -0.329 C  
HETATM    7  C   UNL     1     -10.744  14.229  64.955  1.00  0.00    -0.420 C  
ENDROOT
BRANCH   3   8
HETATM    8  C   UNL     1      -9.869  10.808  67.059  1.00  0.00    -0.187 C  
HETATM    9  N   UNL     1      -9.726   9.967  65.967  1.00  0.00    -0.228 N  
HETATM   10  H   UNL     1      -9.943  10.364  65.053  1.00  0.00     0.000 HD 
HETATM   11  O   UNL     1      -9.546  10.493  68.199  1.00  0.00    -0.149 OA 
BRANCH   9  12
HETATM   12  C   UNL     1      -9.308   8.613  65.990  1.00  0.00    -0.218 A  
HETATM   13  C   UNL     1      -8.196   8.143  65.286  1.00  0.00    -0.150 A  
HETATM   14  C   UNL     1      -7.844   6.788  65.327  1.00  0.00    -0.121 A  
HETATM   15  C   UNL     1      -8.604   5.893  66.072  1.00  0.00    -0.142 A  
HETATM   16  C   UNL     1      -9.700   6.354  66.794  1.00  0.00    -0.199 A  
HETATM   17  C   UNL     1     -10.042   7.713  66.767  1.00  0.00    -0.325 A  
ENDBRANCH   9  12
ENDBRANCH   3   8
TORSDOF 2
ENDMDL
MODEL      164
REMARK 921   NORMALIZED FREE ENERGY PREDICTED BY IDOCK:   -2.47 KCAL/MOL
REMARK 922        TOTAL FREE ENERGY PREDICTED BY IDOCK:   -2.98 KCAL/MOL
REMARK 923 INTER-LIGAND FREE ENERGY PREDICTED BY IDOCK:   -2.68 KCAL/MOL
REMARK 924 INTRA-LIGAND FREE ENERGY PREDICTED BY IDOCK:   -0.30 KCAL/MOL
REMARK 927      BINDING AFFINITY PREDICTED BY RF-SCORE:    0.00 PKD
ROOT
HETATM    1  C   UNL     1     -11.085   6.439  68.200  1.00  0.00    -0.358 C  
HETATM    2  C   UNL     1     -10.917   6.108  69.663  1.00  0.00    -0.389 C  
HETATM    3  C   UNL     1     -10.142   5.136  70.198  1.00  0.00    -0.272 C  
HETATM    4  S   UNL     1      -9.933   5.024  71.931  1.00  0.00    -0.193 SA 
HETATM    5  O   UNL     1     -11.627   7.033  70.402  1.00  0.00    -0.309 OA 
HETATM    6  C   UNL     1     -12.172   6.715  71.674  1.00  0.00    -0.352 C  
HETATM    7  C   UNL     1     -11.545   5.594  72.488  1.00  0.00    -0.246 C  
ENDROOT
BRANCH   3   8
HETATM    8  C   UNL     1      -9.281   4.192  69.357  1.00  0.00    -0.143 C  
HETATM    9  N   UNL     1      -8.055   4.705  68.966  1.00  0.00    -0.077 N  
HETATM   10  H   UNL     1      -7.812   5.630  69.322  1.00  0.00     0.000 HD 
HETATM   11  O   UNL     1      -9.653   3.055  69.088  1.00  0.00    -0.145 OA 
BRANCH   9  12
HETATM   12  C   UNL     1      -7.103   4.077  68.125  1.00  0.00    -0.059 A  
HETATM   13  C   UNL     1      -7.019   4.317  66.752  1.00  0.00    -0.059 A  
HETATM   14  C   UNL     1      -6.073   3.649  65.965  1.00  0.00    -0.028 A  
HETATM   15  C   UNL     1      -5.204   2.733  66.548  1.00  0.00    -0.008 A  
HETATM   16  C   UNL     1      -5.265   2.502  67.918  1.00  0.00    -0.012 A  
HETATM   17  C   UNL     1      -6.200   3.184  68.708  1.00  0.00    -0.029 A  
ENDBRANCH   9  12
ENDBRANCH   3   8
TORSDOF 2
ENDMDL
MODEL      165
REMARK 921   NORMALIZED FREE ENERGY PREDICTED BY IDOCK:   -2.40 KCAL/MOL
REMARK 922        TOTAL FREE ENERGY PREDICTED BY IDOCK:   -2.90 KCAL/MOL
REMARK 923 INTER-LIGAND FREE ENERGY PREDICTED BY IDOCK:   -2.69 KCAL/MOL
REMARK 924 INTRA-LIGAND FREE ENERGY PREDICTED BY IDOCK:   -0.22 KCAL/MOL
REMARK 927      BINDING AFFINITY PREDICTED BY RF-SCORE:    0.00 PKD
ROOT
HETATM    1  C   UNL     1     -11.235   6.339  68.885  1.00  0.00    -0.387 C  
HETATM    2  C   UNL     1     -10.586   5.534  69.985  1.00  0.00    -0.314 C  
HETATM    3  C   UNL     1      -9.757   4.473  69.843  1.00  0.00    -0.218 C  
HETATM    4  S   UNL     1      -8.956   3.784  71.236  1.00  0.00    -0.112 SA 
HETATM    5  O   UNL     1     -10.906   6.116  71.195  1.00  0.00    -0.247 OA 
HETATM    6  C   UNL     1     -10.988   5.356  72.392  1.00  0.00    -0.240 C  
HETATM    7  C   UNL     1     -10.210   4.054  72.496  1.00  0.00    -0.166 C  
ENDROOT
BRANCH   3   8
HETATM    8  C   UNL     1      -9.335   3.916  68.482  1.00  0.00    -0.163 C  
HETATM    9  N   UNL     1      -8.543   4.760  67.720  1.00  0.00    -0.103 N  
HETATM   10  H   UNL     1      -8.265   5.641  68.154  1.00  0.00     0.000 HD 
HETATM   11  O   UNL     1      -9.656   2.788  68.125  1.00  0.00    -0.196 OA 
BRANCH   9  12
HETATM   12  C   UNL     1      -8.081   4.526  66.402  1.00  0.00    -0.103 A  
HETATM   13  C   UNL     1      -6.913   3.816  66.115  1.00  0.00    -0.062 A  
HETATM   14  C   UNL     1      -6.492   3.636  64.791  1.00  0.00    -0.035 A  
HETATM   15  C   UNL     1      -7.237   4.167  63.744  1.00  0.00    -0.050 A  
HETATM   16  C   UNL     1      -8.413   4.857  64.018  1.00  0.00    -0.137 A  
HETATM   17  C   UNL     1      -8.844   5.022  65.341  1.00  0.00    -0.152 A  
ENDBRANCH   9  12
ENDBRANCH   3   8
TORSDOF 2
ENDMDL
MODEL      166
REMARK 921   NORMALIZED FREE ENERGY PREDICTED BY IDOCK:   -2.31 KCAL/MOL
REMARK 922        TOTAL FREE ENERGY PREDICTED BY IDOCK:   -2.80 KCAL/MOL
REMARK 923 INTER-LIGAND FREE ENERGY PREDICTED BY IDOCK:   -2.69 KCAL/MOL
REMARK 924 INTRA-LIGAND FREE ENERGY PREDICTED BY IDOCK:   -0.11 KCAL/MOL
REMARK 927      BINDING AFFINITY PREDICTED BY RF-SCORE:    0.00 PKD
ROOT
HETATM    1  C   UNL     1     -11.038   9.226  70.030  1.00  0.00    -0.228 C  
HETATM    2  C   UNL     1     -10.373   8.228  70.946  1.00  0.00    -0.192 C  
HETATM    3  C   UNL     1      -9.483   7.267  70.602  1.00  0.00    -0.164 C  
HETATM    4  S   UNL     1      -8.679   6.324  71.835  1.00  0.00    -0.135 SA 
HETATM    5  O   UNL     1     -10.753   8.509  72.243  1.00  0.00    -0.323 OA 
HETATM    6  C   UNL     1     -10.823   7.498  73.238  1.00  0.00    -0.355 C  
HETATM    7  C   UNL     1      -9.977   6.244  73.079  1.00  0.00    -0.173 C  
ENDROOT
BRANCH   3   8
HETATM    8  C   UNL     1      -8.999   7.049  69.168  1.00  0.00    -0.134 C  
HETATM    9  N   UNL     1      -9.310   5.814  68.623  1.00  0.00    -0.120 N  
HETATM   10  H   UNL     1      -9.879   5.191  69.197  1.00  0.00     0.000 HD 
HETATM   11  O   UNL     1      -8.411   7.930  68.550  1.00  0.00    -0.126 OA 
BRANCH   9  12
HETATM   12  C   UNL     1      -8.918   5.326  67.352  1.00  0.00    -0.108 A  
HETATM   13  C   UNL     1      -9.821   5.077  66.316  1.00  0.00    -0.217 A  
HETATM   14  C   UNL     1      -9.379   4.572  65.087  1.00  0.00    -0.160 A  
HETATM   15  C   UNL     1      -8.028   4.312  64.886  1.00  0.00    -0.093 A  
HETATM   16  C   UNL     1      -7.117   4.577  65.903  1.00  0.00    -0.071 A  
HETATM   17  C   UNL     1      -7.557   5.098  67.127  1.00  0.00    -0.092 A  
ENDBRANCH   9  12
ENDBRANCH   3   8
TORSDOF 2
ENDMDL
MODEL      167
REMARK 921   NORMALIZED FREE ENERGY PREDICTED BY IDOCK:   -2.24 KCAL/MOL
REMARK 922        TOTAL FREE ENERGY PREDICTED BY IDOCK:   -2.72 KCAL/MOL
REMARK 923 INTER-LIGAND FREE ENERGY PREDICTED BY IDOCK:   -2.48 KCAL/MOL
REMARK 924 INTRA-LIGAND FREE ENERGY PREDICTED BY IDOCK:   -0.24 KCAL/MOL
REMARK 927      BINDING AFFINITY PREDICTED BY RF-SCORE:    0.00 PKD
ROOT
HETATM    1  C   UNL     1      -9.313   7.939  73.435  1.00  0.00    -0.348 C  
HETATM    2  C   UNL     1      -9.984   7.926  72.084  1.00  0.00    -0.207 C  
HETATM    3  C   UNL     1     -10.173   6.857  71.274  1.00  0.00    -0.198 C  
HETATM    4  S   UNL     1     -11.138   7.006  69.824  1.00  0.00    -0.214 SA 
HETATM    5  O   UNL     1     -10.470   9.192  71.827  1.00  0.00    -0.352 OA 
HETATM    6  C   UNL     1     -10.607   9.688  70.504  1.00  0.00    -0.306 C  
HETATM    7  C   UNL     1     -10.762   8.701  69.357  1.00  0.00    -0.158 C  
ENDROOT
BRANCH   3   8
HETATM    8  C   UNL     1      -9.716   5.443  71.634  1.00  0.00    -0.157 C  
HETATM    9  N   UNL     1      -8.368   5.192  71.434  1.00  0.00    -0.117 N  
HETATM   10  H   UNL     1      -7.796   5.979  71.128  1.00  0.00     0.000 HD 
HETATM   11  O   UNL     1     -10.494   4.617  72.098  1.00  0.00    -0.197 OA 
BRANCH   9  12
HETATM   12  C   UNL     1      -7.701   3.954  71.613  1.00  0.00    -0.061 A  
HETATM   13  C   UNL     1      -7.296   3.142  70.550  1.00  0.00    -0.040 A  
HETATM   14  C   UNL     1      -6.662   1.917  70.787  1.00  0.00    -0.028 A  
HETATM   15  C   UNL     1      -6.430   1.493  72.091  1.00  0.00    -0.014 A  
HETATM   16  C   UNL     1      -6.810   2.303  73.156  1.00  0.00    -0.026 A  
HETATM   17  C   UNL     1      -7.429   3.537  72.919  1.00  0.00    -0.059 A  
ENDBRANCH   9  12
ENDBRANCH   3   8
TORSDOF 2
ENDMDL
MODEL      168
REMARK 921   NORMALIZED FREE ENERGY PREDICTED BY IDOCK:   -2.21 KCAL/MOL
REMARK 922        TOTAL FREE ENERGY PREDICTED BY IDOCK:   -2.69 KCAL/MOL
REMARK 923 INTER-LIGAND FREE ENERGY PREDICTED BY IDOCK:   -2.35 KCAL/MOL
REMARK 924 INTRA-LIGAND FREE ENERGY PREDICTED BY IDOCK:   -0.33 KCAL/MOL
REMARK 927      BINDING AFFINITY PREDICTED BY RF-SCORE:    0.00 PKD
ROOT
HETATM    1  C   UNL     1      -9.041   9.207  66.332  1.00  0.00    -0.211 C  
HETATM    2  C   UNL     1      -9.902   9.578  67.515  1.00  0.00    -0.167 C  
HETATM    3  C   UNL     1     -10.349   8.754  68.493  1.00  0.00    -0.199 C  
HETATM    4  S   UNL     1     -11.184   9.404  69.885  1.00  0.00    -0.095 SA 
HETATM    5  O   UNL     1     -10.098  10.944  67.499  1.00  0.00    -0.177 OA 
HETATM    6  C   UNL     1     -11.264  11.540  68.048  1.00  0.00    -0.269 C  
HETATM    7  C   UNL     1     -12.034  10.798  69.130  1.00  0.00    -0.230 C  
ENDROOT
BRANCH   3   8
HETATM    8  C   UNL     1     -10.025   7.260  68.541  1.00  0.00    -0.162 C  
HETATM    9  N   UNL     1      -8.945   6.918  69.338  1.00  0.00    -0.138 N  
HETATM   10  H   UNL     1      -8.505   7.675  69.862  1.00  0.00     0.000 HD 
HETATM   11  O   UNL     1     -10.708   6.438  67.940  1.00  0.00    -0.234 OA 
BRANCH   9  12
HETATM   12  C   UNL     1      -8.387   5.625  69.499  1.00  0.00    -0.103 A  
HETATM   13  C   UNL     1      -8.766   4.750  70.520  1.00  0.00    -0.130 A  
HETATM   14  C   UNL     1      -8.163   3.492  70.644  1.00  0.00    -0.074 A  
HETATM   15  C   UNL     1      -7.175   3.101  69.747  1.00  0.00    -0.041 A  
HETATM   16  C   UNL     1      -6.806   3.956  68.713  1.00  0.00    -0.046 A  
HETATM   17  C   UNL     1      -7.422   5.207  68.578  1.00  0.00    -0.074 A  
ENDBRANCH   9  12
ENDBRANCH   3   8
TORSDOF 2
ENDMDL
MODEL      169
REMARK 921   NORMALIZED FREE ENERGY PREDICTED BY IDOCK:   -2.17 KCAL/MOL
REMARK 922        TOTAL FREE ENERGY PREDICTED BY IDOCK:   -2.65 KCAL/MOL
REMARK 923 INTER-LIGAND FREE ENERGY PREDICTED BY IDOCK:   -2.45 KCAL/MOL
REMARK 924 INTRA-LIGAND FREE ENERGY PREDICTED BY IDOCK:   -0.19 KCAL/MOL
REMARK 927      BINDING AFFINITY PREDICTED BY RF-SCORE:    0.00 PKD
ROOT
HETATM    1  C   UNL     1      -9.233   1.928  69.177  1.00  0.00    -0.190 C  
HETATM    2  C   UNL     1      -8.282   2.759  68.351  1.00  0.00    -0.064 C  
HETATM    3  C   UNL     1      -7.798   3.988  68.649  1.00  0.00    -0.068 C  
HETATM    4  S   UNL     1      -6.558   4.716  67.654  1.00  0.00    -0.048 SA 
HETATM    5  O   UNL     1      -7.897   2.017  67.253  1.00  0.00    -0.064 OA 
HETATM    6  C   UNL     1      -7.528   2.630  66.027  1.00  0.00    -0.068 C  
HETATM    7  C   UNL     1      -7.011   4.060  66.041  1.00  0.00    -0.065 C  
ENDROOT
BRANCH   3   8
HETATM    8  C   UNL     1      -8.160   4.743  69.928  1.00  0.00    -0.069 C  
HETATM    9  N   UNL     1      -9.460   5.220  69.982  1.00  0.00    -0.150 N  
HETATM   10  H   UNL     1     -10.070   4.975  69.201  1.00  0.00     0.000 HD 
HETATM   11  O   UNL     1      -7.356   4.875  70.844  1.00  0.00    -0.060 OA 
BRANCH   9  12
HETATM   12  C   UNL     1     -10.030   6.012  71.010  1.00  0.00    -0.187 A  
HETATM   13  C   UNL     1     -10.353   5.510  72.273  1.00  0.00    -0.257 A  
HETATM   14  C   UNL     1     -10.936   6.335  73.243  1.00  0.00    -0.221 A  
HETATM   15  C   UNL     1     -11.203   7.669  72.954  1.00  0.00    -0.426 A  
HETATM   16  C   UNL     1     -10.866   8.184  71.707  1.00  0.00    -0.317 A  
HETATM   17  C   UNL     1     -10.266   7.364  70.742  1.00  0.00    -0.200 A  
ENDBRANCH   9  12
ENDBRANCH   3   8
TORSDOF 2
ENDMDL
MODEL      170
REMARK 921   NORMALIZED FREE ENERGY PREDICTED BY IDOCK:   -2.17 KCAL/MOL
REMARK 922        TOTAL FREE ENERGY PREDICTED BY IDOCK:   -2.64 KCAL/MOL
REMARK 923 INTER-LIGAND FREE ENERGY PREDICTED BY IDOCK:   -2.59 KCAL/MOL
REMARK 924 INTRA-LIGAND FREE ENERGY PREDICTED BY IDOCK:   -0.05 KCAL/MOL
REMARK 927      BINDING AFFINITY PREDICTED BY RF-SCORE:    0.00 PKD
ROOT
HETATM    1  C   UNL     1      -7.527   8.132  70.102  1.00  0.00    -0.061 C  
HETATM    2  C   UNL     1      -8.858   7.423  70.152  1.00  0.00    -0.147 C  
HETATM    3  C   UNL     1      -9.812   7.403  69.191  1.00  0.00    -0.168 C  
HETATM    4  S   UNL     1     -11.214   6.372  69.357  1.00  0.00    -0.362 SA 
HETATM    5  O   UNL     1      -8.923   6.703  71.328  1.00  0.00    -0.143 OA 
HETATM    6  C   UNL     1     -10.159   6.427  71.969  1.00  0.00    -0.178 C  
HETATM    7  C   UNL     1     -11.435   6.412  71.142  1.00  0.00    -0.323 C  
ENDROOT
BRANCH   3   8
HETATM    8  C   UNL     1      -9.666   8.126  67.851  1.00  0.00    -0.161 C  
HETATM    9  N   UNL     1      -8.520   7.817  67.137  1.00  0.00    -0.123 N  
HETATM   10  H   UNL     1      -7.914   7.099  67.534  1.00  0.00     0.000 HD 
HETATM   11  O   UNL     1     -10.530   8.893  67.440  1.00  0.00    -0.258 OA 
BRANCH   9  12
HETATM   12  C   UNL     1      -8.103   8.396  65.913  1.00  0.00    -0.110 A  
HETATM   13  C   UNL     1      -7.515   9.660  65.824  1.00  0.00    -0.100 A  
HETATM   14  C   UNL     1      -7.144  10.192  64.583  1.00  0.00    -0.124 A  
HETATM   15  C   UNL     1      -7.360   9.461  63.420  1.00  0.00    -0.102 A  
HETATM   16  C   UNL     1      -7.924   8.192  63.498  1.00  0.00    -0.145 A  
HETATM   17  C   UNL     1      -8.280   7.653  64.742  1.00  0.00    -0.081 A  
ENDBRANCH   9  12
ENDBRANCH   3   8
TORSDOF 2
ENDMDL
MODEL      171
REMARK 921   NORMALIZED FREE ENERGY PREDICTED BY IDOCK:   -2.13 KCAL/MOL
REMARK 922        TOTAL FREE ENERGY PREDICTED BY IDOCK:   -2.60 KCAL/MOL
REMARK 923 INTER-LIGAND FREE ENERGY PREDICTED BY IDOCK:   -2.35 KCAL/MOL
REMARK 924 INTRA-LIGAND FREE ENERGY PREDICTED BY IDOCK:   -0.25 KCAL/MOL
REMARK 927      BINDING AFFINITY PREDICTED BY RF-SCORE:    0.00 PKD
ROOT
HETATM    1  C   UNL     1      -6.740   5.689  67.748  1.00  0.00    -0.058 C  
HETATM    2  C   UNL     1      -7.702   6.851  67.701  1.00  0.00    -0.111 C  
HETATM    3  C   UNL     1      -8.372   7.401  68.742  1.00  0.00    -0.129 C  
HETATM    4  S   UNL     1      -9.302   8.865  68.520  1.00  0.00    -0.140 SA 
HETATM    5  O   UNL     1      -7.729   7.341  66.412  1.00  0.00    -0.089 OA 
HETATM    6  C   UNL     1      -8.879   7.980  65.878  1.00  0.00    -0.153 C  
HETATM    7  C   UNL     1      -9.870   8.633  66.829  1.00  0.00    -0.253 C  
ENDROOT
BRANCH   3   8
HETATM    8  C   UNL     1      -8.239   6.902  70.181  1.00  0.00    -0.133 C  
HETATM    9  N   UNL     1      -9.195   5.980  70.575  1.00  0.00    -0.155 N  
HETATM   10  H   UNL     1      -9.856   5.674  69.861  1.00  0.00     0.000 HD 
HETATM   11  O   UNL     1      -7.324   7.277  70.907  1.00  0.00    -0.072 OA 
BRANCH   9  12
HETATM   12  C   UNL     1      -9.349   5.419  71.867  1.00  0.00    -0.141 A  
HETATM   13  C   UNL     1      -8.430   4.530  72.430  1.00  0.00    -0.110 A  
HETATM   14  C   UNL     1      -8.646   3.988  73.703  1.00  0.00    -0.091 A  
HETATM   15  C   UNL     1      -9.786   4.331  74.422  1.00  0.00    -0.153 A  
HETATM   16  C   UNL     1     -10.697   5.232  73.880  1.00  0.00    -0.320 A  
HETATM   17  C   UNL     1     -10.472   5.787  72.614  1.00  0.00    -0.243 A  
ENDBRANCH   9  12
ENDBRANCH   3   8
TORSDOF 2
ENDMDL
MODEL      172
REMARK 921   NORMALIZED FREE ENERGY PREDICTED BY IDOCK:   -1.97 KCAL/MOL
REMARK 922        TOTAL FREE ENERGY PREDICTED BY IDOCK:   -2.42 KCAL/MOL
REMARK 923 INTER-LIGAND FREE ENERGY PREDICTED BY IDOCK:   -2.10 KCAL/MOL
REMARK 924 INTRA-LIGAND FREE ENERGY PREDICTED BY IDOCK:   -0.33 KCAL/MOL
REMARK 927      BINDING AFFINITY PREDICTED BY RF-SCORE:    0.00 PKD
ROOT
HETATM    1  C   UNL     1      -8.809   9.333  66.191  1.00  0.00    -0.183 C  
HETATM    2  C   UNL     1      -8.444   8.386  65.075  1.00  0.00    -0.141 C  
HETATM    3  C   UNL     1      -7.960   7.126  65.196  1.00  0.00    -0.128 C  
HETATM    4  S   UNL     1      -7.770   6.113  63.784  1.00  0.00    -0.113 SA 
HETATM    5  O   UNL     1      -8.771   8.982  63.874  1.00  0.00    -0.179 OA 
HETATM    6  C   UNL     1      -8.069   8.687  62.676  1.00  0.00    -0.177 C  
HETATM    7  C   UNL     1      -7.349   7.353  62.550  1.00  0.00    -0.092 C  
ENDROOT
BRANCH   3   8
HETATM    8  C   UNL     1      -7.708   6.452  66.545  1.00  0.00    -0.099 C  
HETATM    9  N   UNL     1      -8.686   5.556  66.947  1.00  0.00    -0.113 N  
HETATM   10  H   UNL     1      -9.446   5.383  66.289  1.00  0.00     0.000 HD 
HETATM   11  O   UNL     1      -6.690   6.674  67.191  1.00  0.00    -0.058 OA 
BRANCH   9  12
HETATM   12  C   UNL     1      -8.739   4.857  68.178  1.00  0.00    -0.102 A  
HETATM   13  C   UNL     1      -8.172   3.594  68.367  1.00  0.00    -0.087 A  
HETATM   14  C   UNL     1      -8.276   2.940  69.600  1.00  0.00    -0.069 A  
HETATM   15  C   UNL     1      -8.950   3.545  70.655  1.00  0.00    -0.163 A  
HETATM   16  C   UNL     1      -9.500   4.811  70.485  1.00  0.00    -0.240 A  
HETATM   17  C   UNL     1      -9.381   5.474  69.256  1.00  0.00    -0.153 A  
ENDBRANCH   9  12
ENDBRANCH   3   8
TORSDOF 2
ENDMDL
MODEL      173
REMARK 921   NORMALIZED FREE ENERGY PREDICTED BY IDOCK:   -1.76 KCAL/MOL
REMARK 922        TOTAL FREE ENERGY PREDICTED BY IDOCK:   -2.19 KCAL/MOL
REMARK 923 INTER-LIGAND FREE ENERGY PREDICTED BY IDOCK:   -2.02 KCAL/MOL
REMARK 924 INTRA-LIGAND FREE ENERGY PREDICTED BY IDOCK:   -0.17 KCAL/MOL
REMARK 927      BINDING AFFINITY PREDICTED BY RF-SCORE:    0.00 PKD
ROOT
HETATM    1  C   UNL     1      -7.447   8.337  70.189  1.00  0.00    -0.060 C  
HETATM    2  C   UNL     1      -8.825   8.951  70.166  1.00  0.00    -0.163 C  
HETATM    3  C   UNL     1      -9.196  10.108  69.567  1.00  0.00    -0.204 C  
HETATM    4  S   UNL     1     -10.883  10.564  69.493  1.00  0.00    -0.270 SA 
HETATM    5  O   UNL     1      -9.698   8.085  70.793  1.00  0.00    -0.165 OA 
HETATM    6  C   UNL     1     -10.862   8.547  71.461  1.00  0.00    -0.263 C  
HETATM    7  C   UNL     1     -11.472   9.877  71.048  1.00  0.00    -0.388 C  
ENDROOT
BRANCH   3   8
HETATM    8  C   UNL     1      -8.226  10.996  68.788  1.00  0.00    -0.146 C  
HETATM    9  N   UNL     1      -8.047  12.268  69.306  1.00  0.00    -0.132 N  
HETATM   10  H   UNL     1      -8.524  12.476  70.183  1.00  0.00     0.000 HD 
HETATM   11  O   UNL     1      -7.632  10.581  67.798  1.00  0.00    -0.088 OA 
BRANCH   9  12
HETATM   12  C   UNL     1      -7.269  13.311  68.743  1.00  0.00    -0.088 A  
HETATM   13  C   UNL     1      -7.609  13.964  67.556  1.00  0.00    -0.190 A  
HETATM   14  C   UNL     1      -6.789  14.971  67.033  1.00  0.00     0.386 A  
HETATM   15  C   UNL     1      -5.620  15.332  67.695  1.00  0.00    -0.059 A  
HETATM   16  C   UNL     1      -5.283  14.703  68.889  1.00  0.00    -0.088 A  
HETATM   17  C   UNL     1      -6.113  13.707  69.421  1.00  0.00    -0.104 A  
ENDBRANCH   9  12
ENDBRANCH   3   8
TORSDOF 2
ENDMDL
MODEL      174
REMARK 921   NORMALIZED FREE ENERGY PREDICTED BY IDOCK:   -1.54 KCAL/MOL
REMARK 922        TOTAL FREE ENERGY PREDICTED BY IDOCK:   -1.94 KCAL/MOL
REMARK 923 INTER-LIGAND FREE ENERGY PREDICTED BY IDOCK:   -2.64 KCAL/MOL
REMARK 924 INTRA-LIGAND FREE ENERGY PREDICTED BY IDOCK:    0.71 KCAL/MOL
REMARK 927      BINDING AFFINITY PREDICTED BY RF-SCORE:    0.00 PKD
ROOT
HETATM    1  C   UNL     1     -10.950  15.329  68.945  1.00  0.00    -0.261 C  
HETATM    2  C   UNL     1     -10.913  14.923  67.493  1.00  0.00    -0.302 C  
HETATM    3  C   UNL     1     -10.000  15.293  66.562  1.00  0.00    -0.265 C  
HETATM    4  S   UNL     1     -10.018  14.570  64.970  1.00  0.00    -0.019 SA 
HETATM    5  O   UNL     1     -11.930  14.017  67.268  1.00  0.00    -0.390 OA 
HETATM    6  C   UNL     1     -12.552  13.890  65.999  1.00  0.00    -0.423 C  
HETATM    7  C   UNL     1     -11.784  14.308  64.754  1.00  0.00    -0.415 C  
ENDROOT
BRANCH   3   8
HETATM    8  C   UNL     1      -8.820  16.215  66.867  1.00  0.00    -0.219 C  
HETATM    9  N   UNL     1      -8.485  17.099  65.853  1.00  0.00    -0.100 N  
HETATM   10  H   UNL     1      -9.087  17.097  65.029  1.00  0.00     0.000 HD 
HETATM   11  O   UNL     1      -8.247  16.185  67.951  1.00  0.00    -0.150 OA 
BRANCH   9  12
HETATM   12  C   UNL     1      -7.395  18.003  65.844  1.00  0.00    -0.213 A  
HETATM   13  C   UNL     1      -7.250  19.018  64.895  1.00  0.00     0.928 A  
HETATM   14  C   UNL     1      -6.138  19.869  64.921  1.00  0.00    -0.301 A  
HETATM   15  C   UNL     1      -5.160  19.708  65.897  1.00  0.00    -0.165 A  
HETATM   16  C   UNL     1      -5.305  18.714  66.859  1.00  0.00    -0.141 A  
HETATM   17  C   UNL     1      -6.426  17.874  66.844  1.00  0.00    -0.207 A  
ENDBRANCH   9  12
ENDBRANCH   3   8
TORSDOF 2
ENDMDL
MODEL      175
REMARK 921   NORMALIZED FREE ENERGY PREDICTED BY IDOCK:   -1.52 KCAL/MOL
REMARK 922        TOTAL FREE ENERGY PREDICTED BY IDOCK:   -1.92 KCAL/MOL
REMARK 923 INTER-LIGAND FREE ENERGY PREDICTED BY IDOCK:   -1.61 KCAL/MOL
REMARK 924 INTRA-LIGAND FREE ENERGY PREDICTED BY IDOCK:   -0.31 KCAL/MOL
REMARK 927      BINDING AFFINITY PREDICTED BY RF-SCORE:    0.00 PKD
ROOT
HETATM    1  C   UNL     1      -6.750   2.137  67.035  1.00  0.00    -0.039 C  
HETATM    2  C   UNL     1      -7.796   2.543  66.026  1.00  0.00    -0.081 C  
HETATM    3  C   UNL     1      -8.721   3.524  66.156  1.00  0.00    -0.123 C  
HETATM    4  S   UNL     1      -9.733   3.970  64.801  1.00  0.00    -0.194 SA 
HETATM    5  O   UNL     1      -7.607   1.799  64.879  1.00  0.00    -0.061 OA 
HETATM    6  C   UNL     1      -8.680   1.480  64.008  1.00  0.00    -0.083 C  
HETATM    7  C   UNL     1      -9.910   2.374  63.990  1.00  0.00    -0.129 C  
ENDROOT
BRANCH   3   8
HETATM    8  C   UNL     1      -8.839   4.404  67.400  1.00  0.00    -0.108 C  
HETATM    9  N   UNL     1      -7.930   5.448  67.471  1.00  0.00    -0.100 N  
HETATM   10  H   UNL     1      -7.312   5.571  66.669  1.00  0.00     0.000 HD 
HETATM   11  O   UNL     1      -9.706   4.207  68.245  1.00  0.00    -0.148 OA 
BRANCH   9  12
HETATM   12  C   UNL     1      -7.771   6.361  68.543  1.00  0.00    -0.104 A  
HETATM   13  C   UNL     1      -6.881   6.153  69.600  1.00  0.00    -0.065 A  
HETATM   14  C   UNL     1      -6.783   7.080  70.645  1.00  0.00    -0.053 A  
HETATM   15  C   UNL     1      -7.577   8.222  70.641  1.00  0.00    -0.071 A  
HETATM   16  C   UNL     1      -8.451   8.449  69.583  1.00  0.00    -0.127 A  
HETATM   17  C   UNL     1      -8.536   7.531  68.528  1.00  0.00    -0.129 A  
ENDBRANCH   9  12
ENDBRANCH   3   8
TORSDOF 2
ENDMDL
MODEL      176
REMARK 921   NORMALIZED FREE ENERGY PREDICTED BY IDOCK:   -1.35 KCAL/MOL
REMARK 922        TOTAL FREE ENERGY PREDICTED BY IDOCK:   -1.73 KCAL/MOL
REMARK 923 INTER-LIGAND FREE ENERGY PREDICTED BY IDOCK:   -2.11 KCAL/MOL
REMARK 924 INTRA-LIGAND FREE ENERGY PREDICTED BY IDOCK:    0.38 KCAL/MOL
REMARK 927      BINDING AFFINITY PREDICTED BY RF-SCORE:    0.00 PKD
ROOT
HETATM    1  C   UNL     1      -7.824   3.908  65.269  1.00  0.00    -0.089 C  
HETATM    2  C   UNL     1      -7.149   5.101  64.638  1.00  0.00    -0.054 C  
HETATM    3  C   UNL     1      -7.254   6.397  65.018  1.00  0.00    -0.067 C  
HETATM    4  S   UNL     1      -6.247   7.620  64.278  1.00  0.00    -0.049 SA 
HETATM    5  O   UNL     1      -6.311   4.649  63.639  1.00  0.00    -0.025 OA 
HETATM    6  C   UNL     1      -6.001   5.444  62.505  1.00  0.00    -0.014 C  
HETATM    7  C   UNL     1      -6.105   6.957  62.611  1.00  0.00    -0.040 C  
ENDROOT
BRANCH   3   8
HETATM    8  C   UNL     1      -8.109   6.856  66.199  1.00  0.00    -0.115 C  
HETATM    9  N   UNL     1      -8.314   5.903  67.183  1.00  0.00    -0.105 N  
HETATM   10  H   UNL     1      -7.832   5.012  67.064  1.00  0.00     0.000 HD 
HETATM   11  O   UNL     1      -8.543   8.001  66.268  1.00  0.00    -0.128 OA 
BRANCH   9  12
HETATM   12  C   UNL     1      -9.124   6.039  68.338  1.00  0.00    -0.112 A  
HETATM   13  C   UNL     1      -8.603   6.171  69.628  1.00  0.00    -0.128 A  
HETATM   14  C   UNL     1      -9.453   6.278  70.735  1.00  0.00    -0.185 A  
HETATM   15  C   UNL     1     -10.833   6.252  70.560  1.00  0.00    -0.348 A  
HETATM   16  C   UNL     1     -11.362   6.143  69.279  1.00  0.00    -0.361 A  
HETATM   17  C   UNL     1     -10.512   6.053  68.169  1.00  0.00    -0.292 A  
ENDBRANCH   9  12
ENDBRANCH   3   8
TORSDOF 2
ENDMDL
MODEL      177
REMARK 921   NORMALIZED FREE ENERGY PREDICTED BY IDOCK:    1.92 KCAL/MOL
REMARK 922        TOTAL FREE ENERGY PREDICTED BY IDOCK:    1.92 KCAL/MOL
REMARK 923 INTER-LIGAND FREE ENERGY PREDICTED BY IDOCK:    1.85 KCAL/MOL
REMARK 924 INTRA-LIGAND FREE ENERGY PREDICTED BY IDOCK:    0.07 KCAL/MOL
REMARK 927      BINDING AFFINITY PREDICTED BY RF-SCORE:    0.00 PKD
ROOT
HETATM    1  C   UNL     1     -10.732  19.380  69.809  1.00  0.00     1.300 C  
HETATM    2  C   UNL     1      -9.261  19.708  69.730  1.00  0.00     0.530 C  
HETATM    3  C   UNL     1      -8.423  19.468  68.694  1.00  0.00    -0.328 C  
HETATM    4  S   UNL     1      -6.789  20.089  68.716  1.00  0.00    -0.260 SA 
HETATM    5  O   UNL     1      -8.907  20.392  70.875  1.00  0.00     1.236 OA 
HETATM    6  C   UNL     1      -7.591  20.332  71.406  1.00  0.00     1.574 C  
HETATM    7  C   UNL     1      -6.433  20.002  70.477  1.00  0.00    -0.185 C  
ENDROOT
BRANCH   3   8
HETATM    8  C   UNL     1      -8.871  18.802  67.392  1.00  0.00    -0.270 C  
HETATM    9  N   UNL     1      -9.428  17.542  67.537  1.00  0.00    -0.252 N  
HETATM   10  H   UNL     1      -9.545  17.200  68.491  1.00  0.00     0.000 HD 
HETATM   11  O   UNL     1      -8.768  19.374  66.312  1.00  0.00    -0.341 OA 
BRANCH   9  12
HETATM   12  C   UNL     1      -9.852  16.679  66.496  1.00  0.00    -0.281 A  
HETATM   13  C   UNL     1     -10.811  17.038  65.546  1.00  0.00    -0.073 A  
HETATM   14  C   UNL     1     -11.209  16.135  64.553  1.00  0.00    -0.275 A  
HETATM   15  C   UNL     1     -10.650  14.862  64.505  1.00  0.00    -0.020 A  
HETATM   16  C   UNL     1      -9.678  14.501  65.432  1.00  0.00    -0.163 A  
HETATM   17  C   UNL     1      -9.267  15.411  66.415  1.00  0.00    -0.339 A  
ENDBRANCH   9  12
ENDBRANCH   3   8
TORSDOF 2
ENDMDL
