MODEL        1
REMARK 921   NORMALIZED FREE ENERGY PREDICTED BY IDOCK:   -4.82 KCAL/MOL
REMARK 922        TOTAL FREE ENERGY PREDICTED BY IDOCK:   -6.09 KCAL/MOL
REMARK 923 INTER-LIGAND FREE ENERGY PREDICTED BY IDOCK:   -5.66 KCAL/MOL
REMARK 924 INTRA-LIGAND FREE ENERGY PREDICTED BY IDOCK:   -0.43 KCAL/MOL
REMARK 927      BINDING AFFINITY PREDICTED BY RF-SCORE:    0.00 PKD
ROOT
HETATM    1  N   UNK     1     -11.066  16.029  64.185  1.00  0.00    -1.068 NA 
HETATM    2  C   UNK     1     -11.107  14.787  65.021  1.00  0.00    -0.405 C  
HETATM    3  H1  UNK     1     -10.956  15.849  63.187  1.00  0.00     0.000 HD 
HETATM    4  H2  UNK     1     -10.339  16.663  64.517  1.00  0.00     0.000 HD 
HETATM    5  C   UNK     1     -12.257  13.909  64.510  1.00  0.00    -0.417 C  
HETATM    6  O   UNK     1     -12.827  13.044  65.154  1.00  0.00    -0.656 OA 
HETATM    7  O   UNK     1     -12.548  14.197  63.214  1.00  0.00    -0.766 OA 
ENDROOT
BRANCH   2   8
HETATM    8  C   UNK     1     -11.271  15.058  66.523  1.00  0.00    -0.312 C  
BRANCH   8   9
HETATM    9  S   UNK     1      -9.756  15.832  67.206  1.00  0.00    -0.225 SA 
BRANCH   9  10
HETATM   10  C   UNK     1     -10.520  17.314  67.965  1.00  0.00    -0.375 C  
HETATM   11  C   UNK     1     -10.522  18.507  67.026  1.00  0.00    -0.402 C  
HETATM   12  O   UNK     1     -11.016  19.586  67.327  1.00  0.00    -0.499 OA 
HETATM   13  O   UNK     1      -9.934  18.301  65.826  1.00  0.00    -0.540 OA 
ENDBRANCH   9  10
ENDBRANCH   8   9
ENDBRANCH   2   8
TORSDOF 3
ENDMDL
MODEL        2
REMARK 921   NORMALIZED FREE ENERGY PREDICTED BY IDOCK:   -4.75 KCAL/MOL
REMARK 922        TOTAL FREE ENERGY PREDICTED BY IDOCK:   -6.01 KCAL/MOL
REMARK 923 INTER-LIGAND FREE ENERGY PREDICTED BY IDOCK:   -5.68 KCAL/MOL
REMARK 924 INTRA-LIGAND FREE ENERGY PREDICTED BY IDOCK:   -0.33 KCAL/MOL
REMARK 927      BINDING AFFINITY PREDICTED BY RF-SCORE:    0.00 PKD
ROOT
HETATM    1  N   UNK     1     -11.766  16.095  63.953  1.00  0.00    -1.452 NA 
HETATM    2  C   UNK     1     -11.015  15.949  65.241  1.00  0.00    -0.324 C  
HETATM    3  H1  UNK     1     -12.459  16.843  63.965  1.00  0.00     0.000 HD 
HETATM    4  H2  UNK     1     -12.197  15.210  63.685  1.00  0.00     0.000 HD 
HETATM    5  C   UNK     1     -10.341  17.292  65.553  1.00  0.00    -0.092 C  
HETATM    6  O   UNK     1      -9.370  17.447  66.273  1.00  0.00    -0.342 OA 
HETATM    7  O   UNK     1     -10.994  18.315  64.939  1.00  0.00    -0.660 OA 
ENDROOT
BRANCH   2   8
HETATM    8  C   UNK     1      -9.972  14.824  65.223  1.00  0.00    -0.296 C  
BRANCH   8   9
HETATM    9  S   UNK     1     -10.558  13.387  66.199  1.00  0.00    -0.297 SA 
BRANCH   9  10
HETATM   10  C   UNK     1     -11.035  12.286  64.815  1.00  0.00    -0.303 C  
HETATM   11  C   UNK     1     -12.459  12.528  64.349  1.00  0.00    -0.446 C  
HETATM   12  O   UNK     1     -12.962  11.921  63.413  1.00  0.00    -0.730 OA 
HETATM   13  O   UNK     1     -13.145  13.465  65.043  1.00  0.00    -0.734 OA 
ENDBRANCH   9  10
ENDBRANCH   8   9
ENDBRANCH   2   8
TORSDOF 3
ENDMDL
MODEL        3
REMARK 921   NORMALIZED FREE ENERGY PREDICTED BY IDOCK:   -4.55 KCAL/MOL
REMARK 922        TOTAL FREE ENERGY PREDICTED BY IDOCK:   -5.78 KCAL/MOL
REMARK 923 INTER-LIGAND FREE ENERGY PREDICTED BY IDOCK:   -5.69 KCAL/MOL
REMARK 924 INTRA-LIGAND FREE ENERGY PREDICTED BY IDOCK:   -0.09 KCAL/MOL
REMARK 927      BINDING AFFINITY PREDICTED BY RF-SCORE:    0.00 PKD
ROOT
HETATM    1  N   UNK     1     -12.491  14.769  63.757  1.00  0.00    -1.063 NA 
HETATM    2  C   UNK     1     -11.653  14.058  64.775  1.00  0.00    -0.381 C  
HETATM    3  H1  UNK     1     -12.668  14.220  62.916  1.00  0.00     0.000 HD 
HETATM    4  H2  UNK     1     -12.079  15.671  63.517  1.00  0.00     0.000 HD 
HETATM    5  C   UNK     1     -12.358  12.745  65.137  1.00  0.00    -0.496 C  
HETATM    6  O   UNK     1     -12.194  12.113  66.167  1.00  0.00    -0.611 OA 
HETATM    7  O   UNK     1     -13.183  12.345  64.133  1.00  0.00    -0.761 OA 
ENDROOT
BRANCH   2   8
HETATM    8  C   UNK     1     -11.387  14.884  66.041  1.00  0.00    -0.306 C  
BRANCH   8   9
HETATM    9  S   UNK     1     -10.047  16.101  65.745  1.00  0.00    -0.347 SA 
BRANCH   9  10
HETATM   10  C   UNK     1     -10.336  17.188  67.190  1.00  0.00    -0.307 C  
HETATM   11  C   UNK     1     -10.531  18.640  66.792  1.00  0.00    -0.408 C  
HETATM   12  O   UNK     1     -10.771  19.524  67.604  1.00  0.00    -0.457 OA 
HETATM   13  O   UNK     1     -10.421  18.897  65.469  1.00  0.00    -0.550 OA 
ENDBRANCH   9  10
ENDBRANCH   8   9
ENDBRANCH   2   8
TORSDOF 3
ENDMDL
MODEL        4
REMARK 921   NORMALIZED FREE ENERGY PREDICTED BY IDOCK:   -4.47 KCAL/MOL
REMARK 922        TOTAL FREE ENERGY PREDICTED BY IDOCK:   -5.69 KCAL/MOL
REMARK 923 INTER-LIGAND FREE ENERGY PREDICTED BY IDOCK:   -5.60 KCAL/MOL
REMARK 924 INTRA-LIGAND FREE ENERGY PREDICTED BY IDOCK:   -0.09 KCAL/MOL
REMARK 927      BINDING AFFINITY PREDICTED BY RF-SCORE:    0.00 PKD
ROOT
HETATM    1  N   UNK     1     -11.600  16.249  63.889  1.00  0.00    -1.573 NA 
HETATM    2  C   UNK     1     -11.147  15.137  64.785  1.00  0.00    -0.382 C  
HETATM    3  H1  UNK     1     -11.618  15.998  62.901  1.00  0.00     0.000 HD 
HETATM    4  H2  UNK     1     -11.033  17.084  64.037  1.00  0.00     0.000 HD 
HETATM    5  C   UNK     1     -12.076  13.937  64.560  1.00  0.00    -0.443 C  
HETATM    6  O   UNK     1     -12.262  13.027  65.350  1.00  0.00    -0.419 OA 
HETATM    7  O   UNK     1     -12.655  13.997  63.331  1.00  0.00    -0.845 OA 
ENDROOT
BRANCH   2   8
HETATM    8  C   UNK     1     -11.119  15.515  66.273  1.00  0.00    -0.177 C  
BRANCH   8   9
HETATM    9  S   UNK     1      -9.744  16.679  66.615  1.00  0.00    -0.282 SA 
BRANCH   9  10
HETATM   10  C   UNK     1     -10.539  17.667  67.936  1.00  0.00    -0.387 C  
HETATM   11  C   UNK     1      -9.773  18.941  68.244  1.00  0.00    -0.361 C  
HETATM   12  O   UNK     1     -10.153  19.760  69.071  1.00  0.00    -0.448 OA 
HETATM   13  O   UNK     1      -8.631  19.115  67.542  1.00  0.00    -0.282 OA 
ENDBRANCH   9  10
ENDBRANCH   8   9
ENDBRANCH   2   8
TORSDOF 3
ENDMDL
MODEL        5
REMARK 921   NORMALIZED FREE ENERGY PREDICTED BY IDOCK:   -4.47 KCAL/MOL
REMARK 922        TOTAL FREE ENERGY PREDICTED BY IDOCK:   -5.68 KCAL/MOL
REMARK 923 INTER-LIGAND FREE ENERGY PREDICTED BY IDOCK:   -5.42 KCAL/MOL
REMARK 924 INTRA-LIGAND FREE ENERGY PREDICTED BY IDOCK:   -0.26 KCAL/MOL
REMARK 927      BINDING AFFINITY PREDICTED BY RF-SCORE:    0.00 PKD
ROOT
HETATM    1  N   UNK     1     -12.333  14.367  63.631  1.00  0.00    -1.106 NA 
HETATM    2  C   UNK     1     -11.551  14.615  64.884  1.00  0.00    -0.405 C  
HETATM    3  H1  UNK     1     -13.049  15.070  63.448  1.00  0.00     0.000 HD 
HETATM    4  H2  UNK     1     -12.741  13.432  63.640  1.00  0.00     0.000 HD 
HETATM    5  C   UNK     1     -10.914  16.007  64.778  1.00  0.00    -0.356 C  
HETATM    6  O   UNK     1      -9.933  16.386  65.396  1.00  0.00    -0.534 OA 
HETATM    7  O   UNK     1     -11.610  16.795  63.916  1.00  0.00    -1.122 OA 
ENDROOT
BRANCH   2   8
HETATM    8  C   UNK     1     -10.473  13.557  65.159  1.00  0.00    -0.364 C  
BRANCH   8   9
HETATM    9  S   UNK     1     -10.800  12.704  66.749  1.00  0.00    -0.257 SA 
BRANCH   9  10
HETATM   10  C   UNK     1     -11.927  13.937  67.500  1.00  0.00    -0.386 C  
HETATM   11  C   UNK     1     -11.222  14.824  68.510  1.00  0.00    -0.276 C  
HETATM   12  O   UNK     1     -11.788  15.735  69.100  1.00  0.00    -0.381 OA 
HETATM   13  O   UNK     1      -9.917  14.540  68.720  1.00  0.00    -0.230 OA 
ENDBRANCH   9  10
ENDBRANCH   8   9
ENDBRANCH   2   8
TORSDOF 3
ENDMDL
MODEL        6
REMARK 921   NORMALIZED FREE ENERGY PREDICTED BY IDOCK:   -4.46 KCAL/MOL
REMARK 922        TOTAL FREE ENERGY PREDICTED BY IDOCK:   -5.67 KCAL/MOL
REMARK 923 INTER-LIGAND FREE ENERGY PREDICTED BY IDOCK:   -5.50 KCAL/MOL
REMARK 924 INTRA-LIGAND FREE ENERGY PREDICTED BY IDOCK:   -0.17 KCAL/MOL
REMARK 927      BINDING AFFINITY PREDICTED BY RF-SCORE:    0.00 PKD
ROOT
HETATM    1  N   UNK     1     -12.455  13.850  63.262  1.00  0.00    -1.112 NA 
HETATM    2  C   UNK     1     -11.625  14.045  64.494  1.00  0.00    -0.391 C  
HETATM    3  H1  UNK     1     -13.291  14.433  63.234  1.00  0.00     0.000 HD 
HETATM    4  H2  UNK     1     -12.698  12.867  63.143  1.00  0.00     0.000 HD 
HETATM    5  C   UNK     1     -11.242  15.528  64.580  1.00  0.00    -0.371 C  
HETATM    6  O   UNK     1     -10.292  15.980  65.196  1.00  0.00    -0.523 OA 
HETATM    7  O   UNK     1     -12.130  16.298  63.896  1.00  0.00    -0.986 OA 
ENDROOT
BRANCH   2   8
HETATM    8  C   UNK     1     -10.366  13.167  64.536  1.00  0.00    -0.368 C  
BRANCH   8   9
HETATM    9  S   UNK     1     -10.509  11.898  65.851  1.00  0.00    -0.269 SA 
BRANCH   9  10
HETATM   10  C   UNK     1     -10.885  13.002  67.263  1.00  0.00    -0.252 C  
HETATM   11  C   UNK     1     -11.725  12.316  68.325  1.00  0.00    -0.336 C  
HETATM   12  O   UNK     1     -12.058  12.868  69.366  1.00  0.00    -0.275 OA 
HETATM   13  O   UNK     1     -12.088  11.044  68.044  1.00  0.00    -0.615 OA 
ENDBRANCH   9  10
ENDBRANCH   8   9
ENDBRANCH   2   8
TORSDOF 3
ENDMDL
MODEL        7
REMARK 921   NORMALIZED FREE ENERGY PREDICTED BY IDOCK:   -4.42 KCAL/MOL
REMARK 922        TOTAL FREE ENERGY PREDICTED BY IDOCK:   -5.62 KCAL/MOL
REMARK 923 INTER-LIGAND FREE ENERGY PREDICTED BY IDOCK:   -5.21 KCAL/MOL
REMARK 924 INTRA-LIGAND FREE ENERGY PREDICTED BY IDOCK:   -0.42 KCAL/MOL
REMARK 927      BINDING AFFINITY PREDICTED BY RF-SCORE:    0.00 PKD
ROOT
HETATM    1  N   UNK     1     -10.169  13.606  64.365  1.00  0.00    -0.712 NA 
HETATM    2  C   UNK     1     -10.755  12.450  63.613  1.00  0.00    -0.455 C  
HETATM    3  H1  UNK     1     -10.327  14.509  63.918  1.00  0.00     0.000 HD 
HETATM    4  H2  UNK     1      -9.173  13.458  64.534  1.00  0.00     0.000 HD 
HETATM    5  C   UNK     1     -12.259  12.704  63.449  1.00  0.00    -0.517 C  
HETATM    6  O   UNK     1     -13.104  11.849  63.248  1.00  0.00    -0.674 OA 
HETATM    7  O   UNK     1     -12.537  14.033  63.525  1.00  0.00    -0.842 OA 
ENDROOT
BRANCH   2   8
HETATM    8  C   UNK     1     -10.516  11.091  64.285  1.00  0.00    -0.359 C  
BRANCH   8   9
HETATM    9  S   UNK     1      -9.395  11.274  65.725  1.00  0.00    -0.224 SA 
BRANCH   9  10
HETATM   10  C   UNK     1     -10.465  10.522  67.007  1.00  0.00    -0.249 C  
HETATM   11  C   UNK     1     -11.454  11.516  67.590  1.00  0.00    -0.285 C  
HETATM   12  O   UNK     1     -12.282  11.208  68.437  1.00  0.00    -0.610 OA 
HETATM   13  O   UNK     1     -11.358  12.777  67.112  1.00  0.00    -0.281 OA 
ENDBRANCH   9  10
ENDBRANCH   8   9
ENDBRANCH   2   8
TORSDOF 3
ENDMDL
MODEL        8
REMARK 921   NORMALIZED FREE ENERGY PREDICTED BY IDOCK:   -4.35 KCAL/MOL
REMARK 922        TOTAL FREE ENERGY PREDICTED BY IDOCK:   -5.55 KCAL/MOL
REMARK 923 INTER-LIGAND FREE ENERGY PREDICTED BY IDOCK:   -5.41 KCAL/MOL
REMARK 924 INTRA-LIGAND FREE ENERGY PREDICTED BY IDOCK:   -0.14 KCAL/MOL
REMARK 927      BINDING AFFINITY PREDICTED BY RF-SCORE:    0.00 PKD
ROOT
HETATM    1  N   UNK     1     -11.660  16.219  63.847  1.00  0.00    -1.573 NA 
HETATM    2  C   UNK     1     -11.099  15.083  64.647  1.00  0.00    -0.321 C  
HETATM    3  H1  UNK     1     -11.787  16.001  62.859  1.00  0.00     0.000 HD 
HETATM    4  H2  UNK     1     -11.089  17.056  63.961  1.00  0.00     0.000 HD 
HETATM    5  C   UNK     1     -12.034  13.879  64.485  1.00  0.00    -0.437 C  
HETATM    6  O   UNK     1     -12.122  12.940  65.258  1.00  0.00    -0.397 OA 
HETATM    7  O   UNK     1     -12.748  13.972  63.331  1.00  0.00    -0.796 OA 
ENDROOT
BRANCH   2   8
HETATM    8  C   UNK     1     -10.908  15.411  66.135  1.00  0.00    -0.313 C  
BRANCH   8   9
HETATM    9  S   UNK     1      -9.184  15.943  66.461  1.00  0.00    -0.308 SA 
BRANCH   9  10
HETATM   10  C   UNK     1      -9.505  17.703  66.851  1.00  0.00    -0.276 C  
HETATM   11  C   UNK     1      -9.737  17.934  68.333  1.00  0.00    -0.340 C  
HETATM   12  O   UNK     1      -9.935  19.044  68.809  1.00  0.00    -0.391 OA 
HETATM   13  O   UNK     1      -9.712  16.822  69.103  1.00  0.00    -0.257 OA 
ENDBRANCH   9  10
ENDBRANCH   8   9
ENDBRANCH   2   8
TORSDOF 3
ENDMDL
MODEL        9
REMARK 921   NORMALIZED FREE ENERGY PREDICTED BY IDOCK:   -4.31 KCAL/MOL
REMARK 922        TOTAL FREE ENERGY PREDICTED BY IDOCK:   -5.50 KCAL/MOL
REMARK 923 INTER-LIGAND FREE ENERGY PREDICTED BY IDOCK:   -5.05 KCAL/MOL
REMARK 924 INTRA-LIGAND FREE ENERGY PREDICTED BY IDOCK:   -0.45 KCAL/MOL
REMARK 927      BINDING AFFINITY PREDICTED BY RF-SCORE:    0.00 PKD
ROOT
HETATM    1  N   UNK     1     -11.167  16.559  64.156  1.00  0.00    -1.413 NA 
HETATM    2  C   UNK     1     -10.601  15.263  64.650  1.00  0.00    -0.121 C  
HETATM    3  H1  UNK     1     -11.656  16.480  63.264  1.00  0.00     0.000 HD 
HETATM    4  H2  UNK     1     -10.441  17.274  64.105  1.00  0.00     0.000 HD 
HETATM    5  C   UNK     1     -11.751  14.254  64.763  1.00  0.00    -0.415 C  
HETATM    6  O   UNK     1     -11.754  13.260  65.469  1.00  0.00    -0.321 OA 
HETATM    7  O   UNK     1     -12.777  14.595  63.938  1.00  0.00    -0.788 OA 
ENDROOT
BRANCH   2   8
HETATM    8  C   UNK     1      -9.865  15.382  65.991  1.00  0.00    -0.326 C  
BRANCH   8   9
HETATM    9  S   UNK     1     -10.658  16.652  67.050  1.00  0.00    -0.192 SA 
BRANCH   9  10
HETATM   10  C   UNK     1      -9.273  17.847  67.136  1.00  0.00    -0.258 C  
HETATM   11  C   UNK     1      -9.498  19.057  66.248  1.00  0.00    -0.314 C  
HETATM   12  O   UNK     1      -8.707  19.990  66.186  1.00  0.00    -0.344 OA 
HETATM   13  O   UNK     1     -10.637  19.038  65.520  1.00  0.00    -0.557 OA 
ENDBRANCH   9  10
ENDBRANCH   8   9
ENDBRANCH   2   8
TORSDOF 3
ENDMDL
MODEL       10
REMARK 921   NORMALIZED FREE ENERGY PREDICTED BY IDOCK:   -4.29 KCAL/MOL
REMARK 922        TOTAL FREE ENERGY PREDICTED BY IDOCK:   -5.47 KCAL/MOL
REMARK 923 INTER-LIGAND FREE ENERGY PREDICTED BY IDOCK:   -5.35 KCAL/MOL
REMARK 924 INTRA-LIGAND FREE ENERGY PREDICTED BY IDOCK:   -0.12 KCAL/MOL
REMARK 927      BINDING AFFINITY PREDICTED BY RF-SCORE:    0.00 PKD
ROOT
HETATM    1  N   UNK     1     -11.412  16.527  64.041  1.00  0.00    -1.581 NA 
HETATM    2  C   UNK     1     -10.979  15.431  64.966  1.00  0.00    -0.436 C  
HETATM    3  H1  UNK     1     -11.573  16.215  63.083  1.00  0.00     0.000 HD 
HETATM    4  H2  UNK     1     -10.745  17.299  64.060  1.00  0.00     0.000 HD 
HETATM    5  C   UNK     1     -12.052  14.334  64.938  1.00  0.00    -0.435 C  
HETATM    6  O   UNK     1     -12.241  13.505  65.812  1.00  0.00    -0.407 OA 
HETATM    7  O   UNK     1     -12.762  14.380  63.779  1.00  0.00    -0.785 OA 
ENDROOT
BRANCH   2   8
HETATM    8  C   UNK     1     -10.737  15.900  66.407  1.00  0.00    -0.256 C  
BRANCH   8   9
HETATM    9  S   UNK     1     -10.512  17.719  66.463  1.00  0.00    -0.246 SA 
BRANCH   9  10
HETATM   10  C   UNK     1      -9.209  17.798  67.747  1.00  0.00    -0.256 C  
HETATM   11  C   UNK     1      -7.833  18.050  67.158  1.00  0.00    -0.217 C  
HETATM   12  O   UNK     1      -6.829  18.172  67.848  1.00  0.00    -0.204 OA 
HETATM   13  O   UNK     1      -7.786  18.130  65.809  1.00  0.00    -0.523 OA 
ENDBRANCH   9  10
ENDBRANCH   8   9
ENDBRANCH   2   8
TORSDOF 3
ENDMDL
MODEL       11
REMARK 921   NORMALIZED FREE ENERGY PREDICTED BY IDOCK:   -4.25 KCAL/MOL
REMARK 922        TOTAL FREE ENERGY PREDICTED BY IDOCK:   -5.42 KCAL/MOL
REMARK 923 INTER-LIGAND FREE ENERGY PREDICTED BY IDOCK:   -5.03 KCAL/MOL
REMARK 924 INTRA-LIGAND FREE ENERGY PREDICTED BY IDOCK:   -0.39 KCAL/MOL
REMARK 927      BINDING AFFINITY PREDICTED BY RF-SCORE:    0.00 PKD
ROOT
HETATM    1  N   UNK     1     -12.275  10.679  68.882  1.00  0.00    -0.793 NA 
HETATM    2  C   UNK     1     -11.919  11.612  69.999  1.00  0.00    -0.351 C  
HETATM    3  H1  UNK     1     -12.263   9.695  69.150  1.00  0.00     0.000 HD 
HETATM    4  H2  UNK     1     -11.674  10.839  68.073  1.00  0.00     0.000 HD 
HETATM    5  C   UNK     1     -12.897  11.365  71.155  1.00  0.00    -0.341 C  
HETATM    6  O   UNK     1     -13.164  12.160  72.040  1.00  0.00    -0.499 OA 
HETATM    7  O   UNK     1     -13.417  10.110  71.088  1.00  0.00    -0.342 OA 
ENDROOT
BRANCH   2   8
HETATM    8  C   UNK     1     -11.938  13.093  69.595  1.00  0.00    -0.306 C  
BRANCH   8   9
HETATM    9  S   UNK     1     -10.613  13.445  68.377  1.00  0.00    -0.251 SA 
BRANCH   9  10
HETATM   10  C   UNK     1     -11.586  14.442  67.189  1.00  0.00    -0.386 C  
HETATM   11  C   UNK     1     -12.274  13.585  66.142  1.00  0.00    -0.433 C  
HETATM   12  O   UNK     1     -13.001  14.052  65.275  1.00  0.00    -0.743 OA 
HETATM   13  O   UNK     1     -12.028  12.258  66.227  1.00  0.00    -0.588 OA 
ENDBRANCH   9  10
ENDBRANCH   8   9
ENDBRANCH   2   8
TORSDOF 3
ENDMDL
MODEL       12
REMARK 921   NORMALIZED FREE ENERGY PREDICTED BY IDOCK:   -4.24 KCAL/MOL
REMARK 922        TOTAL FREE ENERGY PREDICTED BY IDOCK:   -5.42 KCAL/MOL
REMARK 923 INTER-LIGAND FREE ENERGY PREDICTED BY IDOCK:   -5.29 KCAL/MOL
REMARK 924 INTRA-LIGAND FREE ENERGY PREDICTED BY IDOCK:   -0.12 KCAL/MOL
REMARK 927      BINDING AFFINITY PREDICTED BY RF-SCORE:    0.00 PKD
ROOT
HETATM    1  N   UNK     1     -12.500  14.203  63.330  1.00  0.00    -1.098 NA 
HETATM    2  C   UNK     1     -11.781  14.292  64.641  1.00  0.00    -0.430 C  
HETATM    3  H1  UNK     1     -13.201  14.931  63.196  1.00  0.00     0.000 HD 
HETATM    4  H2  UNK     1     -12.914  13.278  63.208  1.00  0.00     0.000 HD 
HETATM    5  C   UNK     1     -11.131  15.678  64.733  1.00  0.00    -0.412 C  
HETATM    6  O   UNK     1     -10.181  15.970  65.440  1.00  0.00    -0.437 OA 
HETATM    7  O   UNK     1     -11.778  16.571  63.937  1.00  0.00    -1.148 OA 
ENDROOT
BRANCH   2   8
HETATM    8  C   UNK     1     -10.726  13.196  64.843  1.00  0.00    -0.346 C  
BRANCH   8   9
HETATM    9  S   UNK     1     -11.122  11.726  63.820  1.00  0.00    -0.456 SA 
BRANCH   9  10
HETATM   10  C   UNK     1      -9.415  11.186  63.437  1.00  0.00    -0.305 C  
HETATM   11  C   UNK     1      -8.956  10.044  64.325  1.00  0.00    -0.236 C  
HETATM   12  O   UNK     1      -7.858   9.514  64.210  1.00  0.00    -0.117 OA 
HETATM   13  O   UNK     1      -9.845   9.648  65.264  1.00  0.00    -0.310 OA 
ENDBRANCH   9  10
ENDBRANCH   8   9
ENDBRANCH   2   8
TORSDOF 3
ENDMDL
MODEL       13
REMARK 921   NORMALIZED FREE ENERGY PREDICTED BY IDOCK:   -4.20 KCAL/MOL
REMARK 922        TOTAL FREE ENERGY PREDICTED BY IDOCK:   -5.37 KCAL/MOL
REMARK 923 INTER-LIGAND FREE ENERGY PREDICTED BY IDOCK:   -4.75 KCAL/MOL
REMARK 924 INTRA-LIGAND FREE ENERGY PREDICTED BY IDOCK:   -0.62 KCAL/MOL
REMARK 927      BINDING AFFINITY PREDICTED BY RF-SCORE:    0.00 PKD
ROOT
HETATM    1  N   UNK     1     -13.061  14.087  65.700  1.00  0.00    -0.622 NA 
HETATM    2  C   UNK     1     -12.061  14.132  64.585  1.00  0.00    -0.452 C  
HETATM    3  H1  UNK     1     -14.004  13.844  65.396  1.00  0.00     0.000 HD 
HETATM    4  H2  UNK     1     -13.066  14.968  66.215  1.00  0.00     0.000 HD 
HETATM    5  C   UNK     1     -12.059  12.763  63.893  1.00  0.00    -0.486 C  
HETATM    6  O   UNK     1     -11.144  12.306  63.228  1.00  0.00    -0.427 OA 
HETATM    7  O   UNK     1     -13.240  12.119  64.090  1.00  0.00    -0.740 OA 
ENDROOT
BRANCH   2   8
HETATM    8  C   UNK     1     -10.642  14.499  65.042  1.00  0.00    -0.437 C  
BRANCH   8   9
HETATM    9  S   UNK     1     -10.413  14.093  66.816  1.00  0.00    -0.280 SA 
BRANCH   9  10
HETATM   10  C   UNK     1      -9.620  12.454  66.625  1.00  0.00    -0.229 C  
HETATM   11  C   UNK     1     -10.591  11.311  66.860  1.00  0.00    -0.257 C  
HETATM   12  O   UNK     1     -10.270  10.135  66.749  1.00  0.00    -0.212 OA 
HETATM   13  O   UNK     1     -11.845  11.678  67.208  1.00  0.00    -0.609 OA 
ENDBRANCH   9  10
ENDBRANCH   8   9
ENDBRANCH   2   8
TORSDOF 3
ENDMDL
MODEL       14
REMARK 921   NORMALIZED FREE ENERGY PREDICTED BY IDOCK:   -4.16 KCAL/MOL
REMARK 922        TOTAL FREE ENERGY PREDICTED BY IDOCK:   -5.32 KCAL/MOL
REMARK 923 INTER-LIGAND FREE ENERGY PREDICTED BY IDOCK:   -5.17 KCAL/MOL
REMARK 924 INTRA-LIGAND FREE ENERGY PREDICTED BY IDOCK:   -0.14 KCAL/MOL
REMARK 927      BINDING AFFINITY PREDICTED BY RF-SCORE:    0.00 PKD
ROOT
HETATM    1  N   UNK     1     -11.852  11.520  62.972  1.00  0.00    -0.897 NA 
HETATM    2  C   UNK     1     -10.723  11.929  63.868  1.00  0.00    -0.395 C  
HETATM    3  H1  UNK     1     -11.595  11.468  61.986  1.00  0.00     0.000 HD 
HETATM    4  H2  UNK     1     -12.656  12.134  63.102  1.00  0.00     0.000 HD 
HETATM    5  C   UNK     1      -9.575  10.932  63.671  1.00  0.00    -0.302 C  
HETATM    6  O   UNK     1      -8.682  10.711  64.472  1.00  0.00    -0.183 OA 
HETATM    7  O   UNK     1      -9.657  10.332  62.453  1.00  0.00    -0.278 OA 
ENDROOT
BRANCH   2   8
HETATM    8  C   UNK     1     -11.110  12.007  65.351  1.00  0.00    -0.320 C  
BRANCH   8   9
HETATM    9  S   UNK     1     -12.315  13.361  65.632  1.00  0.00    -0.467 SA 
BRANCH   9  10
HETATM   10  C   UNK     1     -11.169  14.783  65.509  1.00  0.00    -0.346 C  
HETATM   11  C   UNK     1     -11.650  15.829  64.521  1.00  0.00    -0.247 C  
HETATM   12  O   UNK     1     -11.046  16.874  64.315  1.00  0.00    -1.135 OA 
HETATM   13  O   UNK     1     -12.798  15.530  63.872  1.00  0.00    -0.605 OA 
ENDBRANCH   9  10
ENDBRANCH   8   9
ENDBRANCH   2   8
TORSDOF 3
ENDMDL
MODEL       15
REMARK 921   NORMALIZED FREE ENERGY PREDICTED BY IDOCK:   -4.14 KCAL/MOL
REMARK 922        TOTAL FREE ENERGY PREDICTED BY IDOCK:   -5.29 KCAL/MOL
REMARK 923 INTER-LIGAND FREE ENERGY PREDICTED BY IDOCK:   -4.73 KCAL/MOL
REMARK 924 INTRA-LIGAND FREE ENERGY PREDICTED BY IDOCK:   -0.56 KCAL/MOL
REMARK 927      BINDING AFFINITY PREDICTED BY RF-SCORE:    0.00 PKD
ROOT
HETATM    1  N   UNK     1      -9.998  13.894  64.434  1.00  0.00    -0.701 NA 
HETATM    2  C   UNK     1     -10.817  12.670  64.162  1.00  0.00    -0.396 C  
HETATM    3  H1  UNK     1     -10.173  14.658  63.782  1.00  0.00     0.000 HD 
HETATM    4  H2  UNK     1      -9.004  13.665  64.460  1.00  0.00     0.000 HD 
HETATM    5  C   UNK     1     -12.297  13.070  64.199  1.00  0.00    -0.358 C  
HETATM    6  O   UNK     1     -13.231  12.313  64.404  1.00  0.00    -0.806 OA 
HETATM    7  O   UNK     1     -12.447  14.396  63.937  1.00  0.00    -0.798 OA 
ENDROOT
BRANCH   2   8
HETATM    8  C   UNK     1     -10.553  11.520  65.144  1.00  0.00    -0.293 C  
BRANCH   8   9
HETATM    9  S   UNK     1      -9.509  12.091  66.539  1.00  0.00    -0.231 SA 
BRANCH   9  10
HETATM   10  C   UNK     1     -10.808  12.226  67.821  1.00  0.00    -0.221 C  
HETATM   11  C   UNK     1     -11.371  13.632  67.928  1.00  0.00    -0.295 C  
HETATM   12  O   UNK     1     -12.273  13.928  68.701  1.00  0.00    -0.345 OA 
HETATM   13  O   UNK     1     -10.805  14.546  67.109  1.00  0.00    -0.285 OA 
ENDBRANCH   9  10
ENDBRANCH   8   9
ENDBRANCH   2   8
TORSDOF 3
ENDMDL
MODEL       16
REMARK 921   NORMALIZED FREE ENERGY PREDICTED BY IDOCK:   -4.13 KCAL/MOL
REMARK 922        TOTAL FREE ENERGY PREDICTED BY IDOCK:   -5.29 KCAL/MOL
REMARK 923 INTER-LIGAND FREE ENERGY PREDICTED BY IDOCK:   -5.19 KCAL/MOL
REMARK 924 INTRA-LIGAND FREE ENERGY PREDICTED BY IDOCK:   -0.10 KCAL/MOL
REMARK 927      BINDING AFFINITY PREDICTED BY RF-SCORE:    0.00 PKD
ROOT
HETATM    1  N   UNK     1     -12.179  11.053  68.308  1.00  0.00    -0.736 NA 
HETATM    2  C   UNK     1     -11.600  12.361  68.754  1.00  0.00    -0.326 C  
HETATM    3  H1  UNK     1     -11.938  10.270  68.915  1.00  0.00     0.000 HD 
HETATM    4  H2  UNK     1     -11.917  10.854  67.342  1.00  0.00     0.000 HD 
HETATM    5  C   UNK     1     -12.083  12.630  70.185  1.00  0.00    -0.294 C  
HETATM    6  O   UNK     1     -12.142  13.725  70.719  1.00  0.00    -0.341 OA 
HETATM    7  O   UNK     1     -12.412  11.469  70.812  1.00  0.00    -0.362 OA 
ENDROOT
BRANCH   2   8
HETATM    8  C   UNK     1     -11.963  13.540  67.841  1.00  0.00    -0.337 C  
BRANCH   8   9
HETATM    9  S   UNK     1     -11.382  13.231  66.129  1.00  0.00    -0.319 SA 
BRANCH   9  10
HETATM   10  C   UNK     1     -10.990  14.955  65.653  1.00  0.00    -0.344 C  
HETATM   11  C   UNK     1     -11.863  15.454  64.517  1.00  0.00    -0.256 C  
HETATM   12  O   UNK     1     -11.785  16.591  64.070  1.00  0.00    -1.111 OA 
HETATM   13  O   UNK     1     -12.740  14.552  64.021  1.00  0.00    -0.759 OA 
ENDBRANCH   9  10
ENDBRANCH   8   9
ENDBRANCH   2   8
TORSDOF 3
ENDMDL
MODEL       17
REMARK 921   NORMALIZED FREE ENERGY PREDICTED BY IDOCK:   -4.10 KCAL/MOL
REMARK 922        TOTAL FREE ENERGY PREDICTED BY IDOCK:   -5.25 KCAL/MOL
REMARK 923 INTER-LIGAND FREE ENERGY PREDICTED BY IDOCK:   -4.86 KCAL/MOL
REMARK 924 INTRA-LIGAND FREE ENERGY PREDICTED BY IDOCK:   -0.39 KCAL/MOL
REMARK 927      BINDING AFFINITY PREDICTED BY RF-SCORE:    0.00 PKD
ROOT
HETATM    1  N   UNK     1     -10.474  16.053  66.079  1.00  0.00    -0.334 NA 
HETATM    2  C   UNK     1     -10.888  14.785  65.395  1.00  0.00    -0.363 C  
HETATM    3  H1  UNK     1     -10.029  16.727  65.457  1.00  0.00     0.000 HD 
HETATM    4  H2  UNK     1      -9.875  15.851  66.880  1.00  0.00     0.000 HD 
HETATM    5  C   UNK     1     -11.834  15.153  64.245  1.00  0.00    -0.251 C  
HETATM    6  O   UNK     1     -12.649  14.405  63.731  1.00  0.00    -0.829 OA 
HETATM    7  O   UNK     1     -11.626  16.433  63.837  1.00  0.00    -1.100 OA 
ENDROOT
BRANCH   2   8
HETATM    8  C   UNK     1     -11.559  13.770  66.331  1.00  0.00    -0.360 C  
BRANCH   8   9
HETATM    9  S   UNK     1     -10.586  13.576  67.874  1.00  0.00    -0.253 SA 
BRANCH   9  10
HETATM   10  C   UNK     1     -11.946  13.768  69.085  1.00  0.00    -0.361 C  
HETATM   11  C   UNK     1     -12.030  15.179  69.640  1.00  0.00    -0.329 C  
HETATM   12  O   UNK     1     -12.890  15.527  70.438  1.00  0.00    -0.410 OA 
HETATM   13  O   UNK     1     -11.083  16.034  69.193  1.00  0.00    -0.273 OA 
ENDBRANCH   9  10
ENDBRANCH   8   9
ENDBRANCH   2   8
TORSDOF 3
ENDMDL
MODEL       18
REMARK 921   NORMALIZED FREE ENERGY PREDICTED BY IDOCK:   -4.09 KCAL/MOL
REMARK 922        TOTAL FREE ENERGY PREDICTED BY IDOCK:   -5.24 KCAL/MOL
REMARK 923 INTER-LIGAND FREE ENERGY PREDICTED BY IDOCK:   -4.80 KCAL/MOL
REMARK 924 INTRA-LIGAND FREE ENERGY PREDICTED BY IDOCK:   -0.44 KCAL/MOL
REMARK 927      BINDING AFFINITY PREDICTED BY RF-SCORE:    0.00 PKD
ROOT
HETATM    1  N   UNK     1     -13.064  14.027  65.322  1.00  0.00    -0.765 NA 
HETATM    2  C   UNK     1     -11.980  14.067  64.289  1.00  0.00    -0.435 C  
HETATM    3  H1  UNK     1     -13.971  13.740  64.954  1.00  0.00     0.000 HD 
HETATM    4  H2  UNK     1     -13.139  14.925  65.801  1.00  0.00     0.000 HD 
HETATM    5  C   UNK     1     -11.877  12.675  63.654  1.00  0.00    -0.530 C  
HETATM    6  O   UNK     1     -10.897  12.227  63.082  1.00  0.00    -0.377 OA 
HETATM    7  O   UNK     1     -13.049  11.996  63.781  1.00  0.00    -0.730 OA 
ENDROOT
BRANCH   2   8
HETATM    8  C   UNK     1     -10.615  14.500  64.844  1.00  0.00    -0.427 C  
BRANCH   8   9
HETATM    9  S   UNK     1     -10.259  13.636  66.422  1.00  0.00    -0.298 SA 
BRANCH   9  10
HETATM   10  C   UNK     1     -10.295  15.083  67.544  1.00  0.00    -0.241 C  
HETATM   11  C   UNK     1     -11.457  15.027  68.520  1.00  0.00    -0.317 C  
HETATM   12  O   UNK     1     -11.643  15.880  69.379  1.00  0.00    -0.337 OA 
HETATM   13  O   UNK     1     -12.282  13.965  68.379  1.00  0.00    -0.339 OA 
ENDBRANCH   9  10
ENDBRANCH   8   9
ENDBRANCH   2   8
TORSDOF 3
ENDMDL
MODEL       19
REMARK 921   NORMALIZED FREE ENERGY PREDICTED BY IDOCK:   -4.09 KCAL/MOL
REMARK 922        TOTAL FREE ENERGY PREDICTED BY IDOCK:   -5.23 KCAL/MOL
REMARK 923 INTER-LIGAND FREE ENERGY PREDICTED BY IDOCK:   -5.03 KCAL/MOL
REMARK 924 INTRA-LIGAND FREE ENERGY PREDICTED BY IDOCK:   -0.21 KCAL/MOL
REMARK 927      BINDING AFFINITY PREDICTED BY RF-SCORE:    0.00 PKD
ROOT
HETATM    1  N   UNK     1     -10.637  16.380  66.593  1.00  0.00    -0.279 NA 
HETATM    2  C   UNK     1     -11.085  15.146  65.869  1.00  0.00    -0.319 C  
HETATM    3  H1  UNK     1     -10.018  16.975  66.043  1.00  0.00     0.000 HD 
HETATM    4  H2  UNK     1     -10.205  16.138  67.484  1.00  0.00     0.000 HD 
HETATM    5  C   UNK     1     -11.780  15.582  64.573  1.00  0.00    -0.253 C  
HETATM    6  O   UNK     1     -12.586  14.917  63.943  1.00  0.00    -0.831 OA 
HETATM    7  O   UNK     1     -11.355  16.814  64.185  1.00  0.00    -1.194 OA 
ENDROOT
BRANCH   2   8
HETATM    8  C   UNK     1     -12.017  14.250  66.697  1.00  0.00    -0.430 C  
BRANCH   8   9
HETATM    9  S   UNK     1     -11.476  12.500  66.604  1.00  0.00    -0.377 SA 
BRANCH   9  10
HETATM   10  C   UNK     1     -10.095  12.699  65.418  1.00  0.00    -0.261 C  
HETATM   11  C   UNK     1     -10.428  12.143  64.046  1.00  0.00    -0.386 C  
HETATM   12  O   UNK     1      -9.654  12.205  63.099  1.00  0.00    -0.339 OA 
HETATM   13  O   UNK     1     -11.646  11.565  63.934  1.00  0.00    -0.356 OA 
ENDBRANCH   9  10
ENDBRANCH   8   9
ENDBRANCH   2   8
TORSDOF 3
ENDMDL
MODEL       20
REMARK 921   NORMALIZED FREE ENERGY PREDICTED BY IDOCK:   -4.08 KCAL/MOL
REMARK 922        TOTAL FREE ENERGY PREDICTED BY IDOCK:   -5.22 KCAL/MOL
REMARK 923 INTER-LIGAND FREE ENERGY PREDICTED BY IDOCK:   -5.05 KCAL/MOL
REMARK 924 INTRA-LIGAND FREE ENERGY PREDICTED BY IDOCK:   -0.17 KCAL/MOL
REMARK 927      BINDING AFFINITY PREDICTED BY RF-SCORE:    0.00 PKD
ROOT
HETATM    1  N   UNK     1     -10.036  13.087  63.858  1.00  0.00    -0.757 NA 
HETATM    2  C   UNK     1     -11.013  12.880  64.975  1.00  0.00    -0.297 C  
HETATM    3  H1  UNK     1     -10.380  12.775  62.950  1.00  0.00     0.000 HD 
HETATM    4  H2  UNK     1      -9.142  12.645  64.074  1.00  0.00     0.000 HD 
HETATM    5  C   UNK     1     -12.308  13.619  64.617  1.00  0.00    -0.371 C  
HETATM    6  O   UNK     1     -13.153  13.995  65.412  1.00  0.00    -0.763 OA 
HETATM    7  O   UNK     1     -12.418  13.779  63.271  1.00  0.00    -0.819 OA 
ENDROOT
BRANCH   2   8
HETATM    8  C   UNK     1     -10.494  13.349  66.342  1.00  0.00    -0.286 C  
BRANCH   8   9
HETATM    9  S   UNK     1      -9.544  14.907  66.170  1.00  0.00    -0.304 SA 
BRANCH   9  10
HETATM   10  C   UNK     1     -10.454  15.924  67.391  1.00  0.00    -0.306 C  
HETATM   11  C   UNK     1     -10.255  17.412  67.167  1.00  0.00    -0.323 C  
HETATM   12  O   UNK     1     -10.803  18.265  67.853  1.00  0.00    -0.363 OA 
HETATM   13  O   UNK     1      -9.422  17.739  66.153  1.00  0.00    -0.457 OA 
ENDBRANCH   9  10
ENDBRANCH   8   9
ENDBRANCH   2   8
TORSDOF 3
ENDMDL
MODEL       21
REMARK 921   NORMALIZED FREE ENERGY PREDICTED BY IDOCK:   -4.07 KCAL/MOL
REMARK 922        TOTAL FREE ENERGY PREDICTED BY IDOCK:   -5.21 KCAL/MOL
REMARK 923 INTER-LIGAND FREE ENERGY PREDICTED BY IDOCK:   -4.96 KCAL/MOL
REMARK 924 INTRA-LIGAND FREE ENERGY PREDICTED BY IDOCK:   -0.25 KCAL/MOL
REMARK 927      BINDING AFFINITY PREDICTED BY RF-SCORE:    0.00 PKD
ROOT
HETATM    1  N   UNK     1     -10.160  12.638  63.334  1.00  0.00    -0.633 NA 
HETATM    2  C   UNK     1     -10.802  12.943  64.653  1.00  0.00    -0.342 C  
HETATM    3  H1  UNK     1     -10.463  11.755  62.925  1.00  0.00     0.000 HD 
HETATM    4  H2  UNK     1      -9.143  12.667  63.413  1.00  0.00     0.000 HD 
HETATM    5  C   UNK     1     -12.323  12.946  64.452  1.00  0.00    -0.398 C  
HETATM    6  O   UNK     1     -13.131  13.513  65.168  1.00  0.00    -0.737 OA 
HETATM    7  O   UNK     1     -12.670  12.195  63.373  1.00  0.00    -0.722 OA 
ENDROOT
BRANCH   2   8
HETATM    8  C   UNK     1     -10.345  14.273  65.269  1.00  0.00    -0.395 C  
BRANCH   8   9
HETATM    9  S   UNK     1      -9.678  14.006  66.956  1.00  0.00    -0.264 SA 
BRANCH   9  10
HETATM   10  C   UNK     1     -10.220  12.273  67.198  1.00  0.00    -0.211 C  
HETATM   11  C   UNK     1     -11.457  12.172  68.071  1.00  0.00    -0.319 C  
HETATM   12  O   UNK     1     -12.001  11.106  68.329  1.00  0.00    -0.592 OA 
HETATM   13  O   UNK     1     -11.923  13.345  68.555  1.00  0.00    -0.348 OA 
ENDBRANCH   9  10
ENDBRANCH   8   9
ENDBRANCH   2   8
TORSDOF 3
ENDMDL
MODEL       22
REMARK 921   NORMALIZED FREE ENERGY PREDICTED BY IDOCK:   -4.06 KCAL/MOL
REMARK 922        TOTAL FREE ENERGY PREDICTED BY IDOCK:   -5.20 KCAL/MOL
REMARK 923 INTER-LIGAND FREE ENERGY PREDICTED BY IDOCK:   -5.11 KCAL/MOL
REMARK 924 INTRA-LIGAND FREE ENERGY PREDICTED BY IDOCK:   -0.09 KCAL/MOL
REMARK 927      BINDING AFFINITY PREDICTED BY RF-SCORE:    0.00 PKD
ROOT
HETATM    1  N   UNK     1     -11.880  16.329  71.250  1.00  0.00    -0.636 NA 
HETATM    2  C   UNK     1     -12.962  15.344  70.927  1.00  0.00    -0.478 C  
HETATM    3  H1  UNK     1     -12.225  17.196  71.661  1.00  0.00     0.000 HD 
HETATM    4  H2  UNK     1     -11.312  16.523  70.425  1.00  0.00     0.000 HD 
HETATM    5  C   UNK     1     -13.736  15.048  72.218  1.00  0.00    -0.468 C  
HETATM    6  O   UNK     1     -14.403  14.049  72.432  1.00  0.00    -0.614 OA 
HETATM    7  O   UNK     1     -13.612  16.073  73.103  1.00  0.00    -0.589 OA 
ENDROOT
BRANCH   2   8
HETATM    8  C   UNK     1     -12.444  14.038  70.308  1.00  0.00    -0.338 C  
BRANCH   8   9
HETATM    9  S   UNK     1     -11.491  14.385  68.780  1.00  0.00    -0.309 SA 
BRANCH   9  10
HETATM   10  C   UNK     1     -12.005  12.929  67.796  1.00  0.00    -0.283 C  
HETATM   11  C   UNK     1     -12.015  13.213  66.305  1.00  0.00    -0.415 C  
HETATM   12  O   UNK     1     -12.297  12.364  65.469  1.00  0.00    -0.621 OA 
HETATM   13  O   UNK     1     -11.692  14.479  65.954  1.00  0.00    -0.361 OA 
ENDBRANCH   9  10
ENDBRANCH   8   9
ENDBRANCH   2   8
TORSDOF 3
ENDMDL
MODEL       23
REMARK 921   NORMALIZED FREE ENERGY PREDICTED BY IDOCK:   -4.03 KCAL/MOL
REMARK 922        TOTAL FREE ENERGY PREDICTED BY IDOCK:   -5.17 KCAL/MOL
REMARK 923 INTER-LIGAND FREE ENERGY PREDICTED BY IDOCK:   -4.54 KCAL/MOL
REMARK 924 INTRA-LIGAND FREE ENERGY PREDICTED BY IDOCK:   -0.62 KCAL/MOL
REMARK 927      BINDING AFFINITY PREDICTED BY RF-SCORE:    0.00 PKD
ROOT
HETATM    1  N   UNK     1      -9.091  12.705  66.061  1.00  0.00    -0.434 NA 
HETATM    2  C   UNK     1     -10.065  13.048  67.147  1.00  0.00    -0.244 C  
HETATM    3  H1  UNK     1      -8.597  11.827  66.216  1.00  0.00     0.000 HD 
HETATM    4  H2  UNK     1      -8.431  13.469  65.915  1.00  0.00     0.000 HD 
HETATM    5  C   UNK     1     -11.064  11.891  67.272  1.00  0.00    -0.288 C  
HETATM    6  O   UNK     1     -12.183  11.970  67.751  1.00  0.00    -0.474 OA 
HETATM    7  O   UNK     1     -10.527  10.734  66.803  1.00  0.00    -0.234 OA 
ENDROOT
BRANCH   2   8
HETATM    8  C   UNK     1     -10.809  14.370  66.915  1.00  0.00    -0.301 C  
BRANCH   8   9
HETATM    9  S   UNK     1     -10.730  14.851  65.147  1.00  0.00    -0.435 SA 
BRANCH   9  10
HETATM   10  C   UNK     1     -12.300  14.097  64.583  1.00  0.00    -0.410 C  
HETATM   11  C   UNK     1     -12.077  12.826  63.784  1.00  0.00    -0.517 C  
HETATM   12  O   UNK     1     -12.997  12.149  63.344  1.00  0.00    -0.776 OA 
HETATM   13  O   UNK     1     -10.783  12.487  63.585  1.00  0.00    -0.430 OA 
ENDBRANCH   9  10
ENDBRANCH   8   9
ENDBRANCH   2   8
TORSDOF 3
ENDMDL
MODEL       24
REMARK 921   NORMALIZED FREE ENERGY PREDICTED BY IDOCK:   -4.01 KCAL/MOL
REMARK 922        TOTAL FREE ENERGY PREDICTED BY IDOCK:   -5.14 KCAL/MOL
REMARK 923 INTER-LIGAND FREE ENERGY PREDICTED BY IDOCK:   -5.20 KCAL/MOL
REMARK 924 INTRA-LIGAND FREE ENERGY PREDICTED BY IDOCK:    0.06 KCAL/MOL
REMARK 927      BINDING AFFINITY PREDICTED BY RF-SCORE:    0.00 PKD
ROOT
HETATM    1  N   UNK     1      -9.356  16.089  67.467  1.00  0.00    -0.216 NA 
HETATM    2  C   UNK     1      -9.548  15.936  65.989  1.00  0.00    -0.350 C  
HETATM    3  H1  UNK     1      -8.999  17.004  67.741  1.00  0.00     0.000 HD 
HETATM    4  H2  UNK     1      -8.759  15.347  67.831  1.00  0.00     0.000 HD 
HETATM    5  C   UNK     1     -10.502  17.042  65.517  1.00  0.00    -0.166 C  
HETATM    6  O   UNK     1     -11.176  17.010  64.501  1.00  0.00    -1.091 OA 
HETATM    7  O   UNK     1     -10.479  18.099  66.372  1.00  0.00    -0.379 OA 
ENDROOT
BRANCH   2   8
HETATM    8  C   UNK     1     -10.086  14.559  65.576  1.00  0.00    -0.366 C  
BRANCH   8   9
HETATM    9  S   UNK     1     -11.634  14.175  66.480  1.00  0.00    -0.391 SA 
BRANCH   9  10
HETATM   10  C   UNK     1     -12.115  12.658  65.575  1.00  0.00    -0.458 C  
HETATM   11  C   UNK     1     -12.621  12.956  64.175  1.00  0.00    -0.262 C  
HETATM   12  O   UNK     1     -12.962  12.078  63.392  1.00  0.00    -0.772 OA 
HETATM   13  O   UNK     1     -12.675  14.266  63.845  1.00  0.00    -0.749 OA 
ENDBRANCH   9  10
ENDBRANCH   8   9
ENDBRANCH   2   8
TORSDOF 3
ENDMDL
MODEL       25
REMARK 921   NORMALIZED FREE ENERGY PREDICTED BY IDOCK:   -3.99 KCAL/MOL
REMARK 922        TOTAL FREE ENERGY PREDICTED BY IDOCK:   -5.11 KCAL/MOL
REMARK 923 INTER-LIGAND FREE ENERGY PREDICTED BY IDOCK:   -4.75 KCAL/MOL
REMARK 924 INTRA-LIGAND FREE ENERGY PREDICTED BY IDOCK:   -0.37 KCAL/MOL
REMARK 927      BINDING AFFINITY PREDICTED BY RF-SCORE:    0.00 PKD
ROOT
HETATM    1  N   UNK     1     -11.937  12.283  66.681  1.00  0.00    -0.622 NA 
HETATM    2  C   UNK     1     -12.063  13.679  66.152  1.00  0.00    -0.436 C  
HETATM    3  H1  UNK     1     -12.812  11.759  66.670  1.00  0.00     0.000 HD 
HETATM    4  H2  UNK     1     -11.534  12.288  67.618  1.00  0.00     0.000 HD 
HETATM    5  C   UNK     1     -12.615  13.597  64.722  1.00  0.00    -0.295 C  
HETATM    6  O   UNK     1     -12.490  14.454  63.864  1.00  0.00    -0.798 OA 
HETATM    7  O   UNK     1     -13.302  12.439  64.534  1.00  0.00    -0.800 OA 
ENDROOT
BRANCH   2   8
HETATM    8  C   UNK     1     -10.746  14.467  66.169  1.00  0.00    -0.304 C  
BRANCH   8   9
HETATM    9  S   UNK     1     -10.022  14.474  67.853  1.00  0.00    -0.230 SA 
BRANCH   9  10
HETATM   10  C   UNK     1     -11.367  15.355  68.730  1.00  0.00    -0.320 C  
HETATM   11  C   UNK     1     -12.044  14.485  69.772  1.00  0.00    -0.331 C  
HETATM   12  O   UNK     1     -12.946  14.893  70.493  1.00  0.00    -0.347 OA 
HETATM   13  O   UNK     1     -11.586  13.215  69.854  1.00  0.00    -0.264 OA 
ENDBRANCH   9  10
ENDBRANCH   8   9
ENDBRANCH   2   8
TORSDOF 3
ENDMDL
MODEL       26
REMARK 921   NORMALIZED FREE ENERGY PREDICTED BY IDOCK:   -3.98 KCAL/MOL
REMARK 922        TOTAL FREE ENERGY PREDICTED BY IDOCK:   -5.11 KCAL/MOL
REMARK 923 INTER-LIGAND FREE ENERGY PREDICTED BY IDOCK:   -4.70 KCAL/MOL
REMARK 924 INTRA-LIGAND FREE ENERGY PREDICTED BY IDOCK:   -0.41 KCAL/MOL
REMARK 927      BINDING AFFINITY PREDICTED BY RF-SCORE:    0.00 PKD
ROOT
HETATM    1  N   UNK     1     -12.007  14.864  68.287  1.00  0.00    -0.541 NA 
HETATM    2  C   UNK     1     -11.132  15.409  69.374  1.00  0.00    -0.282 C  
HETATM    3  H1  UNK     1     -12.482  13.997  68.538  1.00  0.00     0.000 HD 
HETATM    4  H2  UNK     1     -11.478  14.747  67.423  1.00  0.00     0.000 HD 
HETATM    5  C   UNK     1     -11.999  15.621  70.621  1.00  0.00    -0.402 C  
HETATM    6  O   UNK     1     -11.745  16.381  71.541  1.00  0.00    -0.448 OA 
HETATM    7  O   UNK     1     -13.095  14.816  70.592  1.00  0.00    -0.356 OA 
ENDROOT
BRANCH   2   8
HETATM    8  C   UNK     1     -10.418  16.714  68.995  1.00  0.00    -0.328 C  
BRANCH   8   9
HETATM    9  S   UNK     1      -9.160  16.407  67.697  1.00  0.00    -0.198 SA 
BRANCH   9  10
HETATM   10  C   UNK     1      -9.933  17.351  66.332  1.00  0.00    -0.316 C  
HETATM   11  C   UNK     1     -10.575  16.447  65.296  1.00  0.00    -0.299 C  
HETATM   12  O   UNK     1     -11.176  16.879  64.320  1.00  0.00    -1.204 OA 
HETATM   13  O   UNK     1     -10.439  15.121  65.519  1.00  0.00    -0.321 OA 
ENDBRANCH   9  10
ENDBRANCH   8   9
ENDBRANCH   2   8
TORSDOF 3
ENDMDL
MODEL       27
REMARK 921   NORMALIZED FREE ENERGY PREDICTED BY IDOCK:   -3.98 KCAL/MOL
REMARK 922        TOTAL FREE ENERGY PREDICTED BY IDOCK:   -5.10 KCAL/MOL
REMARK 923 INTER-LIGAND FREE ENERGY PREDICTED BY IDOCK:   -4.99 KCAL/MOL
REMARK 924 INTRA-LIGAND FREE ENERGY PREDICTED BY IDOCK:   -0.12 KCAL/MOL
REMARK 927      BINDING AFFINITY PREDICTED BY RF-SCORE:    0.00 PKD
ROOT
HETATM    1  N   UNK     1     -11.344  14.077  70.381  1.00  0.00    -0.496 NA 
HETATM    2  C   UNK     1     -11.749  13.464  69.075  1.00  0.00    -0.323 C  
HETATM    3  H1  UNK     1     -12.022  13.933  71.130  1.00  0.00     0.000 HD 
HETATM    4  H2  UNK     1     -11.141  15.070  70.266  1.00  0.00     0.000 HD 
HETATM    5  C   UNK     1     -11.977  11.965  69.305  1.00  0.00    -0.281 C  
HETATM    6  O   UNK     1     -11.935  11.102  68.444  1.00  0.00    -0.561 OA 
HETATM    7  O   UNK     1     -12.270  11.713  70.609  1.00  0.00    -0.369 OA 
ENDROOT
BRANCH   2   8
HETATM    8  C   UNK     1     -10.728  13.680  67.949  1.00  0.00    -0.247 C  
BRANCH   8   9
HETATM    9  S   UNK     1     -11.534  14.438  66.487  1.00  0.00    -0.371 SA 
BRANCH   9  10
HETATM   10  C   UNK     1     -12.054  12.905  65.631  1.00  0.00    -0.458 C  
HETATM   11  C   UNK     1     -12.536  13.169  64.216  1.00  0.00    -0.288 C  
HETATM   12  O   UNK     1     -12.897  12.275  63.461  1.00  0.00    -0.768 OA 
HETATM   13  O   UNK     1     -12.544  14.467  63.839  1.00  0.00    -0.827 OA 
ENDBRANCH   9  10
ENDBRANCH   8   9
ENDBRANCH   2   8
TORSDOF 3
ENDMDL
MODEL       28
REMARK 921   NORMALIZED FREE ENERGY PREDICTED BY IDOCK:   -3.97 KCAL/MOL
REMARK 922        TOTAL FREE ENERGY PREDICTED BY IDOCK:   -5.10 KCAL/MOL
REMARK 923 INTER-LIGAND FREE ENERGY PREDICTED BY IDOCK:   -5.00 KCAL/MOL
REMARK 924 INTRA-LIGAND FREE ENERGY PREDICTED BY IDOCK:   -0.10 KCAL/MOL
REMARK 927      BINDING AFFINITY PREDICTED BY RF-SCORE:    0.00 PKD
ROOT
HETATM    1  N   UNK     1     -10.092  15.146  70.324  1.00  0.00    -0.499 NA 
HETATM    2  C   UNK     1     -11.454  15.397  69.754  1.00  0.00    -0.324 C  
HETATM    3  H1  UNK     1      -9.761  15.890  70.939  1.00  0.00     0.000 HD 
HETATM    4  H2  UNK     1      -9.417  14.969  69.580  1.00  0.00     0.000 HD 
HETATM    5  C   UNK     1     -12.429  15.593  70.922  1.00  0.00    -0.445 C  
HETATM    6  O   UNK     1     -13.637  15.434  70.871  1.00  0.00    -0.444 OA 
HETATM    7  O   UNK     1     -11.771  16.005  72.039  1.00  0.00    -0.450 OA 
ENDROOT
BRANCH   2   8
HETATM    8  C   UNK     1     -11.952  14.278  68.829  1.00  0.00    -0.311 C  
BRANCH   8   9
HETATM    9  S   UNK     1     -11.527  14.648  67.084  1.00  0.00    -0.365 SA 
BRANCH   9  10
HETATM   10  C   UNK     1     -11.972  13.035  66.341  1.00  0.00    -0.402 C  
HETATM   11  C   UNK     1     -12.756  13.191  65.050  1.00  0.00    -0.392 C  
HETATM   12  O   UNK     1     -13.121  12.235  64.377  1.00  0.00    -0.780 OA 
HETATM   13  O   UNK     1     -13.030  14.464  64.688  1.00  0.00    -0.592 OA 
ENDBRANCH   9  10
ENDBRANCH   8   9
ENDBRANCH   2   8
TORSDOF 3
ENDMDL
MODEL       29
REMARK 921   NORMALIZED FREE ENERGY PREDICTED BY IDOCK:   -3.97 KCAL/MOL
REMARK 922        TOTAL FREE ENERGY PREDICTED BY IDOCK:   -5.10 KCAL/MOL
REMARK 923 INTER-LIGAND FREE ENERGY PREDICTED BY IDOCK:   -4.98 KCAL/MOL
REMARK 924 INTRA-LIGAND FREE ENERGY PREDICTED BY IDOCK:   -0.12 KCAL/MOL
REMARK 927      BINDING AFFINITY PREDICTED BY RF-SCORE:    0.00 PKD
ROOT
HETATM    1  N   UNK     1     -12.078  10.493  68.713  1.00  0.00    -0.772 NA 
HETATM    2  C   UNK     1     -11.448  11.834  68.936  1.00  0.00    -0.297 C  
HETATM    3  H1  UNK     1     -11.938   9.841  69.485  1.00  0.00     0.000 HD 
HETATM    4  H2  UNK     1     -11.756  10.086  67.835  1.00  0.00     0.000 HD 
HETATM    5  C   UNK     1     -12.020  12.418  70.235  1.00  0.00    -0.289 C  
HETATM    6  O   UNK     1     -12.047  13.601  70.529  1.00  0.00    -0.338 OA 
HETATM    7  O   UNK     1     -12.475  11.430  71.051  1.00  0.00    -0.386 OA 
ENDROOT
BRANCH   2   8
HETATM    8  C   UNK     1     -11.659  12.816  67.775  1.00  0.00    -0.353 C  
BRANCH   8   9
HETATM    9  S   UNK     1     -10.853  12.192  66.250  1.00  0.00    -0.295 SA 
BRANCH   9  10
HETATM   10  C   UNK     1     -11.023  13.691  65.213  1.00  0.00    -0.310 C  
HETATM   11  C   UNK     1     -12.280  13.665  64.362  1.00  0.00    -0.390 C  
HETATM   12  O   UNK     1     -12.599  14.587  63.622  1.00  0.00    -0.798 OA 
HETATM   13  O   UNK     1     -13.032  12.547  64.472  1.00  0.00    -0.752 OA 
ENDBRANCH   9  10
ENDBRANCH   8   9
ENDBRANCH   2   8
TORSDOF 3
ENDMDL
MODEL       30
REMARK 921   NORMALIZED FREE ENERGY PREDICTED BY IDOCK:   -3.95 KCAL/MOL
REMARK 922        TOTAL FREE ENERGY PREDICTED BY IDOCK:   -5.07 KCAL/MOL
REMARK 923 INTER-LIGAND FREE ENERGY PREDICTED BY IDOCK:   -4.96 KCAL/MOL
REMARK 924 INTRA-LIGAND FREE ENERGY PREDICTED BY IDOCK:   -0.10 KCAL/MOL
REMARK 927      BINDING AFFINITY PREDICTED BY RF-SCORE:    0.00 PKD
ROOT
HETATM    1  N   UNK     1     -10.089  13.895  64.365  1.00  0.00    -0.739 NA 
HETATM    2  C   UNK     1     -11.094  13.708  65.461  1.00  0.00    -0.295 C  
HETATM    3  H1  UNK     1     -10.171  13.211  63.613  1.00  0.00     0.000 HD 
HETATM    4  H2  UNK     1      -9.142  13.902  64.743  1.00  0.00     0.000 HD 
HETATM    5  C   UNK     1     -12.494  13.770  64.836  1.00  0.00    -0.386 C  
HETATM    6  O   UNK     1     -13.524  14.041  65.431  1.00  0.00    -0.679 OA 
HETATM    7  O   UNK     1     -12.451  13.447  63.516  1.00  0.00    -0.738 OA 
ENDROOT
BRANCH   2   8
HETATM    8  C   UNK     1     -10.971  14.737  66.593  1.00  0.00    -0.326 C  
BRANCH   8   9
HETATM    9  S   UNK     1     -11.298  13.950  68.216  1.00  0.00    -0.315 SA 
BRANCH   9  10
HETATM   10  C   UNK     1     -11.695  15.455  69.180  1.00  0.00    -0.345 C  
HETATM   11  C   UNK     1     -12.294  15.131  70.537  1.00  0.00    -0.358 C  
HETATM   12  O   UNK     1     -12.599  15.994  71.350  1.00  0.00    -0.443 OA 
HETATM   13  O   UNK     1     -12.475  13.816  70.791  1.00  0.00    -0.340 OA 
ENDBRANCH   9  10
ENDBRANCH   8   9
ENDBRANCH   2   8
TORSDOF 3
ENDMDL
MODEL       31
REMARK 921   NORMALIZED FREE ENERGY PREDICTED BY IDOCK:   -3.94 KCAL/MOL
REMARK 922        TOTAL FREE ENERGY PREDICTED BY IDOCK:   -5.06 KCAL/MOL
REMARK 923 INTER-LIGAND FREE ENERGY PREDICTED BY IDOCK:   -4.92 KCAL/MOL
REMARK 924 INTRA-LIGAND FREE ENERGY PREDICTED BY IDOCK:   -0.15 KCAL/MOL
REMARK 927      BINDING AFFINITY PREDICTED BY RF-SCORE:    0.00 PKD
ROOT
HETATM    1  N   UNK     1     -11.422  16.472  63.960  1.00  0.00    -1.581 NA 
HETATM    2  C   UNK     1     -11.351  15.958  65.366  1.00  0.00     0.020 C  
HETATM    3  H1  UNK     1     -11.775  17.426  63.889  1.00  0.00     0.000 HD 
HETATM    4  H2  UNK     1     -11.968  15.842  63.373  1.00  0.00     0.000 HD 
HETATM    5  C   UNK     1     -10.467  16.913  66.177  1.00  0.00    -0.272 C  
HETATM    6  O   UNK     1      -9.880  16.632  67.209  1.00  0.00    -0.245 OA 
HETATM    7  O   UNK     1     -10.442  18.149  65.611  1.00  0.00    -0.626 OA 
ENDROOT
BRANCH   2   8
HETATM    8  C   UNK     1     -10.819  14.522  65.472  1.00  0.00    -0.336 C  
BRANCH   8   9
HETATM    9  S   UNK     1     -12.121  13.317  65.006  1.00  0.00    -0.437 SA 
BRANCH   9  10
HETATM   10  C   UNK     1     -11.285  12.547  63.570  1.00  0.00    -0.462 C  
HETATM   11  C   UNK     1     -10.524  11.289  63.951  1.00  0.00    -0.391 C  
HETATM   12  O   UNK     1      -9.924  10.604  63.133  1.00  0.00    -0.320 OA 
HETATM   13  O   UNK     1     -10.549  10.972  65.265  1.00  0.00    -0.268 OA 
ENDBRANCH   9  10
ENDBRANCH   8   9
ENDBRANCH   2   8
TORSDOF 3
ENDMDL
MODEL       32
REMARK 921   NORMALIZED FREE ENERGY PREDICTED BY IDOCK:   -3.93 KCAL/MOL
REMARK 922        TOTAL FREE ENERGY PREDICTED BY IDOCK:   -5.05 KCAL/MOL
REMARK 923 INTER-LIGAND FREE ENERGY PREDICTED BY IDOCK:   -4.84 KCAL/MOL
REMARK 924 INTRA-LIGAND FREE ENERGY PREDICTED BY IDOCK:   -0.20 KCAL/MOL
REMARK 927      BINDING AFFINITY PREDICTED BY RF-SCORE:    0.00 PKD
ROOT
HETATM    1  N   UNK     1     -11.031  11.848  65.813  1.00  0.00    -0.302 NA 
HETATM    2  C   UNK     1     -12.202  12.701  65.428  1.00  0.00    -0.459 C  
HETATM    3  H1  UNK     1     -10.980  10.967  65.301  1.00  0.00     0.000 HD 
HETATM    4  H2  UNK     1     -11.023  11.679  66.819  1.00  0.00     0.000 HD 
HETATM    5  C   UNK     1     -12.120  12.968  63.920  1.00  0.00    -0.471 C  
HETATM    6  O   UNK     1     -12.646  13.900  63.336  1.00  0.00    -0.853 OA 
HETATM    7  O   UNK     1     -11.398  11.999  63.295  1.00  0.00    -0.381 OA 
ENDROOT
BRANCH   2   8
HETATM    8  C   UNK     1     -12.279  14.026  66.199  1.00  0.00    -0.465 C  
BRANCH   8   9
HETATM    9  S   UNK     1     -10.597  14.672  66.539  1.00  0.00    -0.307 SA 
BRANCH   9  10
HETATM   10  C   UNK     1     -10.652  16.161  65.475  1.00  0.00    -0.377 C  
HETATM   11  C   UNK     1     -10.380  17.437  66.252  1.00  0.00    -0.330 C  
HETATM   12  O   UNK     1     -10.338  18.540  65.723  1.00  0.00    -0.590 OA 
HETATM   13  O   UNK     1     -10.189  17.276  67.581  1.00  0.00    -0.307 OA 
ENDBRANCH   9  10
ENDBRANCH   8   9
ENDBRANCH   2   8
TORSDOF 3
ENDMDL
MODEL       33
REMARK 921   NORMALIZED FREE ENERGY PREDICTED BY IDOCK:   -3.90 KCAL/MOL
REMARK 922        TOTAL FREE ENERGY PREDICTED BY IDOCK:   -5.01 KCAL/MOL
REMARK 923 INTER-LIGAND FREE ENERGY PREDICTED BY IDOCK:   -4.57 KCAL/MOL
REMARK 924 INTRA-LIGAND FREE ENERGY PREDICTED BY IDOCK:   -0.44 KCAL/MOL
REMARK 927      BINDING AFFINITY PREDICTED BY RF-SCORE:    0.00 PKD
ROOT
HETATM    1  N   UNK     1     -13.569  12.714  72.686  1.00  0.00    -0.661 NA 
HETATM    2  C   UNK     1     -13.145  12.618  71.252  1.00  0.00    -0.145 C  
HETATM    3  H1  UNK     1     -14.328  12.079  72.932  1.00  0.00     0.000 HD 
HETATM    4  H2  UNK     1     -13.814  13.675  72.925  1.00  0.00     0.000 HD 
HETATM    5  C   UNK     1     -12.732  11.167  70.975  1.00  0.00    -0.378 C  
HETATM    6  O   UNK     1     -11.992  10.800  70.078  1.00  0.00    -0.292 OA 
HETATM    7  O   UNK     1     -13.331  10.317  71.852  1.00  0.00    -0.415 OA 
ENDROOT
BRANCH   2   8
HETATM    8  C   UNK     1     -12.003  13.575  70.881  1.00  0.00    -0.093 C  
BRANCH   8   9
HETATM    9  S   UNK     1     -12.639  15.281  70.660  1.00  0.00    -0.427 SA 
BRANCH   9  10
HETATM   10  C   UNK     1     -11.871  16.056  72.131  1.00  0.00    -0.528 C  
HETATM   11  C   UNK     1     -12.826  16.132  73.309  1.00  0.00    -0.491 C  
HETATM   12  O   UNK     1     -12.499  16.585  74.398  1.00  0.00    -0.724 OA 
HETATM   13  O   UNK     1     -14.073  15.666  73.075  1.00  0.00    -0.420 OA 
ENDBRANCH   9  10
ENDBRANCH   8   9
ENDBRANCH   2   8
TORSDOF 3
ENDMDL
MODEL       34
REMARK 921   NORMALIZED FREE ENERGY PREDICTED BY IDOCK:   -3.90 KCAL/MOL
REMARK 922        TOTAL FREE ENERGY PREDICTED BY IDOCK:   -5.01 KCAL/MOL
REMARK 923 INTER-LIGAND FREE ENERGY PREDICTED BY IDOCK:   -4.86 KCAL/MOL
REMARK 924 INTRA-LIGAND FREE ENERGY PREDICTED BY IDOCK:   -0.15 KCAL/MOL
REMARK 927      BINDING AFFINITY PREDICTED BY RF-SCORE:    0.00 PKD
ROOT
HETATM    1  N   UNK     1     -10.356  15.492  64.709  1.00  0.00    -0.558 NA 
HETATM    2  C   UNK     1     -10.712  14.043  64.847  1.00  0.00    -0.418 C  
HETATM    3  H1  UNK     1     -10.563  15.879  63.789  1.00  0.00     0.000 HD 
HETATM    4  H2  UNK     1      -9.378  15.647  64.953  1.00  0.00     0.000 HD 
HETATM    5  C   UNK     1     -12.205  13.888  64.529  1.00  0.00    -0.417 C  
HETATM    6  O   UNK     1     -12.916  12.969  64.898  1.00  0.00    -0.739 OA 
HETATM    7  O   UNK     1     -12.641  14.907  63.741  1.00  0.00    -0.791 OA 
ENDROOT
BRANCH   2   8
HETATM    8  C   UNK     1     -10.400  13.460  66.232  1.00  0.00    -0.291 C  
BRANCH   8   9
HETATM    9  S   UNK     1     -10.939  14.613  67.552  1.00  0.00    -0.309 SA 
BRANCH   9  10
HETATM   10  C   UNK     1     -11.465  13.381  68.800  1.00  0.00    -0.305 C  
HETATM   11  C   UNK     1     -12.062  14.029  70.035  1.00  0.00    -0.348 C  
HETATM   12  O   UNK     1     -12.507  13.382  70.975  1.00  0.00    -0.362 OA 
HETATM   13  O   UNK     1     -12.070  15.382  70.034  1.00  0.00    -0.321 OA 
ENDBRANCH   9  10
ENDBRANCH   8   9
ENDBRANCH   2   8
TORSDOF 3
ENDMDL
MODEL       35
REMARK 921   NORMALIZED FREE ENERGY PREDICTED BY IDOCK:   -3.87 KCAL/MOL
REMARK 922        TOTAL FREE ENERGY PREDICTED BY IDOCK:   -4.98 KCAL/MOL
REMARK 923 INTER-LIGAND FREE ENERGY PREDICTED BY IDOCK:   -4.85 KCAL/MOL
REMARK 924 INTRA-LIGAND FREE ENERGY PREDICTED BY IDOCK:   -0.13 KCAL/MOL
REMARK 927      BINDING AFFINITY PREDICTED BY RF-SCORE:    0.00 PKD
ROOT
HETATM    1  N   UNK     1     -11.768  16.315  63.708  1.00  0.00    -1.488 NA 
HETATM    2  C   UNK     1     -11.128  15.281  64.583  1.00  0.00    -0.332 C  
HETATM    3  H1  UNK     1     -11.872  16.024  62.736  1.00  0.00     0.000 HD 
HETATM    4  H2  UNK     1     -11.262  17.199  63.766  1.00  0.00     0.000 HD 
HETATM    5  C   UNK     1     -11.971  14.002  64.500  1.00  0.00    -0.448 C  
HETATM    6  O   UNK     1     -11.993  13.112  65.334  1.00  0.00    -0.358 OA 
HETATM    7  O   UNK     1     -12.683  13.964  63.341  1.00  0.00    -0.806 OA 
ENDROOT
BRANCH   2   8
HETATM    8  C   UNK     1     -10.972  15.720  66.045  1.00  0.00    -0.177 C  
BRANCH   8   9
HETATM    9  S   UNK     1      -9.256  15.431  66.624  1.00  0.00    -0.297 SA 
BRANCH   9  10
HETATM   10  C   UNK     1      -9.634  14.658  68.240  1.00  0.00    -0.208 C  
HETATM   11  C   UNK     1      -9.871  15.687  69.331  1.00  0.00    -0.284 C  
HETATM   12  O   UNK     1     -10.171  15.380  70.477  1.00  0.00    -0.187 OA 
HETATM   13  O   UNK     1      -9.725  16.977  68.952  1.00  0.00    -0.264 OA 
ENDBRANCH   9  10
ENDBRANCH   8   9
ENDBRANCH   2   8
TORSDOF 3
ENDMDL
MODEL       36
REMARK 921   NORMALIZED FREE ENERGY PREDICTED BY IDOCK:   -3.87 KCAL/MOL
REMARK 922        TOTAL FREE ENERGY PREDICTED BY IDOCK:   -4.98 KCAL/MOL
REMARK 923 INTER-LIGAND FREE ENERGY PREDICTED BY IDOCK:   -4.86 KCAL/MOL
REMARK 924 INTRA-LIGAND FREE ENERGY PREDICTED BY IDOCK:   -0.12 KCAL/MOL
REMARK 927      BINDING AFFINITY PREDICTED BY RF-SCORE:    0.00 PKD
ROOT
HETATM    1  N   UNK     1     -11.859  12.564  66.849  1.00  0.00    -0.515 NA 
HETATM    2  C   UNK     1     -11.964  13.979  66.367  1.00  0.00    -0.438 C  
HETATM    3  H1  UNK     1     -12.753  12.074  66.879  1.00  0.00     0.000 HD 
HETATM    4  H2  UNK     1     -11.398  12.527  67.758  1.00  0.00     0.000 HD 
HETATM    5  C   UNK     1     -12.606  13.960  64.974  1.00  0.00    -0.390 C  
HETATM    6  O   UNK     1     -12.501  14.837  64.133  1.00  0.00    -0.758 OA 
HETATM    7  O   UNK     1     -13.349  12.835  64.798  1.00  0.00    -0.736 OA 
ENDROOT
BRANCH   2   8
HETATM    8  C   UNK     1     -10.618  14.717  66.322  1.00  0.00    -0.306 C  
BRANCH   8   9
HETATM    9  S   UNK     1     -10.700  16.265  67.302  1.00  0.00    -0.215 SA 
BRANCH   9  10
HETATM   10  C   UNK     1      -9.700  17.339  66.207  1.00  0.00    -0.266 C  
HETATM   11  C   UNK     1      -9.920  18.814  66.488  1.00  0.00    -0.380 C  
HETATM   12  O   UNK     1      -9.322  19.700  65.889  1.00  0.00    -0.383 OA 
HETATM   13  O   UNK     1     -10.830  19.092  67.449  1.00  0.00    -0.473 OA 
ENDBRANCH   9  10
ENDBRANCH   8   9
ENDBRANCH   2   8
TORSDOF 3
ENDMDL
MODEL       37
REMARK 921   NORMALIZED FREE ENERGY PREDICTED BY IDOCK:   -3.85 KCAL/MOL
REMARK 922        TOTAL FREE ENERGY PREDICTED BY IDOCK:   -4.96 KCAL/MOL
REMARK 923 INTER-LIGAND FREE ENERGY PREDICTED BY IDOCK:   -4.55 KCAL/MOL
REMARK 924 INTRA-LIGAND FREE ENERGY PREDICTED BY IDOCK:   -0.41 KCAL/MOL
REMARK 927      BINDING AFFINITY PREDICTED BY RF-SCORE:    0.00 PKD
ROOT
HETATM    1  N   UNK     1      -9.825  16.452  65.656  1.00  0.00    -0.530 NA 
HETATM    2  C   UNK     1     -10.445  15.140  65.282  1.00  0.00    -0.409 C  
HETATM    3  H1  UNK     1      -9.612  17.048  64.857  1.00  0.00     0.000 HD 
HETATM    4  H2  UNK     1      -8.992  16.306  66.227  1.00  0.00     0.000 HD 
HETATM    5  C   UNK     1     -11.722  15.431  64.482  1.00  0.00    -0.277 C  
HETATM    6  O   UNK     1     -12.664  14.667  64.349  1.00  0.00    -0.636 OA 
HETATM    7  O   UNK     1     -11.661  16.658  63.900  1.00  0.00    -1.204 OA 
ENDROOT
BRANCH   2   8
HETATM    8  C   UNK     1     -10.765  14.243  66.485  1.00  0.00    -0.297 C  
BRANCH   8   9
HETATM    9  S   UNK     1     -10.937  15.247  68.010  1.00  0.00    -0.310 SA 
BRANCH   9  10
HETATM   10  C   UNK     1      -9.365  14.785  68.826  1.00  0.00    -0.198 C  
HETATM   11  C   UNK     1      -8.447  15.977  69.028  1.00  0.00    -0.244 C  
HETATM   12  O   UNK     1      -7.361  15.890  69.586  1.00  0.00    -0.195 OA 
HETATM   13  O   UNK     1      -8.909  17.153  68.546  1.00  0.00    -0.251 OA 
ENDBRANCH   9  10
ENDBRANCH   8   9
ENDBRANCH   2   8
TORSDOF 3
ENDMDL
MODEL       38
REMARK 921   NORMALIZED FREE ENERGY PREDICTED BY IDOCK:   -3.85 KCAL/MOL
REMARK 922        TOTAL FREE ENERGY PREDICTED BY IDOCK:   -4.96 KCAL/MOL
REMARK 923 INTER-LIGAND FREE ENERGY PREDICTED BY IDOCK:   -4.57 KCAL/MOL
REMARK 924 INTRA-LIGAND FREE ENERGY PREDICTED BY IDOCK:   -0.39 KCAL/MOL
REMARK 927      BINDING AFFINITY PREDICTED BY RF-SCORE:    0.00 PKD
ROOT
HETATM    1  N   UNK     1     -11.822  11.656  67.596  1.00  0.00    -0.615 NA 
HETATM    2  C   UNK     1     -10.615  12.542  67.666  1.00  0.00    -0.217 C  
HETATM    3  H1  UNK     1     -12.313  11.560  68.484  1.00  0.00     0.000 HD 
HETATM    4  H2  UNK     1     -11.575  10.740  67.221  1.00  0.00     0.000 HD 
HETATM    5  C   UNK     1     -11.065  13.917  68.175  1.00  0.00    -0.256 C  
HETATM    6  O   UNK     1     -10.470  14.967  68.000  1.00  0.00    -0.238 OA 
HETATM    7  O   UNK     1     -12.218  13.817  68.889  1.00  0.00    -0.344 OA 
ENDROOT
BRANCH   2   8
HETATM    8  C   UNK     1      -9.876  12.686  66.328  1.00  0.00    -0.262 C  
BRANCH   8   9
HETATM    9  S   UNK     1     -10.399  11.373  65.160  1.00  0.00    -0.304 SA 
BRANCH   9  10
HETATM   10  C   UNK     1     -10.805  12.428  63.720  1.00  0.00    -0.454 C  
HETATM   11  C   UNK     1     -12.235  12.935  63.760  1.00  0.00    -0.476 C  
HETATM   12  O   UNK     1     -12.698  13.684  62.908  1.00  0.00    -0.577 OA 
HETATM   13  O   UNK     1     -12.975  12.500  64.805  1.00  0.00    -0.827 OA 
ENDBRANCH   9  10
ENDBRANCH   8   9
ENDBRANCH   2   8
TORSDOF 3
ENDMDL
MODEL       39
REMARK 921   NORMALIZED FREE ENERGY PREDICTED BY IDOCK:   -3.79 KCAL/MOL
REMARK 922        TOTAL FREE ENERGY PREDICTED BY IDOCK:   -4.89 KCAL/MOL
REMARK 923 INTER-LIGAND FREE ENERGY PREDICTED BY IDOCK:   -4.57 KCAL/MOL
REMARK 924 INTRA-LIGAND FREE ENERGY PREDICTED BY IDOCK:   -0.32 KCAL/MOL
REMARK 927      BINDING AFFINITY PREDICTED BY RF-SCORE:    0.00 PKD
ROOT
HETATM    1  N   UNK     1     -12.057  16.207  71.220  1.00  0.00    -0.596 NA 
HETATM    2  C   UNK     1     -12.985  15.067  70.928  1.00  0.00    -0.405 C  
HETATM    3  H1  UNK     1     -12.532  17.049  71.544  1.00  0.00     0.000 HD 
HETATM    4  H2  UNK     1     -11.472  16.412  70.410  1.00  0.00     0.000 HD 
HETATM    5  C   UNK     1     -13.786  14.768  72.201  1.00  0.00    -0.475 C  
HETATM    6  O   UNK     1     -14.331  13.709  72.464  1.00  0.00    -0.707 OA 
HETATM    7  O   UNK     1     -13.844  15.863  73.006  1.00  0.00    -0.592 OA 
ENDROOT
BRANCH   2   8
HETATM    8  C   UNK     1     -12.270  13.799  70.441  1.00  0.00    -0.363 C  
BRANCH   8   9
HETATM    9  S   UNK     1     -11.901  13.916  68.648  1.00  0.00    -0.375 SA 
BRANCH   9  10
HETATM   10  C   UNK     1     -10.171  14.505  68.758  1.00  0.00    -0.244 C  
HETATM   11  C   UNK     1     -10.056  16.004  68.549  1.00  0.00    -0.233 C  
HETATM   12  O   UNK     1      -8.991  16.603  68.616  1.00  0.00    -0.228 OA 
HETATM   13  O   UNK     1     -11.218  16.642  68.278  1.00  0.00    -0.349 OA 
ENDBRANCH   9  10
ENDBRANCH   8   9
ENDBRANCH   2   8
TORSDOF 3
ENDMDL
MODEL       40
REMARK 921   NORMALIZED FREE ENERGY PREDICTED BY IDOCK:   -3.79 KCAL/MOL
REMARK 922        TOTAL FREE ENERGY PREDICTED BY IDOCK:   -4.88 KCAL/MOL
REMARK 923 INTER-LIGAND FREE ENERGY PREDICTED BY IDOCK:   -4.76 KCAL/MOL
REMARK 924 INTRA-LIGAND FREE ENERGY PREDICTED BY IDOCK:   -0.12 KCAL/MOL
REMARK 927      BINDING AFFINITY PREDICTED BY RF-SCORE:    0.00 PKD
ROOT
HETATM    1  N   UNK     1     -12.448  14.824  63.944  1.00  0.00    -1.049 NA 
HETATM    2  C   UNK     1     -11.636  14.150  65.008  1.00  0.00    -0.362 C  
HETATM    3  H1  UNK     1     -12.621  14.238  63.127  1.00  0.00     0.000 HD 
HETATM    4  H2  UNK     1     -12.018  15.707  63.668  1.00  0.00     0.000 HD 
HETATM    5  C   UNK     1     -12.366  12.866  65.421  1.00  0.00    -0.485 C  
HETATM    6  O   UNK     1     -12.227  12.282  66.482  1.00  0.00    -0.588 OA 
HETATM    7  O   UNK     1     -13.183  12.431  64.424  1.00  0.00    -0.816 OA 
ENDROOT
BRANCH   2   8
HETATM    8  C   UNK     1     -11.375  15.032  66.237  1.00  0.00    -0.273 C  
BRANCH   8   9
HETATM    9  S   UNK     1     -10.091  16.288  65.867  1.00  0.00    -0.352 SA 
BRANCH   9  10
HETATM   10  C   UNK     1      -9.699  16.796  67.582  1.00  0.00    -0.251 C  
HETATM   11  C   UNK     1      -8.454  16.112  68.117  1.00  0.00    -0.175 C  
HETATM   12  O   UNK     1      -8.000  16.338  69.231  1.00  0.00    -0.236 OA 
HETATM   13  O   UNK     1      -7.874  15.226  67.276  1.00  0.00    -0.176 OA 
ENDBRANCH   9  10
ENDBRANCH   8   9
ENDBRANCH   2   8
TORSDOF 3
ENDMDL
MODEL       41
REMARK 921   NORMALIZED FREE ENERGY PREDICTED BY IDOCK:   -3.78 KCAL/MOL
REMARK 922        TOTAL FREE ENERGY PREDICTED BY IDOCK:   -4.87 KCAL/MOL
REMARK 923 INTER-LIGAND FREE ENERGY PREDICTED BY IDOCK:   -4.74 KCAL/MOL
REMARK 924 INTRA-LIGAND FREE ENERGY PREDICTED BY IDOCK:   -0.13 KCAL/MOL
REMARK 927      BINDING AFFINITY PREDICTED BY RF-SCORE:    0.00 PKD
ROOT
HETATM    1  N   UNK     1     -11.326  12.917  69.420  1.00  0.00    -0.408 NA 
HETATM    2  C   UNK     1     -11.455  14.385  69.693  1.00  0.00    -0.283 C  
HETATM    3  H1  UNK     1     -11.224  12.351  70.262  1.00  0.00     0.000 HD 
HETATM    4  H2  UNK     1     -10.561  12.737  68.770  1.00  0.00     0.000 HD 
HETATM    5  C   UNK     1     -12.658  14.592  70.622  1.00  0.00    -0.357 C  
HETATM    6  O   UNK     1     -13.288  15.629  70.744  1.00  0.00    -0.535 OA 
HETATM    7  O   UNK     1     -12.922  13.463  71.332  1.00  0.00    -0.352 OA 
ENDROOT
BRANCH   2   8
HETATM    8  C   UNK     1     -11.609  15.237  68.426  1.00  0.00    -0.349 C  
BRANCH   8   9
HETATM    9  S   UNK     1     -10.377  14.740  67.161  1.00  0.00    -0.257 SA 
BRANCH   9  10
HETATM   10  C   UNK     1     -11.453  14.813  65.682  1.00  0.00    -0.327 C  
HETATM   11  C   UNK     1     -11.237  16.079  64.872  1.00  0.00    -0.312 C  
HETATM   12  O   UNK     1     -11.833  16.307  63.827  1.00  0.00    -0.955 OA 
HETATM   13  O   UNK     1     -10.338  16.948  65.386  1.00  0.00    -0.609 OA 
ENDBRANCH   9  10
ENDBRANCH   8   9
ENDBRANCH   2   8
TORSDOF 3
ENDMDL
MODEL       42
REMARK 921   NORMALIZED FREE ENERGY PREDICTED BY IDOCK:   -3.77 KCAL/MOL
REMARK 922        TOTAL FREE ENERGY PREDICTED BY IDOCK:   -4.86 KCAL/MOL
REMARK 923 INTER-LIGAND FREE ENERGY PREDICTED BY IDOCK:   -4.77 KCAL/MOL
REMARK 924 INTRA-LIGAND FREE ENERGY PREDICTED BY IDOCK:   -0.10 KCAL/MOL
REMARK 927      BINDING AFFINITY PREDICTED BY RF-SCORE:    0.00 PKD
ROOT
HETATM    1  N   UNK     1     -11.056  16.773  68.165  1.00  0.00    -0.326 NA 
HETATM    2  C   UNK     1      -9.695  16.836  67.541  1.00  0.00    -0.252 C  
HETATM    3  H1  UNK     1     -11.249  17.543  68.805  1.00  0.00     0.000 HD 
HETATM    4  H2  UNK     1     -11.198  15.876  68.628  1.00  0.00     0.000 HD 
HETATM    5  C   UNK     1      -9.569  18.179  66.810  1.00  0.00    -0.301 C  
HETATM    6  O   UNK     1      -8.796  18.420  65.898  1.00  0.00    -0.491 OA 
HETATM    7  O   UNK     1     -10.421  19.099  67.337  1.00  0.00    -0.401 OA 
ENDROOT
BRANCH   2   8
HETATM    8  C   UNK     1      -9.403  15.677  66.577  1.00  0.00    -0.276 C  
BRANCH   8   9
HETATM    9  S   UNK     1     -10.655  15.624  65.238  1.00  0.00    -0.421 SA 
BRANCH   9  10
HETATM   10  C   UNK     1     -11.532  14.096  65.739  1.00  0.00    -0.327 C  
HETATM   11  C   UNK     1     -12.443  13.568  64.645  1.00  0.00    -0.323 C  
HETATM   12  O   UNK     1     -13.094  12.538  64.764  1.00  0.00    -0.853 OA 
HETATM   13  O   UNK     1     -12.492  14.317  63.520  1.00  0.00    -0.798 OA 
ENDBRANCH   9  10
ENDBRANCH   8   9
ENDBRANCH   2   8
TORSDOF 3
ENDMDL
MODEL       43
REMARK 921   NORMALIZED FREE ENERGY PREDICTED BY IDOCK:   -3.77 KCAL/MOL
REMARK 922        TOTAL FREE ENERGY PREDICTED BY IDOCK:   -4.86 KCAL/MOL
REMARK 923 INTER-LIGAND FREE ENERGY PREDICTED BY IDOCK:   -4.78 KCAL/MOL
REMARK 924 INTRA-LIGAND FREE ENERGY PREDICTED BY IDOCK:   -0.09 KCAL/MOL
REMARK 927      BINDING AFFINITY PREDICTED BY RF-SCORE:    0.00 PKD
ROOT
HETATM    1  N   UNK     1     -12.217  11.051  68.333  1.00  0.00    -0.780 NA 
HETATM    2  C   UNK     1     -10.823  11.033  67.785  1.00  0.00    -0.249 C  
HETATM    3  H1  UNK     1     -12.482  10.190  68.811  1.00  0.00     0.000 HD 
HETATM    4  H2  UNK     1     -12.889  11.276  67.599  1.00  0.00     0.000 HD 
HETATM    5  C   UNK     1      -9.860  10.753  68.947  1.00  0.00    -0.199 C  
HETATM    6  O   UNK     1      -8.675  11.039  68.969  1.00  0.00    -0.147 OA 
HETATM    7  O   UNK     1     -10.497  10.105  69.958  1.00  0.00    -0.264 OA 
ENDROOT
BRANCH   2   8
HETATM    8  C   UNK     1     -10.425  12.329  67.066  1.00  0.00    -0.216 C  
BRANCH   8   9
HETATM    9  S   UNK     1     -11.804  12.934  66.020  1.00  0.00    -0.445 SA 
BRANCH   9  10
HETATM   10  C   UNK     1     -11.170  14.615  65.668  1.00  0.00    -0.342 C  
HETATM   11  C   UNK     1     -11.829  15.238  64.451  1.00  0.00    -0.281 C  
HETATM   12  O   UNK     1     -11.571  16.371  64.065  1.00  0.00    -1.071 OA 
HETATM   13  O   UNK     1     -12.725  14.454  63.812  1.00  0.00    -0.785 OA 
ENDBRANCH   9  10
ENDBRANCH   8   9
ENDBRANCH   2   8
TORSDOF 3
ENDMDL
MODEL       44
REMARK 921   NORMALIZED FREE ENERGY PREDICTED BY IDOCK:   -3.76 KCAL/MOL
REMARK 922        TOTAL FREE ENERGY PREDICTED BY IDOCK:   -4.86 KCAL/MOL
REMARK 923 INTER-LIGAND FREE ENERGY PREDICTED BY IDOCK:   -4.65 KCAL/MOL
REMARK 924 INTRA-LIGAND FREE ENERGY PREDICTED BY IDOCK:   -0.21 KCAL/MOL
REMARK 927      BINDING AFFINITY PREDICTED BY RF-SCORE:    0.00 PKD
ROOT
HETATM    1  N   UNK     1     -11.822  12.305  66.700  1.00  0.00    -0.594 NA 
HETATM    2  C   UNK     1     -11.905  13.718  66.206  1.00  0.00    -0.398 C  
HETATM    3  H1  UNK     1     -12.725  11.834  66.746  1.00  0.00     0.000 HD 
HETATM    4  H2  UNK     1     -11.350  12.266  67.603  1.00  0.00     0.000 HD 
HETATM    5  C   UNK     1     -12.566  13.700  64.822  1.00  0.00    -0.295 C  
HETATM    6  O   UNK     1     -12.455  14.567  63.972  1.00  0.00    -0.778 OA 
HETATM    7  O   UNK     1     -13.333  12.588  64.666  1.00  0.00    -0.804 OA 
ENDROOT
BRANCH   2   8
HETATM    8  C   UNK     1     -10.545  14.427  66.137  1.00  0.00    -0.298 C  
BRANCH   8   9
HETATM    9  S   UNK     1     -10.658  16.108  66.862  1.00  0.00    -0.243 SA 
BRANCH   9  10
HETATM   10  C   UNK     1     -11.498  15.678  68.431  1.00  0.00    -0.369 C  
HETATM   11  C   UNK     1     -10.562  15.746  69.624  1.00  0.00    -0.295 C  
HETATM   12  O   UNK     1     -10.933  15.528  70.770  1.00  0.00    -0.326 OA 
HETATM   13  O   UNK     1      -9.280  16.064  69.337  1.00  0.00    -0.251 OA 
ENDBRANCH   9  10
ENDBRANCH   8   9
ENDBRANCH   2   8
TORSDOF 3
ENDMDL
MODEL       45
REMARK 921   NORMALIZED FREE ENERGY PREDICTED BY IDOCK:   -3.76 KCAL/MOL
REMARK 922        TOTAL FREE ENERGY PREDICTED BY IDOCK:   -4.84 KCAL/MOL
REMARK 923 INTER-LIGAND FREE ENERGY PREDICTED BY IDOCK:   -4.59 KCAL/MOL
REMARK 924 INTRA-LIGAND FREE ENERGY PREDICTED BY IDOCK:   -0.26 KCAL/MOL
REMARK 927      BINDING AFFINITY PREDICTED BY RF-SCORE:    0.00 PKD
ROOT
HETATM    1  N   UNK     1     -14.141   8.963  73.163  1.00  0.00    -1.225 NA 
HETATM    2  C   UNK     1     -12.851   8.710  72.443  1.00  0.00    -0.355 C  
HETATM    3  H1  UNK     1     -14.143   9.823  73.711  1.00  0.00     0.000 HD 
HETATM    4  H2  UNK     1     -14.390   8.164  73.747  1.00  0.00     0.000 HD 
HETATM    5  C   UNK     1     -12.568   9.916  71.538  1.00  0.00    -0.416 C  
HETATM    6  O   UNK     1     -11.852   9.909  70.551  1.00  0.00    -0.270 OA 
HETATM    7  O   UNK     1     -13.201  11.028  72.000  1.00  0.00    -0.499 OA 
ENDROOT
BRANCH   2   8
HETATM    8  C   UNK     1     -12.848   7.415  71.618  1.00  0.00    -0.367 C  
BRANCH   8   9
HETATM    9  S   UNK     1     -11.526   6.285  72.200  1.00  0.00    -0.316 SA 
BRANCH   9  10
HETATM   10  C   UNK     1     -10.611   7.456  73.270  1.00  0.00    -0.392 C  
HETATM   11  C   UNK     1      -9.368   8.005  72.593  1.00  0.00    -0.248 C  
HETATM   12  O   UNK     1      -8.633   8.828  73.124  1.00  0.00    -0.366 OA 
HETATM   13  O   UNK     1      -9.119   7.519  71.356  1.00  0.00    -0.136 OA 
ENDBRANCH   9  10
ENDBRANCH   8   9
ENDBRANCH   2   8
TORSDOF 3
ENDMDL
MODEL       46
REMARK 921   NORMALIZED FREE ENERGY PREDICTED BY IDOCK:   -3.72 KCAL/MOL
REMARK 922        TOTAL FREE ENERGY PREDICTED BY IDOCK:   -4.81 KCAL/MOL
REMARK 923 INTER-LIGAND FREE ENERGY PREDICTED BY IDOCK:   -4.70 KCAL/MOL
REMARK 924 INTRA-LIGAND FREE ENERGY PREDICTED BY IDOCK:   -0.10 KCAL/MOL
REMARK 927      BINDING AFFINITY PREDICTED BY RF-SCORE:    0.00 PKD
ROOT
HETATM    1  N   UNK     1     -11.095  16.499  68.488  1.00  0.00    -0.354 NA 
HETATM    2  C   UNK     1     -10.213  16.706  67.295  1.00  0.00    -0.290 C  
HETATM    3  H1  UNK     1     -10.973  17.202  69.216  1.00  0.00     0.000 HD 
HETATM    4  H2  UNK     1     -10.970  15.561  68.870  1.00  0.00     0.000 HD 
HETATM    5  C   UNK     1     -10.495  18.105  66.733  1.00  0.00    -0.348 C  
HETATM    6  O   UNK     1     -10.272  18.468  65.590  1.00  0.00    -0.552 OA 
HETATM    7  O   UNK     1     -11.007  18.919  67.694  1.00  0.00    -0.392 OA 
ENDROOT
BRANCH   2   8
HETATM    8  C   UNK     1     -10.397  15.647  66.199  1.00  0.00    -0.316 C  
BRANCH   8   9
HETATM    9  S   UNK     1     -11.765  14.504  66.632  1.00  0.00    -0.342 SA 
BRANCH   9  10
HETATM   10  C   UNK     1     -12.395  14.174  64.945  1.00  0.00    -0.430 C  
HETATM   11  C   UNK     1     -12.501  12.689  64.649  1.00  0.00    -0.466 C  
HETATM   12  O   UNK     1     -12.932  12.253  63.589  1.00  0.00    -0.777 OA 
HETATM   13  O   UNK     1     -12.081  11.869  65.639  1.00  0.00    -0.439 OA 
ENDBRANCH   9  10
ENDBRANCH   8   9
ENDBRANCH   2   8
TORSDOF 3
ENDMDL
MODEL       47
REMARK 921   NORMALIZED FREE ENERGY PREDICTED BY IDOCK:   -3.67 KCAL/MOL
REMARK 922        TOTAL FREE ENERGY PREDICTED BY IDOCK:   -4.74 KCAL/MOL
REMARK 923 INTER-LIGAND FREE ENERGY PREDICTED BY IDOCK:   -4.44 KCAL/MOL
REMARK 924 INTRA-LIGAND FREE ENERGY PREDICTED BY IDOCK:   -0.30 KCAL/MOL
REMARK 927      BINDING AFFINITY PREDICTED BY RF-SCORE:    0.00 PKD
ROOT
HETATM    1  N   UNK     1     -11.089  17.528  64.920  1.00  0.00    -0.773 NA 
HETATM    2  C   UNK     1     -10.580  17.545  66.329  1.00  0.00    -0.198 C  
HETATM    3  H1  UNK     1     -11.835  18.201  64.745  1.00  0.00     0.000 HD 
HETATM    4  H2  UNK     1     -11.384  16.588  64.655  1.00  0.00     0.000 HD 
HETATM    5  C   UNK     1     -10.097  18.967  66.642  1.00  0.00    -0.388 C  
HETATM    6  O   UNK     1      -9.293  19.267  67.509  1.00  0.00    -0.298 OA 
HETATM    7  O   UNK     1     -10.711  19.876  65.838  1.00  0.00    -0.465 OA 
ENDROOT
BRANCH   2   8
HETATM    8  C   UNK     1      -9.458  16.532  66.592  1.00  0.00    -0.258 C  
BRANCH   8   9
HETATM    9  S   UNK     1      -9.713  15.015  65.595  1.00  0.00    -0.244 SA 
BRANCH   9  10
HETATM   10  C   UNK     1     -11.282  14.447  66.350  1.00  0.00    -0.345 C  
HETATM   11  C   UNK     1     -12.399  14.315  65.331  1.00  0.00    -0.415 C  
HETATM   12  O   UNK     1     -13.519  13.917  65.623  1.00  0.00    -0.590 OA 
HETATM   13  O   UNK     1     -12.076  14.670  64.067  1.00  0.00    -0.471 OA 
ENDBRANCH   9  10
ENDBRANCH   8   9
ENDBRANCH   2   8
TORSDOF 3
ENDMDL
MODEL       48
REMARK 921   NORMALIZED FREE ENERGY PREDICTED BY IDOCK:   -3.65 KCAL/MOL
REMARK 922        TOTAL FREE ENERGY PREDICTED BY IDOCK:   -4.72 KCAL/MOL
REMARK 923 INTER-LIGAND FREE ENERGY PREDICTED BY IDOCK:   -4.17 KCAL/MOL
REMARK 924 INTRA-LIGAND FREE ENERGY PREDICTED BY IDOCK:   -0.55 KCAL/MOL
REMARK 927      BINDING AFFINITY PREDICTED BY RF-SCORE:    0.00 PKD
ROOT
HETATM    1  N   UNK     1      -8.824  14.563  66.550  1.00  0.00    -0.454 NA 
HETATM    2  C   UNK     1     -10.118  14.126  67.167  1.00  0.00    -0.258 C  
HETATM    3  H1  UNK     1      -8.544  14.005  65.744  1.00  0.00     0.000 HD 
HETATM    4  H2  UNK     1      -8.081  14.583  67.249  1.00  0.00     0.000 HD 
HETATM    5  C   UNK     1     -11.202  14.179  66.083  1.00  0.00    -0.326 C  
HETATM    6  O   UNK     1     -12.401  14.270  66.284  1.00  0.00    -0.443 OA 
HETATM    7  O   UNK     1     -10.653  14.076  64.843  1.00  0.00    -0.379 OA 
ENDROOT
BRANCH   2   8
HETATM    8  C   UNK     1     -10.538  14.967  68.380  1.00  0.00    -0.244 C  
BRANCH   8   9
HETATM    9  S   UNK     1      -9.477  16.454  68.532  1.00  0.00    -0.235 SA 
BRANCH   9  10
HETATM   10  C   UNK     1     -10.578  17.667  67.714  1.00  0.00    -0.378 C  
HETATM   11  C   UNK     1     -10.135  17.986  66.298  1.00  0.00    -0.363 C  
HETATM   12  O   UNK     1     -10.753  18.748  65.565  1.00  0.00    -0.569 OA 
HETATM   13  O   UNK     1      -9.000  17.372  65.893  1.00  0.00    -0.521 OA 
ENDBRANCH   9  10
ENDBRANCH   8   9
ENDBRANCH   2   8
TORSDOF 3
ENDMDL
MODEL       49
REMARK 921   NORMALIZED FREE ENERGY PREDICTED BY IDOCK:   -3.65 KCAL/MOL
REMARK 922        TOTAL FREE ENERGY PREDICTED BY IDOCK:   -4.72 KCAL/MOL
REMARK 923 INTER-LIGAND FREE ENERGY PREDICTED BY IDOCK:   -4.70 KCAL/MOL
REMARK 924 INTRA-LIGAND FREE ENERGY PREDICTED BY IDOCK:   -0.02 KCAL/MOL
REMARK 927      BINDING AFFINITY PREDICTED BY RF-SCORE:    0.00 PKD
ROOT
HETATM    1  N   UNK     1     -12.403  13.783  63.223  1.00  0.00    -1.124 NA 
HETATM    2  C   UNK     1     -11.570  13.651  64.461  1.00  0.00    -0.390 C  
HETATM    3  H1  UNK     1     -11.972  13.377  62.393  1.00  0.00     0.000 HD 
HETATM    4  H2  UNK     1     -12.652  14.758  63.058  1.00  0.00     0.000 HD 
HETATM    5  C   UNK     1     -11.285  12.161  64.685  1.00  0.00    -0.323 C  
HETATM    6  O   UNK     1     -10.986  11.649  65.752  1.00  0.00    -0.292 OA 
HETATM    7  O   UNK     1     -11.376  11.469  63.518  1.00  0.00    -0.408 OA 
ENDROOT
BRANCH   2   8
HETATM    8  C   UNK     1     -12.220  14.262  65.710  1.00  0.00    -0.403 C  
BRANCH   8   9
HETATM    9  S   UNK     1     -10.938  14.763  66.923  1.00  0.00    -0.333 SA 
BRANCH   9  10
HETATM   10  C   UNK     1     -11.874  14.442  68.464  1.00  0.00    -0.334 C  
HETATM   11  C   UNK     1     -11.871  15.636  69.400  1.00  0.00    -0.375 C  
HETATM   12  O   UNK     1     -12.467  15.641  70.470  1.00  0.00    -0.415 OA 
HETATM   13  O   UNK     1     -11.158  16.704  68.976  1.00  0.00    -0.301 OA 
ENDBRANCH   9  10
ENDBRANCH   8   9
ENDBRANCH   2   8
TORSDOF 3
ENDMDL
MODEL       50
REMARK 921   NORMALIZED FREE ENERGY PREDICTED BY IDOCK:   -3.64 KCAL/MOL
REMARK 922        TOTAL FREE ENERGY PREDICTED BY IDOCK:   -4.71 KCAL/MOL
REMARK 923 INTER-LIGAND FREE ENERGY PREDICTED BY IDOCK:   -4.31 KCAL/MOL
REMARK 924 INTRA-LIGAND FREE ENERGY PREDICTED BY IDOCK:   -0.40 KCAL/MOL
REMARK 927      BINDING AFFINITY PREDICTED BY RF-SCORE:    0.00 PKD
ROOT
HETATM    1  N   UNK     1     -11.843  12.956  70.320  1.00  0.00    -0.535 NA 
HETATM    2  C   UNK     1     -12.223  11.507  70.286  1.00  0.00    -0.332 C  
HETATM    3  H1  UNK     1     -12.633  13.584  70.463  1.00  0.00     0.000 HD 
HETATM    4  H2  UNK     1     -11.327  13.213  69.478  1.00  0.00     0.000 HD 
HETATM    5  C   UNK     1     -12.936  11.172  71.602  1.00  0.00    -0.443 C  
HETATM    6  O   UNK     1     -13.039  10.059  72.089  1.00  0.00    -0.433 OA 
HETATM    7  O   UNK     1     -13.480  12.289  72.156  1.00  0.00    -0.509 OA 
ENDROOT
BRANCH   2   8
HETATM    8  C   UNK     1     -11.033  10.562  70.071  1.00  0.00    -0.286 C  
BRANCH   8   9
HETATM    9  S   UNK     1     -10.012  11.124  68.655  1.00  0.00    -0.201 SA 
BRANCH   9  10
HETATM   10  C   UNK     1     -11.270  10.986  67.332  1.00  0.00    -0.285 C  
HETATM   11  C   UNK     1     -11.592  12.327  66.699  1.00  0.00    -0.375 C  
HETATM   12  O   UNK     1     -12.383  12.450  65.773  1.00  0.00    -0.644 OA 
HETATM   13  O   UNK     1     -10.946  13.389  67.231  1.00  0.00    -0.266 OA 
ENDBRANCH   9  10
ENDBRANCH   8   9
ENDBRANCH   2   8
TORSDOF 3
ENDMDL
MODEL       51
REMARK 921   NORMALIZED FREE ENERGY PREDICTED BY IDOCK:   -3.62 KCAL/MOL
REMARK 922        TOTAL FREE ENERGY PREDICTED BY IDOCK:   -4.68 KCAL/MOL
REMARK 923 INTER-LIGAND FREE ENERGY PREDICTED BY IDOCK:   -4.04 KCAL/MOL
REMARK 924 INTRA-LIGAND FREE ENERGY PREDICTED BY IDOCK:   -0.64 KCAL/MOL
REMARK 927      BINDING AFFINITY PREDICTED BY RF-SCORE:    0.00 PKD
ROOT
HETATM    1  N   UNK     1     -10.114  13.773  64.824  1.00  0.00    -0.619 NA 
HETATM    2  C   UNK     1     -10.262  12.535  65.656  1.00  0.00    -0.267 C  
HETATM    3  H1  UNK     1     -10.755  13.814  64.031  1.00  0.00     0.000 HD 
HETATM    4  H2  UNK     1      -9.149  13.884  64.512  1.00  0.00     0.000 HD 
HETATM    5  C   UNK     1     -11.715  12.462  66.143  1.00  0.00    -0.400 C  
HETATM    6  O   UNK     1     -12.105  11.842  67.119  1.00  0.00    -0.590 OA 
HETATM    7  O   UNK     1     -12.539  13.162  65.318  1.00  0.00    -0.481 OA 
ENDROOT
BRANCH   2   8
HETATM    8  C   UNK     1      -9.298  12.474  66.848  1.00  0.00    -0.219 C  
BRANCH   8   9
HETATM    9  S   UNK     1      -8.664  14.147  67.250  1.00  0.00    -0.224 SA 
BRANCH   9  10
HETATM   10  C   UNK     1      -9.794  14.547  68.634  1.00  0.00    -0.232 C  
HETATM   11  C   UNK     1     -10.922  15.470  68.211  1.00  0.00    -0.305 C  
HETATM   12  O   UNK     1     -11.805  15.832  68.977  1.00  0.00    -0.391 OA 
HETATM   13  O   UNK     1     -10.887  15.874  66.921  1.00  0.00    -0.314 OA 
ENDBRANCH   9  10
ENDBRANCH   8   9
ENDBRANCH   2   8
TORSDOF 3
ENDMDL
MODEL       52
REMARK 921   NORMALIZED FREE ENERGY PREDICTED BY IDOCK:   -3.61 KCAL/MOL
REMARK 922        TOTAL FREE ENERGY PREDICTED BY IDOCK:   -4.68 KCAL/MOL
REMARK 923 INTER-LIGAND FREE ENERGY PREDICTED BY IDOCK:   -4.54 KCAL/MOL
REMARK 924 INTRA-LIGAND FREE ENERGY PREDICTED BY IDOCK:   -0.14 KCAL/MOL
REMARK 927      BINDING AFFINITY PREDICTED BY RF-SCORE:    0.00 PKD
ROOT
HETATM    1  N   UNK     1     -10.432  17.387  65.398  1.00  0.00    -0.651 NA 
HETATM    2  C   UNK     1     -10.412  16.652  66.703  1.00  0.00    -0.258 C  
HETATM    3  H1  UNK     1     -11.151  18.109  65.345  1.00  0.00     0.000 HD 
HETATM    4  H2  UNK     1     -10.520  16.735  64.618  1.00  0.00     0.000 HD 
HETATM    5  C   UNK     1     -10.215  17.680  67.824  1.00  0.00    -0.354 C  
HETATM    6  O   UNK     1      -9.774  17.440  68.936  1.00  0.00    -0.283 OA 
HETATM    7  O   UNK     1     -10.632  18.913  67.430  1.00  0.00    -0.422 OA 
ENDROOT
BRANCH   2   8
HETATM    8  C   UNK     1      -9.331  15.565  66.783  1.00  0.00    -0.245 C  
BRANCH   8   9
HETATM    9  S   UNK     1     -10.096  13.908  66.966  1.00  0.00    -0.260 SA 
BRANCH   9  10
HETATM   10  C   UNK     1     -10.949  13.815  65.349  1.00  0.00    -0.309 C  
HETATM   11  C   UNK     1     -12.076  12.798  65.347  1.00  0.00    -0.462 C  
HETATM   12  O   UNK     1     -12.793  12.605  64.374  1.00  0.00    -0.712 OA 
HETATM   13  O   UNK     1     -12.236  12.109  66.500  1.00  0.00    -0.584 OA 
ENDBRANCH   9  10
ENDBRANCH   8   9
ENDBRANCH   2   8
TORSDOF 3
ENDMDL
MODEL       53
REMARK 921   NORMALIZED FREE ENERGY PREDICTED BY IDOCK:   -3.61 KCAL/MOL
REMARK 922        TOTAL FREE ENERGY PREDICTED BY IDOCK:   -4.67 KCAL/MOL
REMARK 923 INTER-LIGAND FREE ENERGY PREDICTED BY IDOCK:   -4.48 KCAL/MOL
REMARK 924 INTRA-LIGAND FREE ENERGY PREDICTED BY IDOCK:   -0.19 KCAL/MOL
REMARK 927      BINDING AFFINITY PREDICTED BY RF-SCORE:    0.00 PKD
ROOT
HETATM    1  N   UNK     1     -12.177  10.745  68.526  1.00  0.00    -0.822 NA 
HETATM    2  C   UNK     1     -11.493  11.621  67.520  1.00  0.00    -0.289 C  
HETATM    3  H1  UNK     1     -12.614   9.918  68.119  1.00  0.00     0.000 HD 
HETATM    4  H2  UNK     1     -12.855  11.281  69.068  1.00  0.00     0.000 HD 
HETATM    5  C   UNK     1     -10.447  10.774  66.786  1.00  0.00    -0.251 C  
HETATM    6  O   UNK     1      -9.468  11.207  66.201  1.00  0.00    -0.191 OA 
HETATM    7  O   UNK     1     -10.767   9.454  66.839  1.00  0.00    -0.205 OA 
ENDROOT
BRANCH   2   8
HETATM    8  C   UNK     1     -10.836  12.866  68.132  1.00  0.00    -0.236 C  
BRANCH   8   9
HETATM    9  S   UNK     1     -11.645  14.391  67.514  1.00  0.00    -0.388 SA 
BRANCH   9  10
HETATM   10  C   UNK     1     -12.464  13.691  66.033  1.00  0.00    -0.426 C  
HETATM   11  C   UNK     1     -12.100  14.439  64.764  1.00  0.00    -0.452 C  
HETATM   12  O   UNK     1     -12.514  14.111  63.659  1.00  0.00    -0.819 OA 
HETATM   13  O   UNK     1     -11.284  15.504  64.932  1.00  0.00    -0.405 OA 
ENDBRANCH   9  10
ENDBRANCH   8   9
ENDBRANCH   2   8
TORSDOF 3
ENDMDL
MODEL       54
REMARK 921   NORMALIZED FREE ENERGY PREDICTED BY IDOCK:   -3.58 KCAL/MOL
REMARK 922        TOTAL FREE ENERGY PREDICTED BY IDOCK:   -4.64 KCAL/MOL
REMARK 923 INTER-LIGAND FREE ENERGY PREDICTED BY IDOCK:   -4.25 KCAL/MOL
REMARK 924 INTRA-LIGAND FREE ENERGY PREDICTED BY IDOCK:   -0.39 KCAL/MOL
REMARK 927      BINDING AFFINITY PREDICTED BY RF-SCORE:    0.00 PKD
ROOT
HETATM    1  N   UNK     1     -11.919  12.321  66.710  1.00  0.00    -0.605 NA 
HETATM    2  C   UNK     1     -12.218  13.702  66.213  1.00  0.00    -0.436 C  
HETATM    3  H1  UNK     1     -12.702  11.674  66.621  1.00  0.00     0.000 HD 
HETATM    4  H2  UNK     1     -11.584  12.349  67.673  1.00  0.00     0.000 HD 
HETATM    5  C   UNK     1     -12.653  13.595  64.746  1.00  0.00    -0.295 C  
HETATM    6  O   UNK     1     -12.602  14.494  63.924  1.00  0.00    -0.827 OA 
HETATM    7  O   UNK     1     -13.145  12.356  64.476  1.00  0.00    -0.823 OA 
ENDROOT
BRANCH   2   8
HETATM    8  C   UNK     1     -11.038  14.675  66.347  1.00  0.00    -0.334 C  
BRANCH   8   9
HETATM    9  S   UNK     1     -10.140  14.385  67.920  1.00  0.00    -0.231 SA 
BRANCH   9  10
HETATM   10  C   UNK     1      -8.544  13.816  67.227  1.00  0.00    -0.212 C  
HETATM   11  C   UNK     1      -8.283  12.347  67.509  1.00  0.00    -0.173 C  
HETATM   12  O   UNK     1      -7.288  11.761  67.104  1.00  0.00    -0.132 OA 
HETATM   13  O   UNK     1      -9.229  11.722  68.246  1.00  0.00    -0.180 OA 
ENDBRANCH   9  10
ENDBRANCH   8   9
ENDBRANCH   2   8
TORSDOF 3
ENDMDL
MODEL       55
REMARK 921   NORMALIZED FREE ENERGY PREDICTED BY IDOCK:   -3.57 KCAL/MOL
REMARK 922        TOTAL FREE ENERGY PREDICTED BY IDOCK:   -4.62 KCAL/MOL
REMARK 923 INTER-LIGAND FREE ENERGY PREDICTED BY IDOCK:   -4.40 KCAL/MOL
REMARK 924 INTRA-LIGAND FREE ENERGY PREDICTED BY IDOCK:   -0.23 KCAL/MOL
REMARK 927      BINDING AFFINITY PREDICTED BY RF-SCORE:    0.00 PKD
ROOT
HETATM    1  N   UNK     1     -12.301  14.459  63.551  1.00  0.00    -1.114 NA 
HETATM    2  C   UNK     1     -11.653  13.980  64.814  1.00  0.00    -0.381 C  
HETATM    3  H1  UNK     1     -12.197  13.816  62.767  1.00  0.00     0.000 HD 
HETATM    4  H2  UNK     1     -11.961  15.388  63.301  1.00  0.00     0.000 HD 
HETATM    5  C   UNK     1     -12.252  12.612  65.166  1.00  0.00    -0.481 C  
HETATM    6  O   UNK     1     -12.265  12.109  66.277  1.00  0.00    -0.604 OA 
HETATM    7  O   UNK     1     -12.750  12.002  64.058  1.00  0.00    -0.506 OA 
ENDROOT
BRANCH   2   8
HETATM    8  C   UNK     1     -11.810  14.949  65.994  1.00  0.00    -0.114 C  
BRANCH   8   9
HETATM    9  S   UNK     1     -10.176  15.593  66.520  1.00  0.00    -0.295 SA 
BRANCH   9  10
HETATM   10  C   UNK     1      -9.311  13.997  66.759  1.00  0.00    -0.277 C  
HETATM   11  C   UNK     1      -9.575  13.397  68.128  1.00  0.00    -0.222 C  
HETATM   12  O   UNK     1      -9.119  12.316  68.477  1.00  0.00    -0.166 OA 
HETATM   13  O   UNK     1     -10.353  14.141  68.947  1.00  0.00    -0.236 OA 
ENDBRANCH   9  10
ENDBRANCH   8   9
ENDBRANCH   2   8
TORSDOF 3
ENDMDL
MODEL       56
REMARK 921   NORMALIZED FREE ENERGY PREDICTED BY IDOCK:   -3.56 KCAL/MOL
REMARK 922        TOTAL FREE ENERGY PREDICTED BY IDOCK:   -4.61 KCAL/MOL
REMARK 923 INTER-LIGAND FREE ENERGY PREDICTED BY IDOCK:   -4.36 KCAL/MOL
REMARK 924 INTRA-LIGAND FREE ENERGY PREDICTED BY IDOCK:   -0.25 KCAL/MOL
REMARK 927      BINDING AFFINITY PREDICTED BY RF-SCORE:    0.00 PKD
ROOT
HETATM    1  N   UNK     1     -14.130   8.965  73.195  1.00  0.00    -1.225 NA 
HETATM    2  C   UNK     1     -12.974   8.779  72.260  1.00  0.00    -0.408 C  
HETATM    3  H1  UNK     1     -14.038   9.777  73.805  1.00  0.00     0.000 HD 
HETATM    4  H2  UNK     1     -14.290   8.120  73.743  1.00  0.00     0.000 HD 
HETATM    5  C   UNK     1     -12.829  10.058  71.425  1.00  0.00    -0.417 C  
HETATM    6  O   UNK     1     -12.280  10.136  70.338  1.00  0.00    -0.266 OA 
HETATM    7  O   UNK     1     -13.371  11.124  72.072  1.00  0.00    -0.454 OA 
ENDROOT
BRANCH   2   8
HETATM    8  C   UNK     1     -13.114   7.558  71.341  1.00  0.00    -0.325 C  
BRANCH   8   9
HETATM    9  S   UNK     1     -11.644   6.471  71.488  1.00  0.00    -0.323 SA 
BRANCH   9  10
HETATM   10  C   UNK     1     -11.294   6.235  69.706  1.00  0.00    -0.436 C  
HETATM   11  C   UNK     1     -10.255   7.212  69.187  1.00  0.00    -0.194 C  
HETATM   12  O   UNK     1      -9.854   7.201  68.030  1.00  0.00    -0.133 OA 
HETATM   13  O   UNK     1      -9.797   8.106  70.092  1.00  0.00    -0.182 OA 
ENDBRANCH   9  10
ENDBRANCH   8   9
ENDBRANCH   2   8
TORSDOF 3
ENDMDL
MODEL       57
REMARK 921   NORMALIZED FREE ENERGY PREDICTED BY IDOCK:   -3.55 KCAL/MOL
REMARK 922        TOTAL FREE ENERGY PREDICTED BY IDOCK:   -4.61 KCAL/MOL
REMARK 923 INTER-LIGAND FREE ENERGY PREDICTED BY IDOCK:   -4.51 KCAL/MOL
REMARK 924 INTRA-LIGAND FREE ENERGY PREDICTED BY IDOCK:   -0.10 KCAL/MOL
REMARK 927      BINDING AFFINITY PREDICTED BY RF-SCORE:    0.00 PKD
ROOT
HETATM    1  N   UNK     1      -9.788  13.468  65.136  1.00  0.00    -0.567 NA 
HETATM    2  C   UNK     1     -10.864  14.254  65.820  1.00  0.00    -0.303 C  
HETATM    3  H1  UNK     1      -9.832  12.466  65.320  1.00  0.00     0.000 HD 
HETATM    4  H2  UNK     1      -8.867  13.837  65.374  1.00  0.00     0.000 HD 
HETATM    5  C   UNK     1     -12.220  13.692  65.373  1.00  0.00    -0.444 C  
HETATM    6  O   UNK     1     -13.281  14.292  65.404  1.00  0.00    -0.688 OA 
HETATM    7  O   UNK     1     -12.097  12.403  64.958  1.00  0.00    -0.412 OA 
ENDROOT
BRANCH   2   8
HETATM    8  C   UNK     1     -10.798  15.763  65.543  1.00  0.00    -0.332 C  
BRANCH   8   9
HETATM    9  S   UNK     1     -10.197  16.663  67.024  1.00  0.00    -0.292 SA 
BRANCH   9  10
HETATM   10  C   UNK     1     -10.412  18.376  66.414  1.00  0.00    -0.383 C  
HETATM   11  C   UNK     1      -9.680  19.391  67.273  1.00  0.00    -0.334 C  
HETATM   12  O   UNK     1      -9.668  20.588  67.019  1.00  0.00    -0.436 OA 
HETATM   13  O   UNK     1      -9.037  18.883  68.349  1.00  0.00    -0.319 OA 
ENDBRANCH   9  10
ENDBRANCH   8   9
ENDBRANCH   2   8
TORSDOF 3
ENDMDL
MODEL       58
REMARK 921   NORMALIZED FREE ENERGY PREDICTED BY IDOCK:   -3.55 KCAL/MOL
REMARK 922        TOTAL FREE ENERGY PREDICTED BY IDOCK:   -4.61 KCAL/MOL
REMARK 923 INTER-LIGAND FREE ENERGY PREDICTED BY IDOCK:   -4.46 KCAL/MOL
REMARK 924 INTRA-LIGAND FREE ENERGY PREDICTED BY IDOCK:   -0.14 KCAL/MOL
REMARK 927      BINDING AFFINITY PREDICTED BY RF-SCORE:    0.00 PKD
ROOT
HETATM    1  N   UNK     1     -12.274  10.758  68.532  1.00  0.00    -0.822 NA 
HETATM    2  C   UNK     1     -11.164  10.467  67.569  1.00  0.00    -0.224 C  
HETATM    3  H1  UNK     1     -12.700   9.922  68.932  1.00  0.00     0.000 HD 
HETATM    4  H2  UNK     1     -12.983  11.349  68.097  1.00  0.00     0.000 HD 
HETATM    5  C   UNK     1     -10.106   9.632  68.301  1.00  0.00    -0.177 C  
HETATM    6  O   UNK     1      -8.932   9.539  67.984  1.00  0.00    -0.124 OA 
HETATM    7  O   UNK     1     -10.656   8.967  69.352  1.00  0.00    -0.226 OA 
ENDROOT
BRANCH   2   8
HETATM    8  C   UNK     1     -10.524  11.726  66.966  1.00  0.00    -0.220 C  
BRANCH   8   9
HETATM    9  S   UNK     1     -10.292  11.527  65.158  1.00  0.00    -0.292 SA 
BRANCH   9  10
HETATM   10  C   UNK     1     -10.643  13.248  64.642  1.00  0.00    -0.404 C  
HETATM   11  C   UNK     1     -12.128  13.505  64.459  1.00  0.00    -0.416 C  
HETATM   12  O   UNK     1     -12.578  14.600  64.149  1.00  0.00    -0.766 OA 
HETATM   13  O   UNK     1     -12.930  12.435  64.660  1.00  0.00    -0.793 OA 
ENDBRANCH   9  10
ENDBRANCH   8   9
ENDBRANCH   2   8
TORSDOF 3
ENDMDL
MODEL       59
REMARK 921   NORMALIZED FREE ENERGY PREDICTED BY IDOCK:   -3.52 KCAL/MOL
REMARK 922        TOTAL FREE ENERGY PREDICTED BY IDOCK:   -4.56 KCAL/MOL
REMARK 923 INTER-LIGAND FREE ENERGY PREDICTED BY IDOCK:   -4.47 KCAL/MOL
REMARK 924 INTRA-LIGAND FREE ENERGY PREDICTED BY IDOCK:   -0.09 KCAL/MOL
REMARK 927      BINDING AFFINITY PREDICTED BY RF-SCORE:    0.00 PKD
ROOT
HETATM    1  N   UNK     1     -12.360  12.603  70.976  1.00  0.00    -0.379 NA 
HETATM    2  C   UNK     1     -12.455  14.084  71.183  1.00  0.00    -0.371 C  
HETATM    3  H1  UNK     1     -12.440  12.062  71.837  1.00  0.00     0.000 HD 
HETATM    4  H2  UNK     1     -11.502  12.363  70.479  1.00  0.00     0.000 HD 
HETATM    5  C   UNK     1     -13.791  14.382  71.875  1.00  0.00    -0.462 C  
HETATM    6  O   UNK     1     -14.377  15.452  71.855  1.00  0.00    -0.526 OA 
HETATM    7  O   UNK     1     -14.239  13.293  72.555  1.00  0.00    -0.697 OA 
ENDROOT
BRANCH   2   8
HETATM    8  C   UNK     1     -12.334  14.897  69.887  1.00  0.00    -0.280 C  
BRANCH   8   9
HETATM    9  S   UNK     1     -12.002  13.792  68.462  1.00  0.00    -0.314 SA 
BRANCH   9  10
HETATM   10  C   UNK     1     -11.071  14.967  67.410  1.00  0.00    -0.325 C  
HETATM   11  C   UNK     1     -11.284  14.710  65.930  1.00  0.00    -0.336 C  
HETATM   12  O   UNK     1     -10.778  15.405  65.057  1.00  0.00    -0.405 OA 
HETATM   13  O   UNK     1     -12.073  13.653  65.632  1.00  0.00    -0.374 OA 
ENDBRANCH   9  10
ENDBRANCH   8   9
ENDBRANCH   2   8
TORSDOF 3
ENDMDL
MODEL       60
REMARK 921   NORMALIZED FREE ENERGY PREDICTED BY IDOCK:   -3.51 KCAL/MOL
REMARK 922        TOTAL FREE ENERGY PREDICTED BY IDOCK:   -4.56 KCAL/MOL
REMARK 923 INTER-LIGAND FREE ENERGY PREDICTED BY IDOCK:   -4.47 KCAL/MOL
REMARK 924 INTRA-LIGAND FREE ENERGY PREDICTED BY IDOCK:   -0.09 KCAL/MOL
REMARK 927      BINDING AFFINITY PREDICTED BY RF-SCORE:    0.00 PKD
ROOT
HETATM    1  N   UNK     1     -12.402  15.525  69.475  1.00  0.00    -0.583 NA 
HETATM    2  C   UNK     1     -11.339  15.219  68.464  1.00  0.00    -0.327 C  
HETATM    3  H1  UNK     1     -12.043  15.943  70.333  1.00  0.00     0.000 HD 
HETATM    4  H2  UNK     1     -12.952  14.692  69.683  1.00  0.00     0.000 HD 
HETATM    5  C   UNK     1     -10.593  16.522  68.149  1.00  0.00    -0.329 C  
HETATM    6  O   UNK     1      -9.955  16.745  67.134  1.00  0.00    -0.260 OA 
HETATM    7  O   UNK     1     -10.707  17.406  69.176  1.00  0.00    -0.247 OA 
ENDROOT
BRANCH   2   8
HETATM    8  C   UNK     1     -11.879  14.590  67.172  1.00  0.00    -0.387 C  
BRANCH   8   9
HETATM    9  S   UNK     1     -11.642  12.772  67.193  1.00  0.00    -0.378 SA 
BRANCH   9  10
HETATM   10  C   UNK     1     -10.804  12.582  65.576  1.00  0.00    -0.278 C  
HETATM   11  C   UNK     1     -11.787  12.470  64.425  1.00  0.00    -0.386 C  
HETATM   12  O   UNK     1     -11.433  12.370  63.258  1.00  0.00    -0.441 OA 
HETATM   13  O   UNK     1     -13.093  12.483  64.776  1.00  0.00    -0.853 OA 
ENDBRANCH   9  10
ENDBRANCH   8   9
ENDBRANCH   2   8
TORSDOF 3
ENDMDL
MODEL       61
REMARK 921   NORMALIZED FREE ENERGY PREDICTED BY IDOCK:   -3.51 KCAL/MOL
REMARK 922        TOTAL FREE ENERGY PREDICTED BY IDOCK:   -4.56 KCAL/MOL
REMARK 923 INTER-LIGAND FREE ENERGY PREDICTED BY IDOCK:   -4.48 KCAL/MOL
REMARK 924 INTRA-LIGAND FREE ENERGY PREDICTED BY IDOCK:   -0.09 KCAL/MOL
REMARK 927      BINDING AFFINITY PREDICTED BY RF-SCORE:    0.00 PKD
ROOT
HETATM    1  N   UNK     1      -9.851  11.618  68.833  1.00  0.00    -0.397 NA 
HETATM    2  C   UNK     1     -10.352  11.491  67.426  1.00  0.00    -0.207 C  
HETATM    3  H1  UNK     1     -10.258  10.939  69.476  1.00  0.00     0.000 HD 
HETATM    4  H2  UNK     1      -9.988  12.568  69.180  1.00  0.00     0.000 HD 
HETATM    5  C   UNK     1     -10.059  10.064  66.945  1.00  0.00    -0.229 C  
HETATM    6  O   UNK     1      -9.966   9.714  65.781  1.00  0.00    -0.293 OA 
HETATM    7  O   UNK     1      -9.946   9.211  67.999  1.00  0.00    -0.162 OA 
ENDROOT
BRANCH   2   8
HETATM    8  C   UNK     1      -9.740  12.514  66.459  1.00  0.00    -0.246 C  
BRANCH   8   9
HETATM    9  S   UNK     1     -10.972  13.028  65.202  1.00  0.00    -0.305 SA 
BRANCH   9  10
HETATM   10  C   UNK     1     -10.467  14.778  65.018  1.00  0.00    -0.416 C  
HETATM   11  C   UNK     1     -11.522  15.613  64.315  1.00  0.00    -0.193 C  
HETATM   12  O   UNK     1     -11.396  16.816  64.122  1.00  0.00    -1.194 OA 
HETATM   13  O   UNK     1     -12.620  14.937  63.909  1.00  0.00    -0.831 OA 
ENDBRANCH   9  10
ENDBRANCH   8   9
ENDBRANCH   2   8
TORSDOF 3
ENDMDL
MODEL       62
REMARK 921   NORMALIZED FREE ENERGY PREDICTED BY IDOCK:   -3.51 KCAL/MOL
REMARK 922        TOTAL FREE ENERGY PREDICTED BY IDOCK:   -4.55 KCAL/MOL
REMARK 923 INTER-LIGAND FREE ENERGY PREDICTED BY IDOCK:   -4.47 KCAL/MOL
REMARK 924 INTRA-LIGAND FREE ENERGY PREDICTED BY IDOCK:   -0.09 KCAL/MOL
REMARK 927      BINDING AFFINITY PREDICTED BY RF-SCORE:    0.00 PKD
ROOT
HETATM    1  N   UNK     1     -13.326  14.607  70.405  1.00  0.00    -0.518 NA 
HETATM    2  C   UNK     1     -12.109  15.025  71.172  1.00  0.00    -0.318 C  
HETATM    3  H1  UNK     1     -13.985  14.054  70.951  1.00  0.00     0.000 HD 
HETATM    4  H2  UNK     1     -13.062  14.113  69.552  1.00  0.00     0.000 HD 
HETATM    5  C   UNK     1     -12.572  15.814  72.404  1.00  0.00    -0.453 C  
HETATM    6  O   UNK     1     -11.896  16.616  73.027  1.00  0.00    -0.496 OA 
HETATM    7  O   UNK     1     -13.846  15.481  72.742  1.00  0.00    -0.529 OA 
ENDROOT
BRANCH   2   8
HETATM    8  C   UNK     1     -11.116  15.858  70.350  1.00  0.00    -0.370 C  
BRANCH   8   9
HETATM    9  S   UNK     1     -11.526  15.770  68.564  1.00  0.00    -0.362 SA 
BRANCH   9  10
HETATM   10  C   UNK     1     -10.339  17.018  67.945  1.00  0.00    -0.338 C  
HETATM   11  C   UNK     1      -9.824  16.687  66.556  1.00  0.00    -0.281 C  
HETATM   12  O   UNK     1      -9.048  17.411  65.946  1.00  0.00    -0.515 OA 
HETATM   13  O   UNK     1     -10.282  15.529  66.029  1.00  0.00    -0.288 OA 
ENDBRANCH   9  10
ENDBRANCH   8   9
ENDBRANCH   2   8
TORSDOF 3
ENDMDL
MODEL       63
REMARK 921   NORMALIZED FREE ENERGY PREDICTED BY IDOCK:   -3.51 KCAL/MOL
REMARK 922        TOTAL FREE ENERGY PREDICTED BY IDOCK:   -4.55 KCAL/MOL
REMARK 923 INTER-LIGAND FREE ENERGY PREDICTED BY IDOCK:   -4.46 KCAL/MOL
REMARK 924 INTRA-LIGAND FREE ENERGY PREDICTED BY IDOCK:   -0.09 KCAL/MOL
REMARK 927      BINDING AFFINITY PREDICTED BY RF-SCORE:    0.00 PKD
ROOT
HETATM    1  N   UNK     1     -10.354  19.454  68.885  1.00  0.00    -0.549 NA 
HETATM    2  C   UNK     1      -9.990  18.132  68.279  1.00  0.00    -0.369 C  
HETATM    3  H1  UNK     1      -9.664  20.186  68.715  1.00  0.00     0.000 HD 
HETATM    4  H2  UNK     1     -10.535  19.355  69.884  1.00  0.00     0.000 HD 
HETATM    5  C   UNK     1      -9.794  18.338  66.772  1.00  0.00    -0.341 C  
HETATM    6  O   UNK     1      -9.875  17.467  65.921  1.00  0.00    -0.516 OA 
HETATM    7  O   UNK     1      -9.481  19.632  66.496  1.00  0.00    -0.339 OA 
ENDROOT
BRANCH   2   8
HETATM    8  C   UNK     1     -11.028  17.030  68.535  1.00  0.00    -0.247 C  
BRANCH   8   9
HETATM    9  S   UNK     1     -10.672  16.164  70.111  1.00  0.00    -0.233 SA 
BRANCH   9  10
HETATM   10  C   UNK     1     -12.358  15.554  70.480  1.00  0.00    -0.418 C  
HETATM   11  C   UNK     1     -12.813  15.924  71.880  1.00  0.00    -0.393 C  
HETATM   12  O   UNK     1     -13.923  15.641  72.314  1.00  0.00    -0.515 OA 
HETATM   13  O   UNK     1     -11.905  16.591  72.627  1.00  0.00    -0.541 OA 
ENDBRANCH   9  10
ENDBRANCH   8   9
ENDBRANCH   2   8
TORSDOF 3
ENDMDL
MODEL       64
REMARK 921   NORMALIZED FREE ENERGY PREDICTED BY IDOCK:   -3.50 KCAL/MOL
REMARK 922        TOTAL FREE ENERGY PREDICTED BY IDOCK:   -4.55 KCAL/MOL
REMARK 923 INTER-LIGAND FREE ENERGY PREDICTED BY IDOCK:   -4.41 KCAL/MOL
REMARK 924 INTRA-LIGAND FREE ENERGY PREDICTED BY IDOCK:   -0.13 KCAL/MOL
REMARK 927      BINDING AFFINITY PREDICTED BY RF-SCORE:    0.00 PKD
ROOT
HETATM    1  N   UNK     1     -11.332  16.581  64.102  1.00  0.00    -1.452 NA 
HETATM    2  C   UNK     1     -11.230  15.605  65.235  1.00  0.00    -0.234 C  
HETATM    3  H1  UNK     1     -11.460  17.547  64.404  1.00  0.00     0.000 HD 
HETATM    4  H2  UNK     1     -12.070  16.306  63.455  1.00  0.00     0.000 HD 
HETATM    5  C   UNK     1     -10.065  16.040  66.133  1.00  0.00    -0.327 C  
HETATM    6  O   UNK     1      -9.451  15.314  66.898  1.00  0.00    -0.217 OA 
HETATM    7  O   UNK     1      -9.815  17.369  65.994  1.00  0.00    -0.448 OA 
ENDROOT
BRANCH   2   8
HETATM    8  C   UNK     1     -11.038  14.152  64.781  1.00  0.00    -0.387 C  
BRANCH   8   9
HETATM    9  S   UNK     1     -12.374  13.087  65.449  1.00  0.00    -0.471 SA 
BRANCH   9  10
HETATM   10  C   UNK     1     -12.517  13.833  67.115  1.00  0.00    -0.045 C  
HETATM   11  C   UNK     1     -11.642  13.132  68.138  1.00  0.00    -0.339 C  
HETATM   12  O   UNK     1     -11.566  13.495  69.305  1.00  0.00    -0.278 OA 
HETATM   13  O   UNK     1     -10.948  12.068  67.676  1.00  0.00    -0.217 OA 
ENDBRANCH   9  10
ENDBRANCH   8   9
ENDBRANCH   2   8
TORSDOF 3
ENDMDL
MODEL       65
REMARK 921   NORMALIZED FREE ENERGY PREDICTED BY IDOCK:   -3.47 KCAL/MOL
REMARK 922        TOTAL FREE ENERGY PREDICTED BY IDOCK:   -4.51 KCAL/MOL
REMARK 923 INTER-LIGAND FREE ENERGY PREDICTED BY IDOCK:   -4.37 KCAL/MOL
REMARK 924 INTRA-LIGAND FREE ENERGY PREDICTED BY IDOCK:   -0.14 KCAL/MOL
REMARK 927      BINDING AFFINITY PREDICTED BY RF-SCORE:    0.00 PKD
ROOT
HETATM    1  N   UNK     1     -11.505  16.507  64.022  1.00  0.00    -1.581 NA 
HETATM    2  C   UNK     1     -11.018  16.219  65.410  1.00  0.00    -0.197 C  
HETATM    3  H1  UNK     1     -12.141  17.302  63.967  1.00  0.00     0.000 HD 
HETATM    4  H2  UNK     1     -11.931  15.676  63.611  1.00  0.00     0.000 HD 
HETATM    5  C   UNK     1     -10.334  17.484  65.945  1.00  0.00    -0.259 C  
HETATM    6  O   UNK     1      -9.507  17.517  66.840  1.00  0.00    -0.258 OA 
HETATM    7  O   UNK     1     -10.797  18.592  65.306  1.00  0.00    -0.606 OA 
ENDROOT
BRANCH   2   8
HETATM    8  C   UNK     1     -10.061  15.022  65.492  1.00  0.00    -0.369 C  
BRANCH   8   9
HETATM    9  S   UNK     1     -10.423  14.009  66.977  1.00  0.00    -0.276 SA 
BRANCH   9  10
HETATM   10  C   UNK     1      -8.803  14.160  67.818  1.00  0.00    -0.185 C  
HETATM   11  C   UNK     1      -8.855  15.101  69.007  1.00  0.00    -0.219 C  
HETATM   12  O   UNK     1      -7.887  15.316  69.726  1.00  0.00    -0.203 OA 
HETATM   13  O   UNK     1     -10.050  15.697  69.223  1.00  0.00    -0.222 OA 
ENDBRANCH   9  10
ENDBRANCH   8   9
ENDBRANCH   2   8
TORSDOF 3
ENDMDL
MODEL       66
REMARK 921   NORMALIZED FREE ENERGY PREDICTED BY IDOCK:   -3.47 KCAL/MOL
REMARK 922        TOTAL FREE ENERGY PREDICTED BY IDOCK:   -4.51 KCAL/MOL
REMARK 923 INTER-LIGAND FREE ENERGY PREDICTED BY IDOCK:   -4.31 KCAL/MOL
REMARK 924 INTRA-LIGAND FREE ENERGY PREDICTED BY IDOCK:   -0.20 KCAL/MOL
REMARK 927      BINDING AFFINITY PREDICTED BY RF-SCORE:    0.00 PKD
ROOT
HETATM    1  N   UNK     1     -10.212  13.617  68.954  1.00  0.00    -0.409 NA 
HETATM    2  C   UNK     1      -9.442  14.211  67.814  1.00  0.00    -0.207 C  
HETATM    3  H1  UNK     1     -10.215  12.598  68.960  1.00  0.00     0.000 HD 
HETATM    4  H2  UNK     1     -11.165  13.980  68.973  1.00  0.00     0.000 HD 
HETATM    5  C   UNK     1      -8.006  13.676  67.880  1.00  0.00    -0.161 C  
HETATM    6  O   UNK     1      -7.028  14.208  67.383  1.00  0.00    -0.182 OA 
HETATM    7  O   UNK     1      -7.961  12.493  68.549  1.00  0.00    -0.142 OA 
ENDROOT
BRANCH   2   8
HETATM    8  C   UNK     1      -9.438  15.746  67.806  1.00  0.00    -0.212 C  
BRANCH   8   9
HETATM    9  S   UNK     1      -9.860  16.383  66.139  1.00  0.00    -0.349 SA 
BRANCH   9  10
HETATM   10  C   UNK     1     -10.849  14.962  65.542  1.00  0.00    -0.356 C  
HETATM   11  C   UNK     1     -11.717  15.323  64.350  1.00  0.00    -0.285 C  
HETATM   12  O   UNK     1     -12.429  14.508  63.778  1.00  0.00    -0.809 OA 
HETATM   13  O   UNK     1     -11.654  16.616  63.958  1.00  0.00    -1.197 OA 
ENDBRANCH   9  10
ENDBRANCH   8   9
ENDBRANCH   2   8
TORSDOF 3
ENDMDL
MODEL       67
REMARK 921   NORMALIZED FREE ENERGY PREDICTED BY IDOCK:   -3.45 KCAL/MOL
REMARK 922        TOTAL FREE ENERGY PREDICTED BY IDOCK:   -4.49 KCAL/MOL
REMARK 923 INTER-LIGAND FREE ENERGY PREDICTED BY IDOCK:   -4.43 KCAL/MOL
REMARK 924 INTRA-LIGAND FREE ENERGY PREDICTED BY IDOCK:   -0.05 KCAL/MOL
REMARK 927      BINDING AFFINITY PREDICTED BY RF-SCORE:    0.00 PKD
ROOT
HETATM    1  N   UNK     1      -8.958  14.630  67.445  1.00  0.00    -0.185 NA 
HETATM    2  C   UNK     1      -9.243  15.284  66.127  1.00  0.00    -0.310 C  
HETATM    3  H1  UNK     1      -8.264  15.122  68.006  1.00  0.00     0.000 HD 
HETATM    4  H2  UNK     1      -8.687  13.655  67.311  1.00  0.00     0.000 HD 
HETATM    5  C   UNK     1      -9.704  16.721  66.401  1.00  0.00    -0.290 C  
HETATM    6  O   UNK     1     -10.370  17.408  65.644  1.00  0.00    -0.589 OA 
HETATM    7  O   UNK     1      -9.243  17.158  67.604  1.00  0.00    -0.234 OA 
ENDROOT
BRANCH   2   8
HETATM    8  C   UNK     1     -10.287  14.542  65.282  1.00  0.00    -0.410 C  
BRANCH   8   9
HETATM    9  S   UNK     1     -10.309  12.758  65.706  1.00  0.00    -0.284 SA 
BRANCH   9  10
HETATM   10  C   UNK     1     -10.917  12.101  64.109  1.00  0.00    -0.361 C  
HETATM   11  C   UNK     1     -12.426  12.200  63.980  1.00  0.00    -0.440 C  
HETATM   12  O   UNK     1     -13.031  11.846  62.976  1.00  0.00    -0.525 OA 
HETATM   13  O   UNK     1     -13.067  12.705  65.058  1.00  0.00    -0.808 OA 
ENDBRANCH   9  10
ENDBRANCH   8   9
ENDBRANCH   2   8
TORSDOF 3
ENDMDL
MODEL       68
REMARK 921   NORMALIZED FREE ENERGY PREDICTED BY IDOCK:   -3.44 KCAL/MOL
REMARK 922        TOTAL FREE ENERGY PREDICTED BY IDOCK:   -4.47 KCAL/MOL
REMARK 923 INTER-LIGAND FREE ENERGY PREDICTED BY IDOCK:   -4.25 KCAL/MOL
REMARK 924 INTRA-LIGAND FREE ENERGY PREDICTED BY IDOCK:   -0.22 KCAL/MOL
REMARK 927      BINDING AFFINITY PREDICTED BY RF-SCORE:    0.00 PKD
ROOT
HETATM    1  N   UNK     1     -10.328  12.147  69.233  1.00  0.00    -0.411 NA 
HETATM    2  C   UNK     1     -11.182  12.970  68.317  1.00  0.00    -0.275 C  
HETATM    3  H1  UNK     1     -10.796  11.316  69.593  1.00  0.00     0.000 HD 
HETATM    4  H2  UNK     1      -9.968  12.717  69.998  1.00  0.00     0.000 HD 
HETATM    5  C   UNK     1     -11.637  12.073  67.159  1.00  0.00    -0.316 C  
HETATM    6  O   UNK     1     -12.001  12.463  66.062  1.00  0.00    -0.537 OA 
HETATM    7  O   UNK     1     -11.616  10.763  67.522  1.00  0.00    -0.510 OA 
ENDROOT
BRANCH   2   8
HETATM    8  C   UNK     1     -10.477  14.222  67.775  1.00  0.00    -0.245 C  
BRANCH   8   9
HETATM    9  S   UNK     1     -11.285  15.741  68.410  1.00  0.00    -0.370 SA 
BRANCH   9  10
HETATM   10  C   UNK     1     -10.593  15.735  70.105  1.00  0.00    -0.324 C  
HETATM   11  C   UNK     1     -11.661  15.530  71.164  1.00  0.00    -0.391 C  
HETATM   12  O   UNK     1     -11.406  15.461  72.359  1.00  0.00    -0.438 OA 
HETATM   13  O   UNK     1     -12.927  15.431  70.699  1.00  0.00    -0.435 OA 
ENDBRANCH   9  10
ENDBRANCH   8   9
ENDBRANCH   2   8
TORSDOF 3
ENDMDL
MODEL       69
REMARK 921   NORMALIZED FREE ENERGY PREDICTED BY IDOCK:   -3.43 KCAL/MOL
REMARK 922        TOTAL FREE ENERGY PREDICTED BY IDOCK:   -4.47 KCAL/MOL
REMARK 923 INTER-LIGAND FREE ENERGY PREDICTED BY IDOCK:   -4.31 KCAL/MOL
REMARK 924 INTRA-LIGAND FREE ENERGY PREDICTED BY IDOCK:   -0.16 KCAL/MOL
REMARK 927      BINDING AFFINITY PREDICTED BY RF-SCORE:    0.00 PKD
ROOT
HETATM    1  N   UNK     1     -10.420  16.470  65.132  1.00  0.00    -0.667 NA 
HETATM    2  C   UNK     1     -10.652  16.814  66.572  1.00  0.00    -0.198 C  
HETATM    3  H1  UNK     1     -10.841  17.131  64.480  1.00  0.00     0.000 HD 
HETATM    4  H2  UNK     1     -10.735  15.520  64.934  1.00  0.00     0.000 HD 
HETATM    5  C   UNK     1     -10.102  18.225  66.817  1.00  0.00    -0.364 C  
HETATM    6  O   UNK     1      -9.767  18.677  67.899  1.00  0.00    -0.298 OA 
HETATM    7  O   UNK     1     -10.063  18.938  65.660  1.00  0.00    -0.466 OA 
ENDROOT
BRANCH   2   8
HETATM    8  C   UNK     1     -10.019  15.819  67.554  1.00  0.00    -0.236 C  
BRANCH   8   9
HETATM    9  S   UNK     1     -11.299  15.090  68.647  1.00  0.00    -0.313 SA 
BRANCH   9  10
HETATM   10  C   UNK     1     -10.867  15.959  70.199  1.00  0.00    -0.353 C  
HETATM   11  C   UNK     1     -11.971  15.871  71.237  1.00  0.00    -0.442 C  
HETATM   12  O   UNK     1     -11.869  16.356  72.357  1.00  0.00    -0.533 OA 
HETATM   13  O   UNK     1     -13.086  15.217  70.842  1.00  0.00    -0.435 OA 
ENDBRANCH   9  10
ENDBRANCH   8   9
ENDBRANCH   2   8
TORSDOF 3
ENDMDL
MODEL       70
REMARK 921   NORMALIZED FREE ENERGY PREDICTED BY IDOCK:   -3.43 KCAL/MOL
REMARK 922        TOTAL FREE ENERGY PREDICTED BY IDOCK:   -4.46 KCAL/MOL
REMARK 923 INTER-LIGAND FREE ENERGY PREDICTED BY IDOCK:   -4.31 KCAL/MOL
REMARK 924 INTRA-LIGAND FREE ENERGY PREDICTED BY IDOCK:   -0.14 KCAL/MOL
REMARK 927      BINDING AFFINITY PREDICTED BY RF-SCORE:    0.00 PKD
ROOT
HETATM    1  N   UNK     1     -10.354  16.466  66.361  1.00  0.00    -0.308 NA 
HETATM    2  C   UNK     1     -10.926  15.255  65.687  1.00  0.00    -0.344 C  
HETATM    3  H1  UNK     1      -9.790  17.050  65.745  1.00  0.00     0.000 HD 
HETATM    4  H2  UNK     1      -9.823  16.199  67.190  1.00  0.00     0.000 HD 
HETATM    5  C   UNK     1     -11.761  15.728  64.491  1.00  0.00    -0.191 C  
HETATM    6  O   UNK     1     -12.659  15.096  63.960  1.00  0.00    -0.791 OA 
HETATM    7  O   UNK     1     -11.349  16.952  64.065  1.00  0.00    -1.109 OA 
ENDROOT
BRANCH   2   8
HETATM    8  C   UNK     1     -11.775  14.376  66.615  1.00  0.00    -0.394 C  
BRANCH   8   9
HETATM    9  S   UNK     1     -10.766  13.754  68.014  1.00  0.00    -0.256 SA 
BRANCH   9  10
HETATM   10  C   UNK     1     -11.256  11.991  67.948  1.00  0.00    -0.264 C  
HETATM   11  C   UNK     1     -10.315  11.162  67.092  1.00  0.00    -0.212 C  
HETATM   12  O   UNK     1     -10.445   9.953  66.944  1.00  0.00    -0.238 OA 
HETATM   13  O   UNK     1      -9.316  11.850  66.496  1.00  0.00    -0.205 OA 
ENDBRANCH   9  10
ENDBRANCH   8   9
ENDBRANCH   2   8
TORSDOF 3
ENDMDL
MODEL       71
REMARK 921   NORMALIZED FREE ENERGY PREDICTED BY IDOCK:   -3.42 KCAL/MOL
REMARK 922        TOTAL FREE ENERGY PREDICTED BY IDOCK:   -4.45 KCAL/MOL
REMARK 923 INTER-LIGAND FREE ENERGY PREDICTED BY IDOCK:   -4.31 KCAL/MOL
REMARK 924 INTRA-LIGAND FREE ENERGY PREDICTED BY IDOCK:   -0.14 KCAL/MOL
REMARK 927      BINDING AFFINITY PREDICTED BY RF-SCORE:    0.00 PKD
ROOT
HETATM    1  N   UNK     1     -12.214  14.353  67.355  1.00  0.00    -0.617 NA 
HETATM    2  C   UNK     1     -11.778  13.224  66.472  1.00  0.00    -0.377 C  
HETATM    3  H1  UNK     1     -12.222  15.260  66.889  1.00  0.00     0.000 HD 
HETATM    4  H2  UNK     1     -11.645  14.389  68.201  1.00  0.00     0.000 HD 
HETATM    5  C   UNK     1     -12.711  13.187  65.254  1.00  0.00    -0.394 C  
HETATM    6  O   UNK     1     -12.912  12.215  64.545  1.00  0.00    -0.677 OA 
HETATM    7  O   UNK     1     -13.274  14.406  65.038  1.00  0.00    -0.562 OA 
ENDROOT
BRANCH   2   8
HETATM    8  C   UNK     1     -11.767  11.860  67.174  1.00  0.00    -0.236 C  
BRANCH   8   9
HETATM    9  S   UNK     1     -10.477  11.817  68.477  1.00  0.00    -0.217 SA 
BRANCH   9  10
HETATM   10  C   UNK     1     -11.564  11.616  69.937  1.00  0.00    -0.288 C  
HETATM   11  C   UNK     1     -11.355  10.283  70.633  1.00  0.00    -0.347 C  
HETATM   12  O   UNK     1     -11.959   9.965  71.649  1.00  0.00    -0.393 OA 
HETATM   13  O   UNK     1     -10.453   9.461  70.052  1.00  0.00    -0.205 OA 
ENDBRANCH   9  10
ENDBRANCH   8   9
ENDBRANCH   2   8
TORSDOF 3
ENDMDL
MODEL       72
REMARK 921   NORMALIZED FREE ENERGY PREDICTED BY IDOCK:   -3.41 KCAL/MOL
REMARK 922        TOTAL FREE ENERGY PREDICTED BY IDOCK:   -4.44 KCAL/MOL
REMARK 923 INTER-LIGAND FREE ENERGY PREDICTED BY IDOCK:   -4.55 KCAL/MOL
REMARK 924 INTRA-LIGAND FREE ENERGY PREDICTED BY IDOCK:    0.10 KCAL/MOL
REMARK 927      BINDING AFFINITY PREDICTED BY RF-SCORE:    0.00 PKD
ROOT
HETATM    1  N   UNK     1     -11.276  13.660  70.317  1.00  0.00    -0.429 NA 
HETATM    2  C   UNK     1     -12.123  13.468  69.096  1.00  0.00    -0.288 C  
HETATM    3  H1  UNK     1     -11.400  12.933  71.021  1.00  0.00     0.000 HD 
HETATM    4  H2  UNK     1     -11.433  14.583  70.723  1.00  0.00     0.000 HD 
HETATM    5  C   UNK     1     -11.793  12.093  68.502  1.00  0.00    -0.310 C  
HETATM    6  O   UNK     1     -11.979  11.758  67.344  1.00  0.00    -0.617 OA 
HETATM    7  O   UNK     1     -11.287  11.262  69.452  1.00  0.00    -0.245 OA 
ENDROOT
BRANCH   2   8
HETATM    8  C   UNK     1     -11.936  14.563  68.037  1.00  0.00    -0.270 C  
BRANCH   8   9
HETATM    9  S   UNK     1     -10.285  14.424  67.251  1.00  0.00    -0.253 SA 
BRANCH   9  10
HETATM   10  C   UNK     1     -10.309  15.976  66.279  1.00  0.00    -0.321 C  
HETATM   11  C   UNK     1     -10.920  15.786  64.903  1.00  0.00    -0.427 C  
HETATM   12  O   UNK     1     -11.061  16.706  64.107  1.00  0.00    -1.005 OA 
HETATM   13  O   UNK     1     -11.300  14.522  64.607  1.00  0.00    -0.382 OA 
ENDBRANCH   9  10
ENDBRANCH   8   9
ENDBRANCH   2   8
TORSDOF 3
ENDMDL
MODEL       73
REMARK 921   NORMALIZED FREE ENERGY PREDICTED BY IDOCK:   -3.41 KCAL/MOL
REMARK 922        TOTAL FREE ENERGY PREDICTED BY IDOCK:   -4.43 KCAL/MOL
REMARK 923 INTER-LIGAND FREE ENERGY PREDICTED BY IDOCK:   -4.32 KCAL/MOL
REMARK 924 INTRA-LIGAND FREE ENERGY PREDICTED BY IDOCK:   -0.12 KCAL/MOL
REMARK 927      BINDING AFFINITY PREDICTED BY RF-SCORE:    0.00 PKD
ROOT
HETATM    1  N   UNK     1     -10.468  12.780  69.025  1.00  0.00    -0.434 NA 
HETATM    2  C   UNK     1     -11.315  13.451  67.986  1.00  0.00    -0.286 C  
HETATM    3  H1  UNK     1     -10.974  12.094  69.586  1.00  0.00     0.000 HD 
HETATM    4  H2  UNK     1     -10.018  13.472  69.625  1.00  0.00     0.000 HD 
HETATM    5  C   UNK     1     -11.910  12.363  67.084  1.00  0.00    -0.291 C  
HETATM    6  O   UNK     1     -12.313  12.530  65.944  1.00  0.00    -0.626 OA 
HETATM    7  O   UNK     1     -11.964  11.170  67.734  1.00  0.00    -0.630 OA 
ENDROOT
BRANCH   2   8
HETATM    8  C   UNK     1     -10.554  14.484  67.143  1.00  0.00    -0.274 C  
BRANCH   8   9
HETATM    9  S   UNK     1     -10.947  16.186  67.702  1.00  0.00    -0.216 SA 
BRANCH   9  10
HETATM   10  C   UNK     1      -9.331  16.972  67.354  1.00  0.00    -0.239 C  
HETATM   11  C   UNK     1      -9.414  17.992  66.233  1.00  0.00    -0.220 C  
HETATM   12  O   UNK     1      -8.452  18.655  65.867  1.00  0.00    -0.491 OA 
HETATM   13  O   UNK     1     -10.630  18.121  65.655  1.00  0.00    -0.611 OA 
ENDBRANCH   9  10
ENDBRANCH   8   9
ENDBRANCH   2   8
TORSDOF 3
ENDMDL
MODEL       74
REMARK 921   NORMALIZED FREE ENERGY PREDICTED BY IDOCK:   -3.38 KCAL/MOL
REMARK 922        TOTAL FREE ENERGY PREDICTED BY IDOCK:   -4.40 KCAL/MOL
REMARK 923 INTER-LIGAND FREE ENERGY PREDICTED BY IDOCK:   -4.30 KCAL/MOL
REMARK 924 INTRA-LIGAND FREE ENERGY PREDICTED BY IDOCK:   -0.10 KCAL/MOL
REMARK 927      BINDING AFFINITY PREDICTED BY RF-SCORE:    0.00 PKD
ROOT
HETATM    1  N   UNK     1     -12.180  10.964  68.649  1.00  0.00    -0.810 NA 
HETATM    2  C   UNK     1     -11.681  12.242  68.048  1.00  0.00    -0.356 C  
HETATM    3  H1  UNK     1     -11.975  10.138  68.086  1.00  0.00     0.000 HD 
HETATM    4  H2  UNK     1     -13.178  11.025  68.848  1.00  0.00     0.000 HD 
HETATM    5  C   UNK     1     -10.168  12.107  67.834  1.00  0.00    -0.198 C  
HETATM    6  O   UNK     1      -9.380  13.034  67.736  1.00  0.00    -0.185 OA 
HETATM    7  O   UNK     1      -9.807  10.800  67.731  1.00  0.00    -0.163 OA 
ENDROOT
BRANCH   2   8
HETATM    8  C   UNK     1     -11.989  13.484  68.896  1.00  0.00    -0.341 C  
BRANCH   8   9
HETATM    9  S   UNK     1     -12.491  12.998  70.591  1.00  0.00    -0.203 SA 
BRANCH   9  10
HETATM   10  C   UNK     1     -12.418  14.646  71.386  1.00  0.00    -0.344 C  
HETATM   11  C   UNK     1     -13.514  14.838  72.419  1.00  0.00    -0.428 C  
HETATM   12  O   UNK     1     -13.622  15.857  73.089  1.00  0.00    -0.580 OA 
HETATM   13  O   UNK     1     -14.373  13.803  72.552  1.00  0.00    -0.696 OA 
ENDBRANCH   9  10
ENDBRANCH   8   9
ENDBRANCH   2   8
TORSDOF 3
ENDMDL
MODEL       75
REMARK 921   NORMALIZED FREE ENERGY PREDICTED BY IDOCK:   -3.37 KCAL/MOL
REMARK 922        TOTAL FREE ENERGY PREDICTED BY IDOCK:   -4.39 KCAL/MOL
REMARK 923 INTER-LIGAND FREE ENERGY PREDICTED BY IDOCK:   -4.22 KCAL/MOL
REMARK 924 INTRA-LIGAND FREE ENERGY PREDICTED BY IDOCK:   -0.17 KCAL/MOL
REMARK 927      BINDING AFFINITY PREDICTED BY RF-SCORE:    0.00 PKD
ROOT
HETATM    1  N   UNK     1     -11.457   7.211  73.057  1.00  0.00    -0.559 NA 
HETATM    2  C   UNK     1     -12.223   6.636  71.904  1.00  0.00    -0.335 C  
HETATM    3  H1  UNK     1     -10.645   6.657  73.327  1.00  0.00     0.000 HD 
HETATM    4  H2  UNK     1     -12.071   7.363  73.857  1.00  0.00     0.000 HD 
HETATM    5  C   UNK     1     -11.260   6.492  70.719  1.00  0.00    -0.321 C  
HETATM    6  O   UNK     1     -11.585   6.433  69.545  1.00  0.00    -0.404 OA 
HETATM    7  O   UNK     1      -9.972   6.405  71.148  1.00  0.00    -0.179 OA 
ENDROOT
BRANCH   2   8
HETATM    8  C   UNK     1     -13.445   7.470  71.498  1.00  0.00    -0.359 C  
BRANCH   8   9
HETATM    9  S   UNK     1     -13.387   9.124  72.287  1.00  0.00    -0.480 SA 
BRANCH   9  10
HETATM   10  C   UNK     1     -12.471  10.023  70.982  1.00  0.00    -0.362 C  
HETATM   11  C   UNK     1     -12.603  11.529  71.116  1.00  0.00    -0.359 C  
HETATM   12  O   UNK     1     -12.040  12.314  70.364  1.00  0.00    -0.355 OA 
HETATM   13  O   UNK     1     -13.392  11.954  72.128  1.00  0.00    -0.503 OA 
ENDBRANCH   9  10
ENDBRANCH   8   9
ENDBRANCH   2   8
TORSDOF 3
ENDMDL
MODEL       76
REMARK 921   NORMALIZED FREE ENERGY PREDICTED BY IDOCK:   -3.36 KCAL/MOL
REMARK 922        TOTAL FREE ENERGY PREDICTED BY IDOCK:   -4.38 KCAL/MOL
REMARK 923 INTER-LIGAND FREE ENERGY PREDICTED BY IDOCK:   -3.98 KCAL/MOL
REMARK 924 INTRA-LIGAND FREE ENERGY PREDICTED BY IDOCK:   -0.40 KCAL/MOL
REMARK 927      BINDING AFFINITY PREDICTED BY RF-SCORE:    0.00 PKD
ROOT
HETATM    1  N   UNK     1     -10.012  10.631  65.652  1.00  0.00    -0.253 NA 
HETATM    2  C   UNK     1     -10.039  10.674  64.154  1.00  0.00    -0.334 C  
HETATM    3  H1  UNK     1      -9.823   9.704  66.032  1.00  0.00     0.000 HD 
HETATM    4  H2  UNK     1     -10.876  11.010  66.039  1.00  0.00     0.000 HD 
HETATM    5  C   UNK     1      -8.691  10.152  63.639  1.00  0.00    -0.212 C  
HETATM    6  O   UNK     1      -8.210  10.392  62.545  1.00  0.00    -0.149 OA 
HETATM    7  O   UNK     1      -8.100   9.344  64.561  1.00  0.00    -0.121 OA 
ENDROOT
BRANCH   2   8
HETATM    8  C   UNK     1     -10.322  12.069  63.582  1.00  0.00    -0.450 C  
BRANCH   8   9
HETATM    9  S   UNK     1     -12.123  12.414  63.586  1.00  0.00    -0.582 SA 
BRANCH   9  10
HETATM   10  C   UNK     1     -12.112  13.938  64.600  1.00  0.00    -0.431 C  
HETATM   11  C   UNK     1     -12.145  13.643  66.088  1.00  0.00    -0.436 C  
HETATM   12  O   UNK     1     -12.109  14.522  66.940  1.00  0.00    -0.399 OA 
HETATM   13  O   UNK     1     -12.219  12.334  66.418  1.00  0.00    -0.613 OA 
ENDBRANCH   9  10
ENDBRANCH   8   9
ENDBRANCH   2   8
TORSDOF 3
ENDMDL
MODEL       77
REMARK 921   NORMALIZED FREE ENERGY PREDICTED BY IDOCK:   -3.34 KCAL/MOL
REMARK 922        TOTAL FREE ENERGY PREDICTED BY IDOCK:   -4.35 KCAL/MOL
REMARK 923 INTER-LIGAND FREE ENERGY PREDICTED BY IDOCK:   -4.27 KCAL/MOL
REMARK 924 INTRA-LIGAND FREE ENERGY PREDICTED BY IDOCK:   -0.09 KCAL/MOL
REMARK 927      BINDING AFFINITY PREDICTED BY RF-SCORE:    0.00 PKD
ROOT
HETATM    1  N   UNK     1     -11.523  12.327  70.282  1.00  0.00    -0.485 NA 
HETATM    2  C   UNK     1     -12.871  12.041  70.871  1.00  0.00    -0.115 C  
HETATM    3  H1  UNK     1     -11.493  13.178  69.721  1.00  0.00     0.000 HD 
HETATM    4  H2  UNK     1     -11.189  11.528  69.742  1.00  0.00     0.000 HD 
HETATM    5  C   UNK     1     -13.286  13.250  71.718  1.00  0.00    -0.405 C  
HETATM    6  O   UNK     1     -14.099  13.233  72.627  1.00  0.00    -0.744 OA 
HETATM    7  O   UNK     1     -12.645  14.376  71.303  1.00  0.00    -0.309 OA 
ENDROOT
BRANCH   2   8
HETATM    8  C   UNK     1     -12.917  10.760  71.715  1.00  0.00    -0.463 C  
BRANCH   8   9
HETATM    9  S   UNK     1     -11.798   9.487  71.014  1.00  0.00    -0.351 SA 
BRANCH   9  10
HETATM   10  C   UNK     1     -11.937   8.233  72.341  1.00  0.00    -0.384 C  
HETATM   11  C   UNK     1     -11.956   6.816  71.798  1.00  0.00    -0.339 C  
HETATM   12  O   UNK     1     -12.010   5.829  72.521  1.00  0.00    -0.275 OA 
HETATM   13  O   UNK     1     -11.911   6.712  70.450  1.00  0.00    -0.396 OA 
ENDBRANCH   9  10
ENDBRANCH   8   9
ENDBRANCH   2   8
TORSDOF 3
ENDMDL
MODEL       78
REMARK 921   NORMALIZED FREE ENERGY PREDICTED BY IDOCK:   -3.33 KCAL/MOL
REMARK 922        TOTAL FREE ENERGY PREDICTED BY IDOCK:   -4.35 KCAL/MOL
REMARK 923 INTER-LIGAND FREE ENERGY PREDICTED BY IDOCK:   -4.21 KCAL/MOL
REMARK 924 INTRA-LIGAND FREE ENERGY PREDICTED BY IDOCK:   -0.14 KCAL/MOL
REMARK 927      BINDING AFFINITY PREDICTED BY RF-SCORE:    0.00 PKD
ROOT
HETATM    1  N   UNK     1     -13.273  14.852  70.220  1.00  0.00    -0.608 NA 
HETATM    2  C   UNK     1     -12.135  15.297  71.088  1.00  0.00    -0.348 C  
HETATM    3  H1  UNK     1     -13.900  14.188  70.674  1.00  0.00     0.000 HD 
HETATM    4  H2  UNK     1     -12.926  14.473  69.339  1.00  0.00     0.000 HD 
HETATM    5  C   UNK     1     -12.725  15.912  72.364  1.00  0.00    -0.444 C  
HETATM    6  O   UNK     1     -12.156  16.704  73.098  1.00  0.00    -0.479 OA 
HETATM    7  O   UNK     1     -13.975  15.432  72.601  1.00  0.00    -0.518 OA 
ENDROOT
BRANCH   2   8
HETATM    8  C   UNK     1     -11.191  16.296  70.404  1.00  0.00    -0.324 C  
BRANCH   8   9
HETATM    9  S   UNK     1     -11.393  16.228  68.583  1.00  0.00    -0.268 SA 
BRANCH   9  10
HETATM   10  C   UNK     1     -10.448  14.694  68.256  1.00  0.00    -0.236 C  
HETATM   11  C   UNK     1     -11.150  13.784  67.265  1.00  0.00    -0.304 C  
HETATM   12  O   UNK     1     -10.671  12.723  66.884  1.00  0.00    -0.249 OA 
HETATM   13  O   UNK     1     -12.352  14.221  66.827  1.00  0.00    -0.429 OA 
ENDBRANCH   9  10
ENDBRANCH   8   9
ENDBRANCH   2   8
TORSDOF 3
ENDMDL
MODEL       79
REMARK 921   NORMALIZED FREE ENERGY PREDICTED BY IDOCK:   -3.32 KCAL/MOL
REMARK 922        TOTAL FREE ENERGY PREDICTED BY IDOCK:   -4.33 KCAL/MOL
REMARK 923 INTER-LIGAND FREE ENERGY PREDICTED BY IDOCK:   -4.25 KCAL/MOL
REMARK 924 INTRA-LIGAND FREE ENERGY PREDICTED BY IDOCK:   -0.08 KCAL/MOL
REMARK 927      BINDING AFFINITY PREDICTED BY RF-SCORE:    0.00 PKD
ROOT
HETATM    1  N   UNK     1     -10.784  16.958  67.981  1.00  0.00    -0.364 NA 
HETATM    2  C   UNK     1     -10.602  16.272  66.661  1.00  0.00    -0.252 C  
HETATM    3  H1  UNK     1     -10.176  17.767  68.110  1.00  0.00     0.000 HD 
HETATM    4  H2  UNK     1     -10.670  16.297  68.749  1.00  0.00     0.000 HD 
HETATM    5  C   UNK     1     -10.847  17.303  65.552  1.00  0.00    -0.023 C  
HETATM    6  O   UNK     1     -11.163  17.045  64.402  1.00  0.00    -1.167 OA 
HETATM    7  O   UNK     1     -10.633  18.566  66.008  1.00  0.00    -0.438 OA 
ENDROOT
BRANCH   2   8
HETATM    8  C   UNK     1     -11.517  15.054  66.467  1.00  0.00    -0.239 C  
BRANCH   8   9
HETATM    9  S   UNK     1     -10.620  13.706  65.607  1.00  0.00    -0.301 SA 
BRANCH   9  10
HETATM   10  C   UNK     1     -11.633  12.291  66.177  1.00  0.00    -0.390 C  
HETATM   11  C   UNK     1     -11.242  11.824  67.568  1.00  0.00    -0.291 C  
HETATM   12  O   UNK     1     -11.819  10.912  68.147  1.00  0.00    -0.564 OA 
HETATM   13  O   UNK     1     -10.205  12.484  68.131  1.00  0.00    -0.217 OA 
ENDBRANCH   9  10
ENDBRANCH   8   9
ENDBRANCH   2   8
TORSDOF 3
ENDMDL
MODEL       80
REMARK 921   NORMALIZED FREE ENERGY PREDICTED BY IDOCK:   -3.31 KCAL/MOL
REMARK 922        TOTAL FREE ENERGY PREDICTED BY IDOCK:   -4.33 KCAL/MOL
REMARK 923 INTER-LIGAND FREE ENERGY PREDICTED BY IDOCK:   -4.17 KCAL/MOL
REMARK 924 INTRA-LIGAND FREE ENERGY PREDICTED BY IDOCK:   -0.16 KCAL/MOL
REMARK 927      BINDING AFFINITY PREDICTED BY RF-SCORE:    0.00 PKD
ROOT
HETATM    1  N   UNK     1      -9.648  15.178  65.574  1.00  0.00    -0.410 NA 
HETATM    2  C   UNK     1     -10.666  14.465  64.736  1.00  0.00    -0.403 C  
HETATM    3  H1  UNK     1      -9.184  15.947  65.090  1.00  0.00     0.000 HD 
HETATM    4  H2  UNK     1      -8.962  14.521  65.945  1.00  0.00     0.000 HD 
HETATM    5  C   UNK     1     -11.699  15.496  64.264  1.00  0.00    -0.190 C  
HETATM    6  O   UNK     1     -12.838  15.246  63.908  1.00  0.00    -0.637 OA 
HETATM    7  O   UNK     1     -11.168  16.748  64.260  1.00  0.00    -1.163 OA 
ENDROOT
BRANCH   2   8
HETATM    8  C   UNK     1     -11.364  13.309  65.465  1.00  0.00    -0.294 C  
BRANCH   8   9
HETATM    9  S   UNK     1     -10.899  11.701  64.715  1.00  0.00    -0.296 SA 
BRANCH   9  10
HETATM   10  C   UNK     1      -9.384  11.368  65.688  1.00  0.00    -0.222 C  
HETATM   11  C   UNK     1      -9.670  10.572  66.948  1.00  0.00    -0.180 C  
HETATM   12  O   UNK     1      -8.790  10.216  67.721  1.00  0.00    -0.125 OA 
HETATM   13  O   UNK     1     -10.972  10.281  67.167  1.00  0.00    -0.251 OA 
ENDBRANCH   9  10
ENDBRANCH   8   9
ENDBRANCH   2   8
TORSDOF 3
ENDMDL
MODEL       81
REMARK 921   NORMALIZED FREE ENERGY PREDICTED BY IDOCK:   -3.31 KCAL/MOL
REMARK 922        TOTAL FREE ENERGY PREDICTED BY IDOCK:   -4.32 KCAL/MOL
REMARK 923 INTER-LIGAND FREE ENERGY PREDICTED BY IDOCK:   -4.11 KCAL/MOL
REMARK 924 INTRA-LIGAND FREE ENERGY PREDICTED BY IDOCK:   -0.20 KCAL/MOL
REMARK 927      BINDING AFFINITY PREDICTED BY RF-SCORE:    0.00 PKD
ROOT
HETATM    1  N   UNK     1     -10.443  19.019  68.344  1.00  0.00    -0.410 NA 
HETATM    2  C   UNK     1     -10.055  17.738  67.670  1.00  0.00    -0.342 C  
HETATM    3  H1  UNK     1      -9.899  19.825  68.038  1.00  0.00     0.000 HD 
HETATM    4  H2  UNK     1     -10.400  18.920  69.358  1.00  0.00     0.000 HD 
HETATM    5  C   UNK     1     -10.201  17.935  66.156  1.00  0.00    -0.343 C  
HETATM    6  O   UNK     1     -10.349  17.044  65.336  1.00  0.00    -0.617 OA 
HETATM    7  O   UNK     1     -10.112  19.252  65.827  1.00  0.00    -0.459 OA 
ENDROOT
BRANCH   2   8
HETATM    8  C   UNK     1     -10.874  16.525  68.130  1.00  0.00    -0.345 C  
BRANCH   8   9
HETATM    9  S   UNK     1      -9.768  15.131  68.573  1.00  0.00    -0.220 SA 
BRANCH   9  10
HETATM   10  C   UNK     1     -10.256  13.959  67.253  1.00  0.00    -0.249 C  
HETATM   11  C   UNK     1     -11.346  13.004  67.703  1.00  0.00    -0.300 C  
HETATM   12  O   UNK     1     -11.838  12.163  66.962  1.00  0.00    -0.547 OA 
HETATM   13  O   UNK     1     -11.741  13.140  68.989  1.00  0.00    -0.281 OA 
ENDBRANCH   9  10
ENDBRANCH   8   9
ENDBRANCH   2   8
TORSDOF 3
ENDMDL
MODEL       82
REMARK 921   NORMALIZED FREE ENERGY PREDICTED BY IDOCK:   -3.31 KCAL/MOL
REMARK 922        TOTAL FREE ENERGY PREDICTED BY IDOCK:   -4.32 KCAL/MOL
REMARK 923 INTER-LIGAND FREE ENERGY PREDICTED BY IDOCK:   -4.31 KCAL/MOL
REMARK 924 INTRA-LIGAND FREE ENERGY PREDICTED BY IDOCK:   -0.00 KCAL/MOL
REMARK 927      BINDING AFFINITY PREDICTED BY RF-SCORE:    0.00 PKD
ROOT
HETATM    1  N   UNK     1     -12.553  13.399  64.907  1.00  0.00    -0.631 NA 
HETATM    2  C   UNK     1     -11.702  14.583  65.254  1.00  0.00    -0.361 C  
HETATM    3  H1  UNK     1     -13.553  13.596  64.916  1.00  0.00     0.000 HD 
HETATM    4  H2  UNK     1     -12.336  12.609  65.515  1.00  0.00     0.000 HD 
HETATM    5  C   UNK     1     -12.030  15.710  64.266  1.00  0.00    -0.115 C  
HETATM    6  O   UNK     1     -11.300  16.647  63.992  1.00  0.00    -1.120 OA 
HETATM    7  O   UNK     1     -13.277  15.550  63.745  1.00  0.00    -0.020 OA 
ENDROOT
BRANCH   2   8
HETATM    8  C   UNK     1     -10.196  14.286  65.239  1.00  0.00    -0.382 C  
BRANCH   8   9
HETATM    9  S   UNK     1      -9.480  14.509  66.913  1.00  0.00    -0.263 SA 
BRANCH   9  10
HETATM   10  C   UNK     1     -10.404  16.008  67.412  1.00  0.00    -0.294 C  
HETATM   11  C   UNK     1      -9.849  17.268  66.773  1.00  0.00    -0.294 C  
HETATM   12  O   UNK     1     -10.344  18.374  66.950  1.00  0.00    -0.356 OA 
HETATM   13  O   UNK     1      -8.761  17.090  65.990  1.00  0.00    -0.477 OA 
ENDBRANCH   9  10
ENDBRANCH   8   9
ENDBRANCH   2   8
TORSDOF 3
ENDMDL
MODEL       83
REMARK 921   NORMALIZED FREE ENERGY PREDICTED BY IDOCK:   -3.29 KCAL/MOL
REMARK 922        TOTAL FREE ENERGY PREDICTED BY IDOCK:   -4.30 KCAL/MOL
REMARK 923 INTER-LIGAND FREE ENERGY PREDICTED BY IDOCK:   -4.22 KCAL/MOL
REMARK 924 INTRA-LIGAND FREE ENERGY PREDICTED BY IDOCK:   -0.08 KCAL/MOL
REMARK 927      BINDING AFFINITY PREDICTED BY RF-SCORE:    0.00 PKD
ROOT
HETATM    1  N   UNK     1     -11.429  13.787  70.230  1.00  0.00    -0.510 NA 
HETATM    2  C   UNK     1     -12.703  13.506  70.968  1.00  0.00    -0.322 C  
HETATM    3  H1  UNK     1     -11.369  14.736  69.861  1.00  0.00     0.000 HD 
HETATM    4  H2  UNK     1     -11.285  13.103  69.487  1.00  0.00     0.000 HD 
HETATM    5  C   UNK     1     -12.828  14.527  72.106  1.00  0.00    -0.339 C  
HETATM    6  O   UNK     1     -13.495  14.384  73.116  1.00  0.00    -0.625 OA 
HETATM    7  O   UNK     1     -12.112  15.651  71.830  1.00  0.00    -0.347 OA 
ENDROOT
BRANCH   2   8
HETATM    8  C   UNK     1     -12.793  12.078  71.523  1.00  0.00    -0.297 C  
BRANCH   8   9
HETATM    9  S   UNK     1     -12.324  10.857  70.237  1.00  0.00    -0.321 SA 
BRANCH   9  10
HETATM   10  C   UNK     1     -11.403   9.680  71.295  1.00  0.00    -0.388 C  
HETATM   11  C   UNK     1     -12.315   8.669  71.964  1.00  0.00    -0.371 C  
HETATM   12  O   UNK     1     -11.896   7.773  72.686  1.00  0.00    -0.330 OA 
HETATM   13  O   UNK     1     -13.635   8.823  71.712  1.00  0.00    -0.370 OA 
ENDBRANCH   9  10
ENDBRANCH   8   9
ENDBRANCH   2   8
TORSDOF 3
ENDMDL
MODEL       84
REMARK 921   NORMALIZED FREE ENERGY PREDICTED BY IDOCK:   -3.27 KCAL/MOL
REMARK 922        TOTAL FREE ENERGY PREDICTED BY IDOCK:   -4.27 KCAL/MOL
REMARK 923 INTER-LIGAND FREE ENERGY PREDICTED BY IDOCK:   -4.15 KCAL/MOL
REMARK 924 INTRA-LIGAND FREE ENERGY PREDICTED BY IDOCK:   -0.13 KCAL/MOL
REMARK 927      BINDING AFFINITY PREDICTED BY RF-SCORE:    0.00 PKD
ROOT
HETATM    1  N   UNK     1     -10.124  13.888  64.342  1.00  0.00    -0.739 NA 
HETATM    2  C   UNK     1     -10.875  12.627  64.043  1.00  0.00    -0.415 C  
HETATM    3  H1  UNK     1     -10.312  14.644  63.683  1.00  0.00     0.000 HD 
HETATM    4  H2  UNK     1      -9.123  13.705  64.404  1.00  0.00     0.000 HD 
HETATM    5  C   UNK     1     -12.373  12.958  64.027  1.00  0.00    -0.380 C  
HETATM    6  O   UNK     1     -13.278  12.158  64.200  1.00  0.00    -0.740 OA 
HETATM    7  O   UNK     1     -12.575  14.276  63.758  1.00  0.00    -0.821 OA 
ENDROOT
BRANCH   2   8
HETATM    8  C   UNK     1     -10.593  11.490  65.035  1.00  0.00    -0.297 C  
BRANCH   8   9
HETATM    9  S   UNK     1      -9.574  12.095  66.434  1.00  0.00    -0.236 SA 
BRANCH   9  10
HETATM   10  C   UNK     1      -8.341  10.742  66.485  1.00  0.00    -0.146 C  
HETATM   11  C   UNK     1      -8.491   9.870  67.718  1.00  0.00    -0.118 C  
HETATM   12  O   UNK     1      -7.787   8.891  67.928  1.00  0.00    -0.100 OA 
HETATM   13  O   UNK     1      -9.460  10.250  68.582  1.00  0.00    -0.155 OA 
ENDBRANCH   9  10
ENDBRANCH   8   9
ENDBRANCH   2   8
TORSDOF 3
ENDMDL
MODEL       85
REMARK 921   NORMALIZED FREE ENERGY PREDICTED BY IDOCK:   -3.26 KCAL/MOL
REMARK 922        TOTAL FREE ENERGY PREDICTED BY IDOCK:   -4.27 KCAL/MOL
REMARK 923 INTER-LIGAND FREE ENERGY PREDICTED BY IDOCK:   -4.18 KCAL/MOL
REMARK 924 INTRA-LIGAND FREE ENERGY PREDICTED BY IDOCK:   -0.09 KCAL/MOL
REMARK 927      BINDING AFFINITY PREDICTED BY RF-SCORE:    0.00 PKD
ROOT
HETATM    1  N   UNK     1      -8.647  13.752  68.621  1.00  0.00    -0.329 NA 
HETATM    2  C   UNK     1      -9.321  14.649  67.627  1.00  0.00    -0.200 C  
HETATM    3  H1  UNK     1      -7.884  14.201  69.127  1.00  0.00     0.000 HD 
HETATM    4  H2  UNK     1      -8.325  12.895  68.172  1.00  0.00     0.000 HD 
HETATM    5  C   UNK     1      -9.835  15.886  68.375  1.00  0.00    -0.214 C  
HETATM    6  O   UNK     1     -10.736  16.617  67.999  1.00  0.00    -0.330 OA 
HETATM    7  O   UNK     1      -9.127  16.090  69.518  1.00  0.00    -0.234 OA 
ENDROOT
BRANCH   2   8
HETATM    8  C   UNK     1     -10.469  13.973  66.865  1.00  0.00    -0.276 C  
BRANCH   8   9
HETATM    9  S   UNK     1     -10.599  14.646  65.165  1.00  0.00    -0.441 SA 
BRANCH   9  10
HETATM   10  C   UNK     1     -12.244  13.975  64.725  1.00  0.00    -0.433 C  
HETATM   11  C   UNK     1     -12.151  12.791  63.780  1.00  0.00    -0.517 C  
HETATM   12  O   UNK     1     -13.135  12.175  63.390  1.00  0.00    -0.752 OA 
HETATM   13  O   UNK     1     -10.900  12.457  63.390  1.00  0.00    -0.451 OA 
ENDBRANCH   9  10
ENDBRANCH   8   9
ENDBRANCH   2   8
TORSDOF 3
ENDMDL
MODEL       86
REMARK 921   NORMALIZED FREE ENERGY PREDICTED BY IDOCK:   -3.24 KCAL/MOL
REMARK 922        TOTAL FREE ENERGY PREDICTED BY IDOCK:   -4.24 KCAL/MOL
REMARK 923 INTER-LIGAND FREE ENERGY PREDICTED BY IDOCK:   -4.07 KCAL/MOL
REMARK 924 INTRA-LIGAND FREE ENERGY PREDICTED BY IDOCK:   -0.17 KCAL/MOL
REMARK 927      BINDING AFFINITY PREDICTED BY RF-SCORE:    0.00 PKD
ROOT
HETATM    1  N   UNK     1     -10.169  14.502  64.864  1.00  0.00    -0.477 NA 
HETATM    2  C   UNK     1     -10.845  13.175  65.026  1.00  0.00    -0.315 C  
HETATM    3  H1  UNK     1     -10.171  14.849  63.905  1.00  0.00     0.000 HD 
HETATM    4  H2  UNK     1      -9.218  14.470  65.233  1.00  0.00     0.000 HD 
HETATM    5  C   UNK     1     -12.284  13.309  64.513  1.00  0.00    -0.400 C  
HETATM    6  O   UNK     1     -13.219  12.591  64.827  1.00  0.00    -0.839 OA 
HETATM    7  O   UNK     1     -12.387  14.330  63.621  1.00  0.00    -0.741 OA 
ENDROOT
BRANCH   2   8
HETATM    8  C   UNK     1     -10.842  12.653  66.470  1.00  0.00    -0.258 C  
BRANCH   8   9
HETATM    9  S   UNK     1     -10.449  10.862  66.505  1.00  0.00    -0.240 SA 
BRANCH   9  10
HETATM   10  C   UNK     1     -10.019  10.637  64.740  1.00  0.00    -0.327 C  
HETATM   11  C   UNK     1      -8.537  10.379  64.535  1.00  0.00    -0.180 C  
HETATM   12  O   UNK     1      -8.046  10.169  63.434  1.00  0.00    -0.153 OA 
HETATM   13  O   UNK     1      -7.784  10.401  65.659  1.00  0.00    -0.143 OA 
ENDBRANCH   9  10
ENDBRANCH   8   9
ENDBRANCH   2   8
TORSDOF 3
ENDMDL
MODEL       87
REMARK 921   NORMALIZED FREE ENERGY PREDICTED BY IDOCK:   -3.24 KCAL/MOL
REMARK 922        TOTAL FREE ENERGY PREDICTED BY IDOCK:   -4.24 KCAL/MOL
REMARK 923 INTER-LIGAND FREE ENERGY PREDICTED BY IDOCK:   -4.09 KCAL/MOL
REMARK 924 INTRA-LIGAND FREE ENERGY PREDICTED BY IDOCK:   -0.15 KCAL/MOL
REMARK 927      BINDING AFFINITY PREDICTED BY RF-SCORE:    0.00 PKD
ROOT
HETATM    1  N   UNK     1      -8.640  14.702  67.174  1.00  0.00    -0.212 NA 
HETATM    2  C   UNK     1      -9.184  15.895  66.450  1.00  0.00    -0.309 C  
HETATM    3  H1  UNK     1      -7.725  14.861  67.597  1.00  0.00     0.000 HD 
HETATM    4  H2  UNK     1      -8.614  13.888  66.559  1.00  0.00     0.000 HD 
HETATM    5  C   UNK     1      -9.255  17.062  67.444  1.00  0.00    -0.234 C  
HETATM    6  O   UNK     1      -9.976  18.040  67.339  1.00  0.00    -0.302 OA 
HETATM    7  O   UNK     1      -8.372  16.885  68.463  1.00  0.00    -0.236 OA 
ENDROOT
BRANCH   2   8
HETATM    8  C   UNK     1     -10.560  15.656  65.813  1.00  0.00    -0.361 C  
BRANCH   8   9
HETATM    9  S   UNK     1     -11.503  14.407  66.769  1.00  0.00    -0.382 SA 
BRANCH   9  10
HETATM   10  C   UNK     1     -12.734  13.952  65.492  1.00  0.00    -0.499 C  
HETATM   11  C   UNK     1     -12.355  12.684  64.750  1.00  0.00    -0.489 C  
HETATM   12  O   UNK     1     -13.059  12.189  63.880  1.00  0.00    -0.749 OA 
HETATM   13  O   UNK     1     -11.175  12.131  65.112  1.00  0.00    -0.313 OA 
ENDBRANCH   9  10
ENDBRANCH   8   9
ENDBRANCH   2   8
TORSDOF 3
ENDMDL
MODEL       88
REMARK 921   NORMALIZED FREE ENERGY PREDICTED BY IDOCK:   -3.24 KCAL/MOL
REMARK 922        TOTAL FREE ENERGY PREDICTED BY IDOCK:   -4.24 KCAL/MOL
REMARK 923 INTER-LIGAND FREE ENERGY PREDICTED BY IDOCK:   -3.83 KCAL/MOL
REMARK 924 INTRA-LIGAND FREE ENERGY PREDICTED BY IDOCK:   -0.41 KCAL/MOL
REMARK 927      BINDING AFFINITY PREDICTED BY RF-SCORE:    0.00 PKD
ROOT
HETATM    1  N   UNK     1     -10.951  10.837  70.142  1.00  0.00    -0.458 NA 
HETATM    2  C   UNK     1     -12.330  10.706  70.712  1.00  0.00    -0.376 C  
HETATM    3  H1  UNK     1     -10.877  11.536  69.402  1.00  0.00     0.000 HD 
HETATM    4  H2  UNK     1     -10.607   9.933  69.817  1.00  0.00     0.000 HD 
HETATM    5  C   UNK     1     -12.760  12.082  71.236  1.00  0.00    -0.279 C  
HETATM    6  O   UNK     1     -13.615  12.282  72.083  1.00  0.00    -0.461 OA 
HETATM    7  O   UNK     1     -12.079  13.076  70.606  1.00  0.00    -0.348 OA 
ENDROOT
BRANCH   2   8
HETATM    8  C   UNK     1     -12.440   9.655  71.825  1.00  0.00    -0.402 C  
BRANCH   8   9
HETATM    9  S   UNK     1     -11.594   8.105  71.332  1.00  0.00    -0.287 SA 
BRANCH   9  10
HETATM   10  C   UNK     1     -10.596   7.840  72.844  1.00  0.00    -0.366 C  
HETATM   11  C   UNK     1      -9.243   8.524  72.771  1.00  0.00    -0.160 C  
HETATM   12  O   UNK     1      -8.437   8.499  73.692  1.00  0.00    -0.353 OA 
HETATM   13  O   UNK     1      -8.981   9.167  71.610  1.00  0.00    -0.336 OA 
ENDBRANCH   9  10
ENDBRANCH   8   9
ENDBRANCH   2   8
TORSDOF 3
ENDMDL
MODEL       89
REMARK 921   NORMALIZED FREE ENERGY PREDICTED BY IDOCK:   -3.23 KCAL/MOL
REMARK 922        TOTAL FREE ENERGY PREDICTED BY IDOCK:   -4.22 KCAL/MOL
REMARK 923 INTER-LIGAND FREE ENERGY PREDICTED BY IDOCK:   -4.10 KCAL/MOL
REMARK 924 INTRA-LIGAND FREE ENERGY PREDICTED BY IDOCK:   -0.12 KCAL/MOL
REMARK 927      BINDING AFFINITY PREDICTED BY RF-SCORE:    0.00 PKD
ROOT
HETATM    1  N   UNK     1      -8.966  19.767  67.712  1.00  0.00    -0.320 NA 
HETATM    2  C   UNK     1      -7.971  18.713  67.333  1.00  0.00    -0.236 C  
HETATM    3  H1  UNK     1      -8.577  20.709  67.733  1.00  0.00     0.000 HD 
HETATM    4  H2  UNK     1      -9.409  19.541  68.603  1.00  0.00     0.000 HD 
HETATM    5  C   UNK     1      -7.391  19.078  65.961  1.00  0.00    -0.266 C  
HETATM    6  O   UNK     1      -6.870  18.299  65.181  1.00  0.00    -0.476 OA 
HETATM    7  O   UNK     1      -7.503  20.414  65.728  1.00  0.00    -0.218 OA 
ENDROOT
BRANCH   2   8
HETATM    8  C   UNK     1      -8.556  17.294  67.302  1.00  0.00    -0.203 C  
BRANCH   8   9
HETATM    9  S   UNK     1     -10.375  17.353  67.077  1.00  0.00    -0.297 SA 
BRANCH   9  10
HETATM   10  C   UNK     1     -10.627  15.668  66.408  1.00  0.00    -0.308 C  
HETATM   11  C   UNK     1     -11.000  15.680  64.936  1.00  0.00    -0.431 C  
HETATM   12  O   UNK     1     -11.179  14.657  64.289  1.00  0.00    -0.224 OA 
HETATM   13  O   UNK     1     -11.125  16.907  64.381  1.00  0.00    -1.128 OA 
ENDBRANCH   9  10
ENDBRANCH   8   9
ENDBRANCH   2   8
TORSDOF 3
ENDMDL
MODEL       90
REMARK 921   NORMALIZED FREE ENERGY PREDICTED BY IDOCK:   -3.21 KCAL/MOL
REMARK 922        TOTAL FREE ENERGY PREDICTED BY IDOCK:   -4.20 KCAL/MOL
REMARK 923 INTER-LIGAND FREE ENERGY PREDICTED BY IDOCK:   -4.12 KCAL/MOL
REMARK 924 INTRA-LIGAND FREE ENERGY PREDICTED BY IDOCK:   -0.09 KCAL/MOL
REMARK 927      BINDING AFFINITY PREDICTED BY RF-SCORE:    0.00 PKD
ROOT
HETATM    1  N   UNK     1     -10.767   9.642  71.125  1.00  0.00    -0.331 NA 
HETATM    2  C   UNK     1     -11.934   9.191  71.949  1.00  0.00    -0.373 C  
HETATM    3  H1  UNK     1      -9.968   9.010  71.165  1.00  0.00     0.000 HD 
HETATM    4  H2  UNK     1     -10.490  10.589  71.381  1.00  0.00     0.000 HD 
HETATM    5  C   UNK     1     -12.339   7.790  71.473  1.00  0.00    -0.320 C  
HETATM    6  O   UNK     1     -13.437   7.280  71.625  1.00  0.00    -0.375 OA 
HETATM    7  O   UNK     1     -11.293   7.160  70.875  1.00  0.00    -0.265 OA 
ENDROOT
BRANCH   2   8
HETATM    8  C   UNK     1     -13.137  10.142  71.888  1.00  0.00    -0.466 C  
BRANCH   8   9
HETATM    9  S   UNK     1     -12.649  11.751  71.157  1.00  0.00    -0.223 SA 
BRANCH   9  10
HETATM   10  C   UNK     1     -13.610  12.858  72.255  1.00  0.00    -0.515 C  
HETATM   11  C   UNK     1     -13.702  14.272  71.713  1.00  0.00    -0.412 C  
HETATM   12  O   UNK     1     -14.328  15.160  72.277  1.00  0.00    -0.508 OA 
HETATM   13  O   UNK     1     -13.037  14.494  70.556  1.00  0.00    -0.330 OA 
ENDBRANCH   9  10
ENDBRANCH   8   9
ENDBRANCH   2   8
TORSDOF 3
ENDMDL
MODEL       91
REMARK 921   NORMALIZED FREE ENERGY PREDICTED BY IDOCK:   -3.21 KCAL/MOL
REMARK 922        TOTAL FREE ENERGY PREDICTED BY IDOCK:   -4.20 KCAL/MOL
REMARK 923 INTER-LIGAND FREE ENERGY PREDICTED BY IDOCK:   -4.06 KCAL/MOL
REMARK 924 INTRA-LIGAND FREE ENERGY PREDICTED BY IDOCK:   -0.14 KCAL/MOL
REMARK 927      BINDING AFFINITY PREDICTED BY RF-SCORE:    0.00 PKD
ROOT
HETATM    1  N   UNK     1     -10.335  16.616  65.240  1.00  0.00    -0.636 NA 
HETATM    2  C   UNK     1     -10.742  16.122  66.594  1.00  0.00    -0.226 C  
HETATM    3  H1  UNK     1     -10.822  17.464  64.949  1.00  0.00     0.000 HD 
HETATM    4  H2  UNK     1     -10.445  15.882  64.540  1.00  0.00     0.000 HD 
HETATM    5  C   UNK     1     -10.495  17.249  67.605  1.00  0.00    -0.363 C  
HETATM    6  O   UNK     1     -10.339  17.102  68.806  1.00  0.00    -0.314 OA 
HETATM    7  O   UNK     1     -10.501  18.462  66.990  1.00  0.00    -0.383 OA 
ENDROOT
BRANCH   2   8
HETATM    8  C   UNK     1     -10.010  14.846  67.031  1.00  0.00    -0.240 C  
BRANCH   8   9
HETATM    9  S   UNK     1     -11.170  13.426  67.090  1.00  0.00    -0.314 SA 
BRANCH   9  10
HETATM   10  C   UNK     1     -11.431  13.356  68.901  1.00  0.00    -0.304 C  
HETATM   11  C   UNK     1     -11.895  11.987  69.364  1.00  0.00    -0.324 C  
HETATM   12  O   UNK     1     -12.095  11.718  70.542  1.00  0.00    -0.363 OA 
HETATM   13  O   UNK     1     -12.079  11.074  68.384  1.00  0.00    -0.594 OA 
ENDBRANCH   9  10
ENDBRANCH   8   9
ENDBRANCH   2   8
TORSDOF 3
ENDMDL
MODEL       92
REMARK 921   NORMALIZED FREE ENERGY PREDICTED BY IDOCK:   -3.21 KCAL/MOL
REMARK 922        TOTAL FREE ENERGY PREDICTED BY IDOCK:   -4.20 KCAL/MOL
REMARK 923 INTER-LIGAND FREE ENERGY PREDICTED BY IDOCK:   -3.76 KCAL/MOL
REMARK 924 INTRA-LIGAND FREE ENERGY PREDICTED BY IDOCK:   -0.44 KCAL/MOL
REMARK 927      BINDING AFFINITY PREDICTED BY RF-SCORE:    0.00 PKD
ROOT
HETATM    1  N   UNK     1     -10.955  11.068  70.019  1.00  0.00    -0.467 NA 
HETATM    2  C   UNK     1     -12.312  10.912  70.636  1.00  0.00    -0.376 C  
HETATM    3  H1  UNK     1     -10.904  11.812  69.324  1.00  0.00     0.000 HD 
HETATM    4  H2  UNK     1     -10.635  10.184  69.624  1.00  0.00     0.000 HD 
HETATM    5  C   UNK     1     -12.705  12.254  71.265  1.00  0.00    -0.251 C  
HETATM    6  O   UNK     1     -13.523  12.407  72.156  1.00  0.00    -0.525 OA 
HETATM    7  O   UNK     1     -12.039  13.281  70.672  1.00  0.00    -0.348 OA 
ENDROOT
BRANCH   2   8
HETATM    8  C   UNK     1     -12.389   9.792  71.682  1.00  0.00    -0.408 C  
BRANCH   8   9
HETATM    9  S   UNK     1     -10.818   8.847  71.731  1.00  0.00    -0.371 SA 
BRANCH   9  10
HETATM   10  C   UNK     1     -11.412   7.281  70.992  1.00  0.00    -0.287 C  
HETATM   11  C   UNK     1     -11.044   7.159  69.524  1.00  0.00    -0.141 C  
HETATM   12  O   UNK     1     -11.318   6.174  68.851  1.00  0.00    -0.367 OA 
HETATM   13  O   UNK     1     -10.391   8.221  69.000  1.00  0.00    -0.218 OA 
ENDBRANCH   9  10
ENDBRANCH   8   9
ENDBRANCH   2   8
TORSDOF 3
ENDMDL
MODEL       93
REMARK 921   NORMALIZED FREE ENERGY PREDICTED BY IDOCK:   -3.20 KCAL/MOL
REMARK 922        TOTAL FREE ENERGY PREDICTED BY IDOCK:   -4.20 KCAL/MOL
REMARK 923 INTER-LIGAND FREE ENERGY PREDICTED BY IDOCK:   -4.25 KCAL/MOL
REMARK 924 INTRA-LIGAND FREE ENERGY PREDICTED BY IDOCK:    0.06 KCAL/MOL
REMARK 927      BINDING AFFINITY PREDICTED BY RF-SCORE:    0.00 PKD
ROOT
HETATM    1  N   UNK     1     -10.691  12.516  67.345  1.00  0.00    -0.225 NA 
HETATM    2  C   UNK     1     -11.794  13.527  67.267  1.00  0.00    -0.385 C  
HETATM    3  H1  UNK     1     -11.007  11.553  67.229  1.00  0.00     0.000 HD 
HETATM    4  H2  UNK     1     -10.168  12.620  68.216  1.00  0.00     0.000 HD 
HETATM    5  C   UNK     1     -12.496  13.359  65.913  1.00  0.00    -0.408 C  
HETATM    6  O   UNK     1     -13.154  14.214  65.345  1.00  0.00    -0.743 OA 
HETATM    7  O   UNK     1     -12.317  12.101  65.427  1.00  0.00    -0.533 OA 
ENDROOT
BRANCH   2   8
HETATM    8  C   UNK     1     -11.317  14.975  67.442  1.00  0.00    -0.332 C  
BRANCH   8   9
HETATM    9  S   UNK     1     -10.270  15.484  66.025  1.00  0.00    -0.356 SA 
BRANCH   9  10
HETATM   10  C   UNK     1      -8.629  15.323  66.821  1.00  0.00    -0.265 C  
HETATM   11  C   UNK     1      -7.743  16.529  66.567  1.00  0.00    -0.288 C  
HETATM   12  O   UNK     1      -6.618  16.636  67.039  1.00  0.00    -0.171 OA 
HETATM   13  O   UNK     1      -8.279  17.486  65.777  1.00  0.00    -0.545 OA 
ENDBRANCH   9  10
ENDBRANCH   8   9
ENDBRANCH   2   8
TORSDOF 3
ENDMDL
MODEL       94
REMARK 921   NORMALIZED FREE ENERGY PREDICTED BY IDOCK:   -3.18 KCAL/MOL
REMARK 922        TOTAL FREE ENERGY PREDICTED BY IDOCK:   -4.16 KCAL/MOL
REMARK 923 INTER-LIGAND FREE ENERGY PREDICTED BY IDOCK:   -3.97 KCAL/MOL
REMARK 924 INTRA-LIGAND FREE ENERGY PREDICTED BY IDOCK:   -0.19 KCAL/MOL
REMARK 927      BINDING AFFINITY PREDICTED BY RF-SCORE:    0.00 PKD
ROOT
HETATM    1  N   UNK     1     -10.176  19.198  68.829  1.00  0.00    -0.510 NA 
HETATM    2  C   UNK     1     -10.482  19.131  67.364  1.00  0.00    -0.458 C  
HETATM    3  H1  UNK     1     -10.787  18.617  69.402  1.00  0.00     0.000 HD 
HETATM    4  H2  UNK     1     -10.188  20.164  69.156  1.00  0.00     0.000 HD 
HETATM    5  C   UNK     1     -10.386  17.665  66.924  1.00  0.00    -0.329 C  
HETATM    6  O   UNK     1     -10.190  17.278  65.785  1.00  0.00    -0.533 OA 
HETATM    7  O   UNK     1     -10.581  16.829  67.979  1.00  0.00    -0.321 OA 
ENDROOT
BRANCH   2   8
HETATM    8  C   UNK     1      -9.563  20.006  66.500  1.00  0.00    -0.420 C  
BRANCH   8   9
HETATM    9  S   UNK     1      -7.873  20.061  67.211  1.00  0.00    -0.310 SA 
BRANCH   9  10
HETATM   10  C   UNK     1      -7.065  18.852  66.098  1.00  0.00    -0.256 C  
HETATM   11  C   UNK     1      -6.320  19.524  64.959  1.00  0.00    -0.274 C  
HETATM   12  O   UNK     1      -5.683  18.897  64.121  1.00  0.00    -0.291 OA 
HETATM   13  O   UNK     1      -6.407  20.873  64.925  1.00  0.00    -0.270 OA 
ENDBRANCH   9  10
ENDBRANCH   8   9
ENDBRANCH   2   8
TORSDOF 3
ENDMDL
MODEL       95
REMARK 921   NORMALIZED FREE ENERGY PREDICTED BY IDOCK:   -3.17 KCAL/MOL
REMARK 922        TOTAL FREE ENERGY PREDICTED BY IDOCK:   -4.16 KCAL/MOL
REMARK 923 INTER-LIGAND FREE ENERGY PREDICTED BY IDOCK:   -3.95 KCAL/MOL
REMARK 924 INTRA-LIGAND FREE ENERGY PREDICTED BY IDOCK:   -0.21 KCAL/MOL
REMARK 927      BINDING AFFINITY PREDICTED BY RF-SCORE:    0.00 PKD
ROOT
HETATM    1  N   UNK     1      -9.891  17.313  65.857  1.00  0.00    -0.534 NA 
HETATM    2  C   UNK     1     -10.292  17.838  67.202  1.00  0.00    -0.353 C  
HETATM    3  H1  UNK     1     -10.586  17.479  65.129  1.00  0.00     0.000 HD 
HETATM    4  H2  UNK     1      -9.658  16.321  65.912  1.00  0.00     0.000 HD 
HETATM    5  C   UNK     1     -10.567  19.340  67.063  1.00  0.00    -0.470 C  
HETATM    6  O   UNK     1     -10.536  20.154  67.972  1.00  0.00    -0.360 OA 
HETATM    7  O   UNK     1     -10.889  19.657  65.781  1.00  0.00    -0.468 OA 
ENDROOT
BRANCH   2   8
HETATM    8  C   UNK     1      -9.247  17.588  68.298  1.00  0.00    -0.277 C  
BRANCH   8   9
HETATM    9  S   UNK     1      -7.556  17.887  67.655  1.00  0.00    -0.214 SA 
BRANCH   9  10
HETATM   10  C   UNK     1      -6.739  18.354  69.226  1.00  0.00    -0.233 C  
HETATM   11  C   UNK     1      -6.576  19.856  69.368  1.00  0.00    -0.340 C  
HETATM   12  O   UNK     1      -6.084  20.379  70.359  1.00  0.00    -0.436 OA 
HETATM   13  O   UNK     1      -7.009  20.588  68.317  1.00  0.00    -0.265 OA 
ENDBRANCH   9  10
ENDBRANCH   8   9
ENDBRANCH   2   8
TORSDOF 3
ENDMDL
MODEL       96
REMARK 921   NORMALIZED FREE ENERGY PREDICTED BY IDOCK:   -3.17 KCAL/MOL
REMARK 922        TOTAL FREE ENERGY PREDICTED BY IDOCK:   -4.16 KCAL/MOL
REMARK 923 INTER-LIGAND FREE ENERGY PREDICTED BY IDOCK:   -3.99 KCAL/MOL
REMARK 924 INTRA-LIGAND FREE ENERGY PREDICTED BY IDOCK:   -0.17 KCAL/MOL
REMARK 927      BINDING AFFINITY PREDICTED BY RF-SCORE:    0.00 PKD
ROOT
HETATM    1  N   UNK     1     -11.761   6.576  69.672  1.00  0.00    -0.643 NA 
HETATM    2  C   UNK     1     -11.757   7.327  70.969  1.00  0.00    -0.307 C  
HETATM    3  H1  UNK     1     -10.834   6.458  69.263  1.00  0.00     0.000 HD 
HETATM    4  H2  UNK     1     -12.395   7.015  69.004  1.00  0.00     0.000 HD 
HETATM    5  C   UNK     1     -10.837   6.582  71.945  1.00  0.00    -0.237 C  
HETATM    6  O   UNK     1     -10.883   6.661  73.162  1.00  0.00    -0.264 OA 
HETATM    7  O   UNK     1      -9.923   5.832  71.274  1.00  0.00    -0.180 OA 
ENDROOT
BRANCH   2   8
HETATM    8  C   UNK     1     -13.152   7.505  71.584  1.00  0.00    -0.358 C  
BRANCH   8   9
HETATM    9  S   UNK     1     -13.320   9.174  72.325  1.00  0.00    -0.480 SA 
BRANCH   9  10
HETATM   10  C   UNK     1     -12.546  10.152  70.985  1.00  0.00    -0.381 C  
HETATM   11  C   UNK     1     -12.707  11.647  71.194  1.00  0.00    -0.325 C  
HETATM   12  O   UNK     1     -12.233  12.478  70.430  1.00  0.00    -0.348 OA 
HETATM   13  O   UNK     1     -13.417  12.006  72.287  1.00  0.00    -0.465 OA 
ENDBRANCH   9  10
ENDBRANCH   8   9
ENDBRANCH   2   8
TORSDOF 3
ENDMDL
MODEL       97
REMARK 921   NORMALIZED FREE ENERGY PREDICTED BY IDOCK:   -3.17 KCAL/MOL
REMARK 922        TOTAL FREE ENERGY PREDICTED BY IDOCK:   -4.16 KCAL/MOL
REMARK 923 INTER-LIGAND FREE ENERGY PREDICTED BY IDOCK:   -4.07 KCAL/MOL
REMARK 924 INTRA-LIGAND FREE ENERGY PREDICTED BY IDOCK:   -0.09 KCAL/MOL
REMARK 927      BINDING AFFINITY PREDICTED BY RF-SCORE:    0.00 PKD
ROOT
HETATM    1  N   UNK     1     -10.050  13.326  63.933  1.00  0.00    -0.731 NA 
HETATM    2  C   UNK     1     -10.957  12.166  63.653  1.00  0.00    -0.461 C  
HETATM    3  H1  UNK     1     -10.157  14.098  63.275  1.00  0.00     0.000 HD 
HETATM    4  H2  UNK     1      -9.077  13.020  63.973  1.00  0.00     0.000 HD 
HETATM    5  C   UNK     1     -12.402  12.679  63.668  1.00  0.00    -0.492 C  
HETATM    6  O   UNK     1     -13.395  11.998  63.863  1.00  0.00    -0.669 OA 
HETATM    7  O   UNK     1     -12.446  14.012  63.400  1.00  0.00    -0.826 OA 
ENDROOT
BRANCH   2   8
HETATM    8  C   UNK     1     -10.795  11.003  64.642  1.00  0.00    -0.178 C  
BRANCH   8   9
HETATM    9  S   UNK     1      -9.191  10.155  64.381  1.00  0.00    -0.279 SA 
BRANCH   9  10
HETATM   10  C   UNK     1      -8.745   9.860  66.132  1.00  0.00    -0.136 C  
HETATM   11  C   UNK     1      -7.263  10.059  66.393  1.00  0.00    -0.103 C  
HETATM   12  O   UNK     1      -6.764   9.944  67.504  1.00  0.00    -0.071 OA 
HETATM   13  O   UNK     1      -6.521  10.373  65.307  1.00  0.00    -0.120 OA 
ENDBRANCH   9  10
ENDBRANCH   8   9
ENDBRANCH   2   8
TORSDOF 3
ENDMDL
MODEL       98
REMARK 921   NORMALIZED FREE ENERGY PREDICTED BY IDOCK:   -3.17 KCAL/MOL
REMARK 922        TOTAL FREE ENERGY PREDICTED BY IDOCK:   -4.16 KCAL/MOL
REMARK 923 INTER-LIGAND FREE ENERGY PREDICTED BY IDOCK:   -4.05 KCAL/MOL
REMARK 924 INTRA-LIGAND FREE ENERGY PREDICTED BY IDOCK:   -0.10 KCAL/MOL
REMARK 927      BINDING AFFINITY PREDICTED BY RF-SCORE:    0.00 PKD
ROOT
HETATM    1  N   UNK     1     -11.938  13.267  70.337  1.00  0.00    -0.501 NA 
HETATM    2  C   UNK     1     -11.515  12.190  69.385  1.00  0.00    -0.290 C  
HETATM    3  H1  UNK     1     -11.534  14.180  70.129  1.00  0.00     0.000 HD 
HETATM    4  H2  UNK     1     -11.738  12.996  71.300  1.00  0.00     0.000 HD 
HETATM    5  C   UNK     1     -11.900  12.632  67.967  1.00  0.00    -0.323 C  
HETATM    6  O   UNK     1     -12.068  11.889  67.014  1.00  0.00    -0.600 OA 
HETATM    7  O   UNK     1     -12.003  13.986  67.892  1.00  0.00    -0.360 OA 
ENDROOT
BRANCH   2   8
HETATM    8  C   UNK     1     -12.124  10.816  69.697  1.00  0.00    -0.289 C  
BRANCH   8   9
HETATM    9  S   UNK     1     -12.782  10.778  71.408  1.00  0.00    -0.443 SA 
BRANCH   9  10
HETATM   10  C   UNK     1     -13.360   9.041  71.445  1.00  0.00    -0.277 C  
HETATM   11  C   UNK     1     -12.283   8.084  71.925  1.00  0.00    -0.319 C  
HETATM   12  O   UNK     1     -12.475   6.882  72.055  1.00  0.00    -0.312 OA 
HETATM   13  O   UNK     1     -11.086   8.650  72.201  1.00  0.00    -0.340 OA 
ENDBRANCH   9  10
ENDBRANCH   8   9
ENDBRANCH   2   8
TORSDOF 3
ENDMDL
MODEL       99
REMARK 921   NORMALIZED FREE ENERGY PREDICTED BY IDOCK:   -3.14 KCAL/MOL
REMARK 922        TOTAL FREE ENERGY PREDICTED BY IDOCK:   -4.12 KCAL/MOL
REMARK 923 INTER-LIGAND FREE ENERGY PREDICTED BY IDOCK:   -3.97 KCAL/MOL
REMARK 924 INTRA-LIGAND FREE ENERGY PREDICTED BY IDOCK:   -0.14 KCAL/MOL
REMARK 927      BINDING AFFINITY PREDICTED BY RF-SCORE:    0.00 PKD
ROOT
HETATM    1  N   UNK     1     -13.974   8.974  73.083  1.00  0.00    -1.215 NA 
HETATM    2  C   UNK     1     -12.756   8.819  72.224  1.00  0.00    -0.402 C  
HETATM    3  H1  UNK     1     -13.941   9.786  73.698  1.00  0.00     0.000 HD 
HETATM    4  H2  UNK     1     -14.147   8.123  73.619  1.00  0.00     0.000 HD 
HETATM    5  C   UNK     1     -12.589  10.102  71.400  1.00  0.00    -0.422 C  
HETATM    6  O   UNK     1     -11.973  10.197  70.352  1.00  0.00    -0.268 OA 
HETATM    7  O   UNK     1     -13.199  11.153  72.012  1.00  0.00    -0.493 OA 
ENDROOT
BRANCH   2   8
HETATM    8  C   UNK     1     -12.805   7.596  71.298  1.00  0.00    -0.260 C  
BRANCH   8   9
HETATM    9  S   UNK     1     -11.132   6.872  71.098  1.00  0.00    -0.272 SA 
BRANCH   9  10
HETATM   10  C   UNK     1     -10.770   6.519  72.858  1.00  0.00    -0.251 C  
HETATM   11  C   UNK     1     -10.732   5.031  73.153  1.00  0.00    -0.257 C  
HETATM   12  O   UNK     1     -10.473   4.581  74.262  1.00  0.00    -0.229 OA 
HETATM   13  O   UNK     1     -11.008   4.225  72.103  1.00  0.00     0.096 OA 
ENDBRANCH   9  10
ENDBRANCH   8   9
ENDBRANCH   2   8
TORSDOF 3
ENDMDL
MODEL      100
REMARK 921   NORMALIZED FREE ENERGY PREDICTED BY IDOCK:   -3.12 KCAL/MOL
REMARK 922        TOTAL FREE ENERGY PREDICTED BY IDOCK:   -4.10 KCAL/MOL
REMARK 923 INTER-LIGAND FREE ENERGY PREDICTED BY IDOCK:   -3.90 KCAL/MOL
REMARK 924 INTRA-LIGAND FREE ENERGY PREDICTED BY IDOCK:   -0.19 KCAL/MOL
REMARK 927      BINDING AFFINITY PREDICTED BY RF-SCORE:    0.00 PKD
ROOT
HETATM    1  N   UNK     1     -10.079  13.530  69.319  1.00  0.00    -0.361 NA 
HETATM    2  C   UNK     1     -10.557  12.811  68.094  1.00  0.00    -0.229 C  
HETATM    3  H1  UNK     1     -10.832  13.916  69.888  1.00  0.00     0.000 HD 
HETATM    4  H2  UNK     1      -9.408  14.257  69.071  1.00  0.00     0.000 HD 
HETATM    5  C   UNK     1     -11.510  11.695  68.540  1.00  0.00    -0.298 C  
HETATM    6  O   UNK     1     -11.780  10.694  67.897  1.00  0.00    -0.506 OA 
HETATM    7  O   UNK     1     -12.055  11.979  69.753  1.00  0.00    -0.294 OA 
ENDROOT
BRANCH   2   8
HETATM    8  C   UNK     1      -9.423  12.231  67.237  1.00  0.00    -0.186 C  
BRANCH   8   9
HETATM    9  S   UNK     1      -9.836  12.351  65.455  1.00  0.00    -0.124 SA 
BRANCH   9  10
HETATM   10  C   UNK     1     -11.000  13.762  65.534  1.00  0.00    -0.299 C  
HETATM   11  C   UNK     1     -12.439  13.338  65.306  1.00  0.00    -0.489 C  
HETATM   12  O   UNK     1     -13.377  14.123  65.351  1.00  0.00    -0.705 OA 
HETATM   13  O   UNK     1     -12.621  12.024  65.043  1.00  0.00    -0.415 OA 
ENDBRANCH   9  10
ENDBRANCH   8   9
ENDBRANCH   2   8
TORSDOF 3
ENDMDL
MODEL      101
REMARK 921   NORMALIZED FREE ENERGY PREDICTED BY IDOCK:   -3.11 KCAL/MOL
REMARK 922        TOTAL FREE ENERGY PREDICTED BY IDOCK:   -4.09 KCAL/MOL
REMARK 923 INTER-LIGAND FREE ENERGY PREDICTED BY IDOCK:   -3.66 KCAL/MOL
REMARK 924 INTRA-LIGAND FREE ENERGY PREDICTED BY IDOCK:   -0.43 KCAL/MOL
REMARK 927      BINDING AFFINITY PREDICTED BY RF-SCORE:    0.00 PKD
ROOT
HETATM    1  N   UNK     1      -9.791  13.980  65.295  1.00  0.00    -0.579 NA 
HETATM    2  C   UNK     1     -10.874  14.924  65.718  1.00  0.00    -0.339 C  
HETATM    3  H1  UNK     1      -9.156  14.369  64.599  1.00  0.00     0.000 HD 
HETATM    4  H2  UNK     1     -10.188  13.099  64.966  1.00  0.00     0.000 HD 
HETATM    5  C   UNK     1     -10.211  16.197  66.259  1.00  0.00    -0.320 C  
HETATM    6  O   UNK     1     -10.726  16.995  67.023  1.00  0.00    -0.265 OA 
HETATM    7  O   UNK     1      -8.961  16.347  65.745  1.00  0.00    -0.455 OA 
ENDROOT
BRANCH   2   8
HETATM    8  C   UNK     1     -11.830  14.337  66.766  1.00  0.00    -0.426 C  
BRANCH   8   9
HETATM    9  S   UNK     1     -10.891  13.688  68.201  1.00  0.00    -0.254 SA 
BRANCH   9  10
HETATM   10  C   UNK     1     -11.629  12.014  68.281  1.00  0.00    -0.334 C  
HETATM   11  C   UNK     1     -10.799  10.981  67.541  1.00  0.00    -0.263 C  
HETATM   12  O   UNK     1     -11.099   9.794  67.501  1.00  0.00    -0.234 OA 
HETATM   13  O   UNK     1      -9.697  11.459  66.920  1.00  0.00    -0.189 OA 
ENDBRANCH   9  10
ENDBRANCH   8   9
ENDBRANCH   2   8
TORSDOF 3
ENDMDL
MODEL      102
REMARK 921   NORMALIZED FREE ENERGY PREDICTED BY IDOCK:   -3.11 KCAL/MOL
REMARK 922        TOTAL FREE ENERGY PREDICTED BY IDOCK:   -4.08 KCAL/MOL
REMARK 923 INTER-LIGAND FREE ENERGY PREDICTED BY IDOCK:   -3.98 KCAL/MOL
REMARK 924 INTRA-LIGAND FREE ENERGY PREDICTED BY IDOCK:   -0.10 KCAL/MOL
REMARK 927      BINDING AFFINITY PREDICTED BY RF-SCORE:    0.00 PKD
ROOT
HETATM    1  N   UNK     1     -10.791  13.677  65.676  1.00  0.00    -0.275 NA 
HETATM    2  C   UNK     1     -11.127  14.788  66.625  1.00  0.00    -0.333 C  
HETATM    3  H1  UNK     1     -11.187  13.801  64.744  1.00  0.00     0.000 HD 
HETATM    4  H2  UNK     1     -11.065  12.775  66.066  1.00  0.00     0.000 HD 
HETATM    5  C   UNK     1     -10.635  16.104  66.009  1.00  0.00    -0.295 C  
HETATM    6  O   UNK     1     -10.384  17.125  66.626  1.00  0.00    -0.320 OA 
HETATM    7  O   UNK     1     -10.540  16.000  64.656  1.00  0.00    -0.564 OA 
ENDROOT
BRANCH   2   8
HETATM    8  C   UNK     1     -10.531  14.602  68.027  1.00  0.00    -0.236 C  
BRANCH   8   9
HETATM    9  S   UNK     1     -11.827  14.073  69.212  1.00  0.00    -0.361 SA 
BRANCH   9  10
HETATM   10  C   UNK     1     -11.340  15.111  70.639  1.00  0.00    -0.293 C  
HETATM   11  C   UNK     1     -12.538  15.634  71.409  1.00  0.00    -0.457 C  
HETATM   12  O   UNK     1     -12.431  16.320  72.418  1.00  0.00    -0.446 OA 
HETATM   13  O   UNK     1     -13.745  15.294  70.904  1.00  0.00    -0.405 OA 
ENDBRANCH   9  10
ENDBRANCH   8   9
ENDBRANCH   2   8
TORSDOF 3
ENDMDL
MODEL      103
REMARK 921   NORMALIZED FREE ENERGY PREDICTED BY IDOCK:   -3.10 KCAL/MOL
REMARK 922        TOTAL FREE ENERGY PREDICTED BY IDOCK:   -4.07 KCAL/MOL
REMARK 923 INTER-LIGAND FREE ENERGY PREDICTED BY IDOCK:   -3.74 KCAL/MOL
REMARK 924 INTRA-LIGAND FREE ENERGY PREDICTED BY IDOCK:   -0.33 KCAL/MOL
REMARK 927      BINDING AFFINITY PREDICTED BY RF-SCORE:    0.00 PKD
ROOT
HETATM    1  N   UNK     1      -9.373  14.253  69.281  1.00  0.00    -0.391 NA 
HETATM    2  C   UNK     1     -10.154  14.830  68.140  1.00  0.00    -0.221 C  
HETATM    3  H1  UNK     1      -8.424  14.619  69.355  1.00  0.00     0.000 HD 
HETATM    4  H2  UNK     1      -9.362  13.234  69.231  1.00  0.00     0.000 HD 
HETATM    5  C   UNK     1     -10.184  16.355  68.308  1.00  0.00    -0.255 C  
HETATM    6  O   UNK     1     -11.014  17.105  67.822  1.00  0.00    -0.315 OA 
HETATM    7  O   UNK     1      -9.131  16.781  69.056  1.00  0.00    -0.256 OA 
ENDROOT
BRANCH   2   8
HETATM    8  C   UNK     1     -11.582  14.279  68.029  1.00  0.00    -0.332 C  
BRANCH   8   9
HETATM    9  S   UNK     1     -11.845  13.495  66.392  1.00  0.00    -0.414 SA 
BRANCH   9  10
HETATM   10  C   UNK     1     -12.474  14.954  65.483  1.00  0.00     0.136 C  
HETATM   11  C   UNK     1     -11.424  15.565  64.573  1.00  0.00    -0.308 C  
HETATM   12  O   UNK     1     -11.650  16.528  63.852  1.00  0.00    -1.175 OA 
HETATM   13  O   UNK     1     -10.208  14.974  64.612  1.00  0.00    -0.208 OA 
ENDBRANCH   9  10
ENDBRANCH   8   9
ENDBRANCH   2   8
TORSDOF 3
ENDMDL
MODEL      104
REMARK 921   NORMALIZED FREE ENERGY PREDICTED BY IDOCK:   -3.09 KCAL/MOL
REMARK 922        TOTAL FREE ENERGY PREDICTED BY IDOCK:   -4.06 KCAL/MOL
REMARK 923 INTER-LIGAND FREE ENERGY PREDICTED BY IDOCK:   -3.96 KCAL/MOL
REMARK 924 INTRA-LIGAND FREE ENERGY PREDICTED BY IDOCK:   -0.11 KCAL/MOL
REMARK 927      BINDING AFFINITY PREDICTED BY RF-SCORE:    0.00 PKD
ROOT
HETATM    1  N   UNK     1     -10.135   9.091  69.330  1.00  0.00    -0.192 NA 
HETATM    2  C   UNK     1     -10.740  10.462  69.363  1.00  0.00    -0.244 C  
HETATM    3  H1  UNK     1      -9.624   8.848  70.179  1.00  0.00     0.000 HD 
HETATM    4  H2  UNK     1      -9.542   8.979  68.508  1.00  0.00     0.000 HD 
HETATM    5  C   UNK     1     -11.666  10.544  70.583  1.00  0.00    -0.357 C  
HETATM    6  O   UNK     1     -12.592  11.325  70.718  1.00  0.00    -0.344 OA 
HETATM    7  O   UNK     1     -11.301   9.639  71.530  1.00  0.00    -0.381 OA 
ENDROOT
BRANCH   2   8
HETATM    8  C   UNK     1     -11.509  10.828  68.086  1.00  0.00    -0.271 C  
BRANCH   8   9
HETATM    9  S   UNK     1     -10.419  11.719  66.911  1.00  0.00    -0.231 SA 
BRANCH   9  10
HETATM   10  C   UNK     1     -11.664  12.124  65.631  1.00  0.00    -0.323 C  
HETATM   11  C   UNK     1     -12.330  13.465  65.877  1.00  0.00    -0.437 C  
HETATM   12  O   UNK     1     -13.168  13.938  65.120  1.00  0.00    -0.768 OA 
HETATM   13  O   UNK     1     -11.939  14.110  66.999  1.00  0.00    -0.408 OA 
ENDBRANCH   9  10
ENDBRANCH   8   9
ENDBRANCH   2   8
TORSDOF 3
ENDMDL
MODEL      105
REMARK 921   NORMALIZED FREE ENERGY PREDICTED BY IDOCK:   -3.06 KCAL/MOL
REMARK 922        TOTAL FREE ENERGY PREDICTED BY IDOCK:   -4.03 KCAL/MOL
REMARK 923 INTER-LIGAND FREE ENERGY PREDICTED BY IDOCK:   -3.41 KCAL/MOL
REMARK 924 INTRA-LIGAND FREE ENERGY PREDICTED BY IDOCK:   -0.63 KCAL/MOL
REMARK 927      BINDING AFFINITY PREDICTED BY RF-SCORE:    0.00 PKD
ROOT
HETATM    1  N   UNK     1     -11.248   6.808  73.125  1.00  0.00    -0.496 NA 
HETATM    2  C   UNK     1     -12.115   6.539  71.933  1.00  0.00    -0.339 C  
HETATM    3  H1  UNK     1     -10.689   6.006  73.415  1.00  0.00     0.000 HD 
HETATM    4  H2  UNK     1     -11.805   7.159  73.904  1.00  0.00     0.000 HD 
HETATM    5  C   UNK     1     -11.211   6.078  70.783  1.00  0.00    -0.269 C  
HETATM    6  O   UNK     1     -11.486   6.141  69.596  1.00  0.00    -0.429 OA 
HETATM    7  O   UNK     1     -10.053   5.549  71.259  1.00  0.00    -0.190 OA 
ENDROOT
BRANCH   2   8
HETATM    8  C   UNK     1     -12.956   7.747  71.497  1.00  0.00    -0.325 C  
BRANCH   8   9
HETATM    9  S   UNK     1     -12.190   9.309  72.077  1.00  0.00    -0.317 SA 
BRANCH   9  10
HETATM   10  C   UNK     1     -11.314   9.777  70.539  1.00  0.00    -0.314 C  
HETATM   11  C   UNK     1      -9.830   9.465  70.602  1.00  0.00    -0.276 C  
HETATM   12  O   UNK     1      -9.069   9.670  69.665  1.00  0.00    -0.179 OA 
HETATM   13  O   UNK     1      -9.396   8.945  71.773  1.00  0.00    -0.272 OA 
ENDBRANCH   9  10
ENDBRANCH   8   9
ENDBRANCH   2   8
TORSDOF 3
ENDMDL
MODEL      106
REMARK 921   NORMALIZED FREE ENERGY PREDICTED BY IDOCK:   -3.05 KCAL/MOL
REMARK 922        TOTAL FREE ENERGY PREDICTED BY IDOCK:   -4.01 KCAL/MOL
REMARK 923 INTER-LIGAND FREE ENERGY PREDICTED BY IDOCK:   -3.82 KCAL/MOL
REMARK 924 INTRA-LIGAND FREE ENERGY PREDICTED BY IDOCK:   -0.19 KCAL/MOL
REMARK 927      BINDING AFFINITY PREDICTED BY RF-SCORE:    0.00 PKD
ROOT
HETATM    1  N   UNK     1     -11.349   6.703  72.891  1.00  0.00    -0.458 NA 
HETATM    2  C   UNK     1     -12.199   6.813  71.661  1.00  0.00    -0.365 C  
HETATM    3  H1  UNK     1     -11.050   5.751  73.099  1.00  0.00     0.000 HD 
HETATM    4  H2  UNK     1     -11.824   7.114  73.694  1.00  0.00     0.000 HD 
HETATM    5  C   UNK     1     -11.405   6.236  70.482  1.00  0.00    -0.361 C  
HETATM    6  O   UNK     1     -11.594   6.496  69.306  1.00  0.00    -0.309 OA 
HETATM    7  O   UNK     1     -10.462   5.357  70.916  1.00  0.00    -0.239 OA 
ENDROOT
BRANCH   2   8
HETATM    8  C   UNK     1     -12.650   8.246  71.348  1.00  0.00    -0.275 C  
BRANCH   8   9
HETATM    9  S   UNK     1     -11.209   9.380  71.308  1.00  0.00    -0.390 SA 
BRANCH   9  10
HETATM   10  C   UNK     1     -11.967  10.758  70.370  1.00  0.00    -0.357 C  
HETATM   11  C   UNK     1     -11.622  10.709  68.892  1.00  0.00    -0.249 C  
HETATM   12  O   UNK     1     -12.055  11.519  68.083  1.00  0.00    -0.604 OA 
HETATM   13  O   UNK     1     -10.796   9.705  68.523  1.00  0.00    -0.215 OA 
ENDBRANCH   9  10
ENDBRANCH   8   9
ENDBRANCH   2   8
TORSDOF 3
ENDMDL
MODEL      107
REMARK 921   NORMALIZED FREE ENERGY PREDICTED BY IDOCK:   -3.04 KCAL/MOL
REMARK 922        TOTAL FREE ENERGY PREDICTED BY IDOCK:   -4.00 KCAL/MOL
REMARK 923 INTER-LIGAND FREE ENERGY PREDICTED BY IDOCK:   -3.87 KCAL/MOL
REMARK 924 INTRA-LIGAND FREE ENERGY PREDICTED BY IDOCK:   -0.13 KCAL/MOL
REMARK 927      BINDING AFFINITY PREDICTED BY RF-SCORE:    0.00 PKD
ROOT
HETATM    1  N   UNK     1     -10.216  19.275  69.129  1.00  0.00    -0.570 NA 
HETATM    2  C   UNK     1      -9.610  18.220  68.254  1.00  0.00    -0.318 C  
HETATM    3  H1  UNK     1      -9.529  19.878  69.580  1.00  0.00     0.000 HD 
HETATM    4  H2  UNK     1     -10.835  18.854  69.822  1.00  0.00     0.000 HD 
HETATM    5  C   UNK     1      -8.744  18.920  67.198  1.00  0.00    -0.284 C  
HETATM    6  O   UNK     1      -8.421  18.449  66.121  1.00  0.00    -0.445 OA 
HETATM    7  O   UNK     1      -8.344  20.145  67.633  1.00  0.00    -0.315 OA 
ENDROOT
BRANCH   2   8
HETATM    8  C   UNK     1     -10.644  17.312  67.575  1.00  0.00    -0.329 C  
BRANCH   8   9
HETATM    9  S   UNK     1     -10.481  15.588  68.179  1.00  0.00    -0.266 SA 
BRANCH   9  10
HETATM   10  C   UNK     1     -11.642  15.678  69.592  1.00  0.00    -0.356 C  
HETATM   11  C   UNK     1     -12.221  14.322  69.951  1.00  0.00    -0.352 C  
HETATM   12  O   UNK     1     -12.992  14.157  70.888  1.00  0.00    -0.336 OA 
HETATM   13  O   UNK     1     -11.829  13.297  69.161  1.00  0.00    -0.301 OA 
ENDBRANCH   9  10
ENDBRANCH   8   9
ENDBRANCH   2   8
TORSDOF 3
ENDMDL
MODEL      108
REMARK 921   NORMALIZED FREE ENERGY PREDICTED BY IDOCK:   -3.04 KCAL/MOL
REMARK 922        TOTAL FREE ENERGY PREDICTED BY IDOCK:   -4.00 KCAL/MOL
REMARK 923 INTER-LIGAND FREE ENERGY PREDICTED BY IDOCK:   -3.89 KCAL/MOL
REMARK 924 INTRA-LIGAND FREE ENERGY PREDICTED BY IDOCK:   -0.11 KCAL/MOL
REMARK 927      BINDING AFFINITY PREDICTED BY RF-SCORE:    0.00 PKD
ROOT
HETATM    1  N   UNK     1      -8.150  12.145  66.666  1.00  0.00    -0.384 NA 
HETATM    2  C   UNK     1      -9.068  10.975  66.488  1.00  0.00    -0.173 C  
HETATM    3  H1  UNK     1      -7.162  11.891  66.694  1.00  0.00     0.000 HD 
HETATM    4  H2  UNK     1      -8.407  12.682  67.495  1.00  0.00     0.000 HD 
HETATM    5  C   UNK     1      -8.669  10.250  65.196  1.00  0.00    -0.175 C  
HETATM    6  O   UNK     1      -9.394   9.521  64.539  1.00  0.00    -0.232 OA 
HETATM    7  O   UNK     1      -7.370  10.501  64.881  1.00  0.00    -0.095 OA 
ENDROOT
BRANCH   2   8
HETATM    8  C   UNK     1     -10.554  11.357  66.446  1.00  0.00    -0.263 C  
BRANCH   8   9
HETATM    9  S   UNK     1     -10.752  13.179  66.497  1.00  0.00    -0.282 SA 
BRANCH   9  10
HETATM   10  C   UNK     1     -10.850  13.499  64.697  1.00  0.00    -0.405 C  
HETATM   11  C   UNK     1     -12.252  13.298  64.151  1.00  0.00    -0.401 C  
HETATM   12  O   UNK     1     -12.540  13.493  62.977  1.00  0.00    -0.716 OA 
HETATM   13  O   UNK     1     -13.171  12.883  65.051  1.00  0.00    -0.765 OA 
ENDBRANCH   9  10
ENDBRANCH   8   9
ENDBRANCH   2   8
TORSDOF 3
ENDMDL
MODEL      109
REMARK 921   NORMALIZED FREE ENERGY PREDICTED BY IDOCK:   -3.03 KCAL/MOL
REMARK 922        TOTAL FREE ENERGY PREDICTED BY IDOCK:   -3.99 KCAL/MOL
REMARK 923 INTER-LIGAND FREE ENERGY PREDICTED BY IDOCK:   -3.78 KCAL/MOL
REMARK 924 INTRA-LIGAND FREE ENERGY PREDICTED BY IDOCK:   -0.21 KCAL/MOL
REMARK 927      BINDING AFFINITY PREDICTED BY RF-SCORE:    0.00 PKD
ROOT
HETATM    1  N   UNK     1      -8.988  11.940  66.587  1.00  0.00    -0.195 NA 
HETATM    2  C   UNK     1     -10.110  11.070  66.108  1.00  0.00    -0.237 C  
HETATM    3  H1  UNK     1      -9.095  12.253  67.552  1.00  0.00     0.000 HD 
HETATM    4  H2  UNK     1      -8.859  12.738  65.964  1.00  0.00     0.000 HD 
HETATM    5  C   UNK     1     -10.210   9.863  67.048  1.00  0.00    -0.233 C  
HETATM    6  O   UNK     1     -10.716   8.789  66.771  1.00  0.00    -0.206 OA 
HETATM    7  O   UNK     1      -9.680  10.153  68.267  1.00  0.00    -0.139 OA 
ENDROOT
BRANCH   2   8
HETATM    8  C   UNK     1      -9.950  10.601  64.655  1.00  0.00    -0.337 C  
BRANCH   8   9
HETATM    9  S   UNK     1     -10.462  11.922  63.491  1.00  0.00    -0.464 SA 
BRANCH   9  10
HETATM   10  C   UNK     1     -12.107  12.296  64.203  1.00  0.00    -0.436 C  
HETATM   11  C   UNK     1     -12.207  13.724  64.709  1.00  0.00    -0.406 C  
HETATM   12  O   UNK     1     -13.233  14.186  65.191  1.00  0.00    -0.743 OA 
HETATM   13  O   UNK     1     -11.078  14.459  64.596  1.00  0.00    -0.381 OA 
ENDBRANCH   9  10
ENDBRANCH   8   9
ENDBRANCH   2   8
TORSDOF 3
ENDMDL
MODEL      110
REMARK 921   NORMALIZED FREE ENERGY PREDICTED BY IDOCK:   -3.03 KCAL/MOL
REMARK 922        TOTAL FREE ENERGY PREDICTED BY IDOCK:   -3.99 KCAL/MOL
REMARK 923 INTER-LIGAND FREE ENERGY PREDICTED BY IDOCK:   -3.65 KCAL/MOL
REMARK 924 INTRA-LIGAND FREE ENERGY PREDICTED BY IDOCK:   -0.34 KCAL/MOL
REMARK 927      BINDING AFFINITY PREDICTED BY RF-SCORE:    0.00 PKD
ROOT
HETATM    1  N   UNK     1      -9.895   9.933  65.332  1.00  0.00    -0.311 NA 
HETATM    2  C   UNK     1     -10.484  11.177  65.924  1.00  0.00    -0.253 C  
HETATM    3  H1  UNK     1      -9.214   9.473  65.936  1.00  0.00     0.000 HD 
HETATM    4  H2  UNK     1      -9.490  10.127  64.416  1.00  0.00     0.000 HD 
HETATM    5  C   UNK     1     -11.129  10.805  67.265  1.00  0.00    -0.270 C  
HETATM    6  O   UNK     1     -12.008  11.436  67.828  1.00  0.00    -0.637 OA 
HETATM    7  O   UNK     1     -10.567   9.677  67.777  1.00  0.00    -0.237 OA 
ENDROOT
BRANCH   2   8
HETATM    8  C   UNK     1     -11.509  11.868  65.015  1.00  0.00    -0.244 C  
BRANCH   8   9
HETATM    9  S   UNK     1     -11.033  13.614  64.720  1.00  0.00    -0.397 SA 
BRANCH   9  10
HETATM   10  C   UNK     1     -12.024  14.400  66.044  1.00  0.00    -0.367 C  
HETATM   11  C   UNK     1     -11.175  14.815  67.232  1.00  0.00    -0.346 C  
HETATM   12  O   UNK     1     -11.638  15.388  68.210  1.00  0.00    -0.351 OA 
HETATM   13  O   UNK     1      -9.862  14.506  67.141  1.00  0.00    -0.238 OA 
ENDBRANCH   9  10
ENDBRANCH   8   9
ENDBRANCH   2   8
TORSDOF 3
ENDMDL
MODEL      111
REMARK 921   NORMALIZED FREE ENERGY PREDICTED BY IDOCK:   -3.01 KCAL/MOL
REMARK 922        TOTAL FREE ENERGY PREDICTED BY IDOCK:   -3.97 KCAL/MOL
REMARK 923 INTER-LIGAND FREE ENERGY PREDICTED BY IDOCK:   -3.85 KCAL/MOL
REMARK 924 INTRA-LIGAND FREE ENERGY PREDICTED BY IDOCK:   -0.11 KCAL/MOL
REMARK 927      BINDING AFFINITY PREDICTED BY RF-SCORE:    0.00 PKD
ROOT
HETATM    1  N   UNK     1     -11.823  12.586  70.602  1.00  0.00    -0.478 NA 
HETATM    2  C   UNK     1     -11.886  11.771  69.346  1.00  0.00    -0.334 C  
HETATM    3  H1  UNK     1     -12.298  12.154  71.395  1.00  0.00     0.000 HD 
HETATM    4  H2  UNK     1     -12.179  13.528  70.439  1.00  0.00     0.000 HD 
HETATM    5  C   UNK     1     -11.281  10.393  69.642  1.00  0.00    -0.277 C  
HETATM    6  O   UNK     1     -10.818   9.629  68.812  1.00  0.00    -0.219 OA 
HETATM    7  O   UNK     1     -11.354  10.107  70.970  1.00  0.00    -0.347 OA 
ENDROOT
BRANCH   2   8
HETATM    8  C   UNK     1     -11.171  12.420  68.153  1.00  0.00    -0.265 C  
BRANCH   8   9
HETATM    9  S   UNK     1     -11.865  14.083  67.813  1.00  0.00    -0.372 SA 
BRANCH   9  10
HETATM   10  C   UNK     1     -11.023  14.416  66.222  1.00  0.00    -0.318 C  
HETATM   11  C   UNK     1     -11.956  14.276  65.034  1.00  0.00    -0.410 C  
HETATM   12  O   UNK     1     -11.600  14.489  63.882  1.00  0.00    -0.082 OA 
HETATM   13  O   UNK     1     -13.219  13.894  65.331  1.00  0.00    -0.750 OA 
ENDBRANCH   9  10
ENDBRANCH   8   9
ENDBRANCH   2   8
TORSDOF 3
ENDMDL
MODEL      112
REMARK 921   NORMALIZED FREE ENERGY PREDICTED BY IDOCK:   -3.00 KCAL/MOL
REMARK 922        TOTAL FREE ENERGY PREDICTED BY IDOCK:   -3.95 KCAL/MOL
REMARK 923 INTER-LIGAND FREE ENERGY PREDICTED BY IDOCK:   -3.84 KCAL/MOL
REMARK 924 INTRA-LIGAND FREE ENERGY PREDICTED BY IDOCK:   -0.12 KCAL/MOL
REMARK 927      BINDING AFFINITY PREDICTED BY RF-SCORE:    0.00 PKD
ROOT
HETATM    1  N   UNK     1      -8.705  14.350  69.074  1.00  0.00    -0.355 NA 
HETATM    2  C   UNK     1     -10.141  14.162  68.692  1.00  0.00    -0.229 C  
HETATM    3  H1  UNK     1      -8.156  13.491  69.046  1.00  0.00     0.000 HD 
HETATM    4  H2  UNK     1      -8.631  14.794  69.990  1.00  0.00     0.000 HD 
HETATM    5  C   UNK     1     -10.183  13.552  67.285  1.00  0.00    -0.242 C  
HETATM    6  O   UNK     1     -11.124  13.615  66.513  1.00  0.00    -0.299 OA 
HETATM    7  O   UNK     1      -9.027  12.890  67.010  1.00  0.00    -0.213 OA 
ENDROOT
BRANCH   2   8
HETATM    8  C   UNK     1     -10.966  15.456  68.735  1.00  0.00    -0.264 C  
BRANCH   8   9
HETATM    9  S   UNK     1     -11.430  15.866  70.461  1.00  0.00    -0.405 SA 
BRANCH   9  10
HETATM   10  C   UNK     1     -12.441  14.387  70.836  1.00  0.00    -0.354 C  
HETATM   11  C   UNK     1     -13.092  14.464  72.205  1.00  0.00    -0.389 C  
HETATM   12  O   UNK     1     -13.836  13.592  72.636  1.00  0.00    -0.715 OA 
HETATM   13  O   UNK     1     -12.793  15.567  72.928  1.00  0.00    -0.372 OA 
ENDBRANCH   9  10
ENDBRANCH   8   9
ENDBRANCH   2   8
TORSDOF 3
ENDMDL
MODEL      113
REMARK 921   NORMALIZED FREE ENERGY PREDICTED BY IDOCK:   -3.00 KCAL/MOL
REMARK 922        TOTAL FREE ENERGY PREDICTED BY IDOCK:   -3.95 KCAL/MOL
REMARK 923 INTER-LIGAND FREE ENERGY PREDICTED BY IDOCK:   -3.79 KCAL/MOL
REMARK 924 INTRA-LIGAND FREE ENERGY PREDICTED BY IDOCK:   -0.16 KCAL/MOL
REMARK 927      BINDING AFFINITY PREDICTED BY RF-SCORE:    0.00 PKD
ROOT
HETATM    1  N   UNK     1      -8.892  11.736  65.554  1.00  0.00    -0.401 NA 
HETATM    2  C   UNK     1     -10.121  12.439  66.044  1.00  0.00    -0.251 C  
HETATM    3  H1  UNK     1      -8.254  11.458  66.299  1.00  0.00     0.000 HD 
HETATM    4  H2  UNK     1      -8.408  12.301  64.857  1.00  0.00     0.000 HD 
HETATM    5  C   UNK     1     -10.835  11.512  67.037  1.00  0.00    -0.273 C  
HETATM    6  O   UNK     1     -12.016  11.566  67.333  1.00  0.00    -0.623 OA 
HETATM    7  O   UNK     1      -9.962  10.623  67.583  1.00  0.00    -0.164 OA 
ENDROOT
BRANCH   2   8
HETATM    8  C   UNK     1     -11.083  12.856  64.922  1.00  0.00    -0.297 C  
BRANCH   8   9
HETATM    9  S   UNK     1     -11.162  14.683  64.789  1.00  0.00    -0.371 SA 
BRANCH   9  10
HETATM   10  C   UNK     1     -11.179  15.091  66.573  1.00  0.00    -0.312 C  
HETATM   11  C   UNK     1     -10.628  16.477  66.854  1.00  0.00    -0.238 C  
HETATM   12  O   UNK     1     -10.583  16.957  67.980  1.00  0.00    -0.339 OA 
HETATM   13  O   UNK     1     -10.183  17.154  65.772  1.00  0.00    -0.520 OA 
ENDBRANCH   9  10
ENDBRANCH   8   9
ENDBRANCH   2   8
TORSDOF 3
ENDMDL
MODEL      114
REMARK 921   NORMALIZED FREE ENERGY PREDICTED BY IDOCK:   -2.99 KCAL/MOL
REMARK 922        TOTAL FREE ENERGY PREDICTED BY IDOCK:   -3.95 KCAL/MOL
REMARK 923 INTER-LIGAND FREE ENERGY PREDICTED BY IDOCK:   -3.37 KCAL/MOL
REMARK 924 INTRA-LIGAND FREE ENERGY PREDICTED BY IDOCK:   -0.58 KCAL/MOL
REMARK 927      BINDING AFFINITY PREDICTED BY RF-SCORE:    0.00 PKD
ROOT
HETATM    1  N   UNK     1     -11.720   9.275  69.824  1.00  0.00    -0.419 NA 
HETATM    2  C   UNK     1     -11.235   9.486  71.226  1.00  0.00    -0.382 C  
HETATM    3  H1  UNK     1     -11.193   9.798  69.125  1.00  0.00     0.000 HD 
HETATM    4  H2  UNK     1     -12.716   9.482  69.753  1.00  0.00     0.000 HD 
HETATM    5  C   UNK     1      -9.752   9.097  71.279  1.00  0.00    -0.281 C  
HETATM    6  O   UNK     1      -9.139   8.773  72.283  1.00  0.00    -0.355 OA 
HETATM    7  O   UNK     1      -9.182   9.191  70.048  1.00  0.00    -0.165 OA 
ENDROOT
BRANCH   2   8
HETATM    8  C   UNK     1     -12.028   8.699  72.279  1.00  0.00    -0.368 C  
BRANCH   8   9
HETATM    9  S   UNK     1     -12.929   7.306  71.497  1.00  0.00    -0.360 SA 
BRANCH   9  10
HETATM   10  C   UNK     1     -11.639   6.016  71.660  1.00  0.00    -0.199 C  
HETATM   11  C   UNK     1     -10.889   5.782  70.361  1.00  0.00    -0.290 C  
HETATM   12  O   UNK     1      -9.965   4.985  70.263  1.00  0.00    -0.214 OA 
HETATM   13  O   UNK     1     -11.313   6.516  69.307  1.00  0.00    -0.335 OA 
ENDBRANCH   9  10
ENDBRANCH   8   9
ENDBRANCH   2   8
TORSDOF 3
ENDMDL
MODEL      115
REMARK 921   NORMALIZED FREE ENERGY PREDICTED BY IDOCK:   -2.99 KCAL/MOL
REMARK 922        TOTAL FREE ENERGY PREDICTED BY IDOCK:   -3.95 KCAL/MOL
REMARK 923 INTER-LIGAND FREE ENERGY PREDICTED BY IDOCK:   -3.83 KCAL/MOL
REMARK 924 INTRA-LIGAND FREE ENERGY PREDICTED BY IDOCK:   -0.12 KCAL/MOL
REMARK 927      BINDING AFFINITY PREDICTED BY RF-SCORE:    0.00 PKD
ROOT
HETATM    1  N   UNK     1     -12.261  10.836  68.599  1.00  0.00    -0.827 NA 
HETATM    2  C   UNK     1     -11.602  11.751  67.612  1.00  0.00    -0.294 C  
HETATM    3  H1  UNK     1     -12.599   9.966  68.190  1.00  0.00     0.000 HD 
HETATM    4  H2  UNK     1     -13.015  11.319  69.089  1.00  0.00     0.000 HD 
HETATM    5  C   UNK     1     -10.444  10.987  66.957  1.00  0.00    -0.240 C  
HETATM    6  O   UNK     1      -9.475  11.495  66.418  1.00  0.00    -0.200 OA 
HETATM    7  O   UNK     1     -10.648   9.644  67.026  1.00  0.00    -0.241 OA 
ENDROOT
BRANCH   2   8
HETATM    8  C   UNK     1     -11.094  13.061  68.228  1.00  0.00    -0.263 C  
BRANCH   8   9
HETATM    9  S   UNK     1     -11.757  14.504  67.310  1.00  0.00    -0.389 SA 
BRANCH   9  10
HETATM   10  C   UNK     1     -11.429  15.802  68.559  1.00  0.00    -0.379 C  
HETATM   11  C   UNK     1     -10.784  17.036  67.953  1.00  0.00    -0.348 C  
HETATM   12  O   UNK     1     -10.513  18.033  68.610  1.00  0.00    -0.339 OA 
HETATM   13  O   UNK     1     -10.523  16.962  66.629  1.00  0.00    -0.307 OA 
ENDBRANCH   9  10
ENDBRANCH   8   9
ENDBRANCH   2   8
TORSDOF 3
ENDMDL
MODEL      116
REMARK 921   NORMALIZED FREE ENERGY PREDICTED BY IDOCK:   -2.99 KCAL/MOL
REMARK 922        TOTAL FREE ENERGY PREDICTED BY IDOCK:   -3.95 KCAL/MOL
REMARK 923 INTER-LIGAND FREE ENERGY PREDICTED BY IDOCK:   -3.84 KCAL/MOL
REMARK 924 INTRA-LIGAND FREE ENERGY PREDICTED BY IDOCK:   -0.11 KCAL/MOL
REMARK 927      BINDING AFFINITY PREDICTED BY RF-SCORE:    0.00 PKD
ROOT
HETATM    1  N   UNK     1     -10.962   7.624  69.161  1.00  0.00    -0.429 NA 
HETATM    2  C   UNK     1     -10.624   8.656  70.193  1.00  0.00    -0.225 C  
HETATM    3  H1  UNK     1     -10.145   7.208  68.715  1.00  0.00     0.000 HD 
HETATM    4  H2  UNK     1     -11.597   8.009  68.461  1.00  0.00     0.000 HD 
HETATM    5  C   UNK     1      -9.722   7.998  71.245  1.00  0.00    -0.163 C  
HETATM    6  O   UNK     1      -9.569   8.387  72.391  1.00  0.00    -0.261 OA 
HETATM    7  O   UNK     1      -9.074   6.922  70.723  1.00  0.00    -0.153 OA 
ENDROOT
BRANCH   2   8
HETATM    8  C   UNK     1     -11.853   9.283  70.865  1.00  0.00    -0.282 C  
BRANCH   8   9
HETATM    9  S   UNK     1     -11.936  11.080  70.507  1.00  0.00    -0.387 SA 
BRANCH   9  10
HETATM   10  C   UNK     1     -13.154  11.562  71.786  1.00  0.00    -0.398 C  
HETATM   11  C   UNK     1     -13.318  13.068  71.890  1.00  0.00    -0.446 C  
HETATM   12  O   UNK     1     -14.108  13.597  72.660  1.00  0.00    -0.746 OA 
HETATM   13  O   UNK     1     -12.525  13.794  71.070  1.00  0.00    -0.349 OA 
ENDBRANCH   9  10
ENDBRANCH   8   9
ENDBRANCH   2   8
TORSDOF 3
ENDMDL
MODEL      117
REMARK 921   NORMALIZED FREE ENERGY PREDICTED BY IDOCK:   -2.99 KCAL/MOL
REMARK 922        TOTAL FREE ENERGY PREDICTED BY IDOCK:   -3.94 KCAL/MOL
REMARK 923 INTER-LIGAND FREE ENERGY PREDICTED BY IDOCK:   -3.35 KCAL/MOL
REMARK 924 INTRA-LIGAND FREE ENERGY PREDICTED BY IDOCK:   -0.59 KCAL/MOL
REMARK 927      BINDING AFFINITY PREDICTED BY RF-SCORE:    0.00 PKD
ROOT
HETATM    1  N   UNK     1     -13.153   7.336  70.775  1.00  0.00    -0.576 NA 
HETATM    2  C   UNK     1     -12.170   6.730  71.728  1.00  0.00    -0.358 C  
HETATM    3  H1  UNK     1     -13.909   7.844  71.233  1.00  0.00     0.000 HD 
HETATM    4  H2  UNK     1     -13.528   6.626  70.144  1.00  0.00     0.000 HD 
HETATM    5  C   UNK     1     -11.600   7.855  72.602  1.00  0.00    -0.377 C  
HETATM    6  O   UNK     1     -10.536   7.820  73.197  1.00  0.00    -0.359 OA 
HETATM    7  O   UNK     1     -12.459   8.907  72.658  1.00  0.00    -0.331 OA 
ENDROOT
BRANCH   2   8
HETATM    8  C   UNK     1     -11.032   5.965  71.038  1.00  0.00    -0.266 C  
BRANCH   8   9
HETATM    9  S   UNK     1     -10.826   6.539  69.309  1.00  0.00    -0.333 SA 
BRANCH   9  10
HETATM   10  C   UNK     1      -9.357   7.606  69.543  1.00  0.00    -0.153 C  
HETATM   11  C   UNK     1      -9.727   9.069  69.706  1.00  0.00    -0.175 C  
HETATM   12  O   UNK     1      -8.895   9.945  69.908  1.00  0.00    -0.203 OA 
HETATM   13  O   UNK     1     -11.046   9.348  69.611  1.00  0.00    -0.222 OA 
ENDBRANCH   9  10
ENDBRANCH   8   9
ENDBRANCH   2   8
TORSDOF 3
ENDMDL
MODEL      118
REMARK 921   NORMALIZED FREE ENERGY PREDICTED BY IDOCK:   -2.97 KCAL/MOL
REMARK 922        TOTAL FREE ENERGY PREDICTED BY IDOCK:   -3.92 KCAL/MOL
REMARK 923 INTER-LIGAND FREE ENERGY PREDICTED BY IDOCK:   -3.38 KCAL/MOL
REMARK 924 INTRA-LIGAND FREE ENERGY PREDICTED BY IDOCK:   -0.54 KCAL/MOL
REMARK 927      BINDING AFFINITY PREDICTED BY RF-SCORE:    0.00 PKD
ROOT
HETATM    1  N   UNK     1     -11.099  12.698  69.676  1.00  0.00    -0.467 NA 
HETATM    2  C   UNK     1     -11.846  13.377  68.569  1.00  0.00    -0.366 C  
HETATM    3  H1  UNK     1     -11.557  11.855  70.022  1.00  0.00     0.000 HD 
HETATM    4  H2  UNK     1     -10.919  13.349  70.441  1.00  0.00     0.000 HD 
HETATM    5  C   UNK     1     -12.028  12.367  67.429  1.00  0.00    -0.175 C  
HETATM    6  O   UNK     1     -12.229  12.646  66.259  1.00  0.00    -0.562 OA 
HETATM    7  O   UNK     1     -11.968  11.091  67.898  1.00  0.00    -0.620 OA 
ENDROOT
BRANCH   2   8
HETATM    8  C   UNK     1     -11.158  14.647  68.048  1.00  0.00    -0.281 C  
BRANCH   8   9
HETATM    9  S   UNK     1      -9.354  14.581  68.374  1.00  0.00    -0.210 SA 
BRANCH   9  10
HETATM   10  C   UNK     1      -8.833  13.680  66.867  1.00  0.00    -0.187 C  
HETATM   11  C   UNK     1      -8.507  12.224  67.149  1.00  0.00    -0.184 C  
HETATM   12  O   UNK     1      -8.171  11.438  66.272  1.00  0.00    -0.160 OA 
HETATM   13  O   UNK     1      -8.609  11.847  68.444  1.00  0.00    -0.164 OA 
ENDBRANCH   9  10
ENDBRANCH   8   9
ENDBRANCH   2   8
TORSDOF 3
ENDMDL
MODEL      119
REMARK 921   NORMALIZED FREE ENERGY PREDICTED BY IDOCK:   -2.96 KCAL/MOL
REMARK 922        TOTAL FREE ENERGY PREDICTED BY IDOCK:   -3.91 KCAL/MOL
REMARK 923 INTER-LIGAND FREE ENERGY PREDICTED BY IDOCK:   -3.78 KCAL/MOL
REMARK 924 INTRA-LIGAND FREE ENERGY PREDICTED BY IDOCK:   -0.13 KCAL/MOL
REMARK 927      BINDING AFFINITY PREDICTED BY RF-SCORE:    0.00 PKD
ROOT
HETATM    1  N   UNK     1     -11.065   9.441  69.566  1.00  0.00    -0.404 NA 
HETATM    2  C   UNK     1     -11.537  10.543  70.465  1.00  0.00    -0.350 C  
HETATM    3  H1  UNK     1     -10.499   8.738  70.041  1.00  0.00     0.000 HD 
HETATM    4  H2  UNK     1     -10.566   9.820  68.761  1.00  0.00     0.000 HD 
HETATM    5  C   UNK     1     -12.330   9.911  71.616  1.00  0.00    -0.406 C  
HETATM    6  O   UNK     1     -13.164  10.481  72.299  1.00  0.00    -0.402 OA 
HETATM    7  O   UNK     1     -11.959   8.617  71.807  1.00  0.00    -0.294 OA 
ENDROOT
BRANCH   2   8
HETATM    8  C   UNK     1     -12.389  11.601  69.750  1.00  0.00    -0.133 C  
BRANCH   8   9
HETATM    9  S   UNK     1     -11.802  13.288  70.164  1.00  0.00    -0.207 SA 
BRANCH   9  10
HETATM   10  C   UNK     1     -13.073  13.727  71.407  1.00  0.00    -0.337 C  
HETATM   11  C   UNK     1     -12.643  14.886  72.287  1.00  0.00    -0.334 C  
HETATM   12  O   UNK     1     -13.361  15.358  73.159  1.00  0.00    -0.484 OA 
HETATM   13  O   UNK     1     -11.403  15.368  72.047  1.00  0.00    -0.432 OA 
ENDBRANCH   9  10
ENDBRANCH   8   9
ENDBRANCH   2   8
TORSDOF 3
ENDMDL
MODEL      120
REMARK 921   NORMALIZED FREE ENERGY PREDICTED BY IDOCK:   -2.95 KCAL/MOL
REMARK 922        TOTAL FREE ENERGY PREDICTED BY IDOCK:   -3.90 KCAL/MOL
REMARK 923 INTER-LIGAND FREE ENERGY PREDICTED BY IDOCK:   -3.68 KCAL/MOL
REMARK 924 INTRA-LIGAND FREE ENERGY PREDICTED BY IDOCK:   -0.21 KCAL/MOL
REMARK 927      BINDING AFFINITY PREDICTED BY RF-SCORE:    0.00 PKD
ROOT
HETATM    1  N   UNK     1      -9.564   9.431  64.854  1.00  0.00    -0.442 NA 
HETATM    2  C   UNK     1     -10.329  10.680  65.168  1.00  0.00    -0.261 C  
HETATM    3  H1  UNK     1      -9.852   8.981  63.985  1.00  0.00     0.000 HD 
HETATM    4  H2  UNK     1      -9.613   8.773  65.633  1.00  0.00     0.000 HD 
HETATM    5  C   UNK     1     -10.164  11.647  63.989  1.00  0.00    -0.346 C  
HETATM    6  O   UNK     1     -10.305  12.858  64.040  1.00  0.00    -0.422 OA 
HETATM    7  O   UNK     1      -9.866  10.972  62.846  1.00  0.00    -0.310 OA 
ENDROOT
BRANCH   2   8
HETATM    8  C   UNK     1      -9.896  11.357  66.476  1.00  0.00    -0.208 C  
BRANCH   8   9
HETATM    9  S   UNK     1     -11.332  11.574  67.595  1.00  0.00    -0.283 SA 
BRANCH   9  10
HETATM   10  C   UNK     1     -10.893  13.208  68.296  1.00  0.00    -0.253 C  
HETATM   11  C   UNK     1     -11.600  14.349  67.589  1.00  0.00    -0.370 C  
HETATM   12  O   UNK     1     -11.471  15.520  67.925  1.00  0.00    -0.330 OA 
HETATM   13  O   UNK     1     -12.389  13.988  66.551  1.00  0.00    -0.457 OA 
ENDBRANCH   9  10
ENDBRANCH   8   9
ENDBRANCH   2   8
TORSDOF 3
ENDMDL
MODEL      121
REMARK 921   NORMALIZED FREE ENERGY PREDICTED BY IDOCK:   -2.94 KCAL/MOL
REMARK 922        TOTAL FREE ENERGY PREDICTED BY IDOCK:   -3.88 KCAL/MOL
REMARK 923 INTER-LIGAND FREE ENERGY PREDICTED BY IDOCK:   -3.73 KCAL/MOL
REMARK 924 INTRA-LIGAND FREE ENERGY PREDICTED BY IDOCK:   -0.15 KCAL/MOL
REMARK 927      BINDING AFFINITY PREDICTED BY RF-SCORE:    0.00 PKD
ROOT
HETATM    1  N   UNK     1     -11.313  16.643  70.511  1.00  0.00    -0.451 NA 
HETATM    2  C   UNK     1     -11.739  15.286  70.039  1.00  0.00    -0.315 C  
HETATM    3  H1  UNK     1     -10.369  16.899  70.225  1.00  0.00     0.000 HD 
HETATM    4  H2  UNK     1     -11.415  16.720  71.524  1.00  0.00     0.000 HD 
HETATM    5  C   UNK     1     -11.623  15.258  68.509  1.00  0.00    -0.352 C  
HETATM    6  O   UNK     1     -12.223  14.500  67.767  1.00  0.00    -0.287 OA 
HETATM    7  O   UNK     1     -10.724  16.181  68.075  1.00  0.00    -0.299 OA 
ENDROOT
BRANCH   2   8
HETATM    8  C   UNK     1     -13.161  14.901  70.470  1.00  0.00    -0.254 C  
BRANCH   8   9
HETATM    9  S   UNK     1     -13.120  13.467  71.613  1.00  0.00    -0.336 SA 
BRANCH   9  10
HETATM   10  C   UNK     1     -12.251  12.274  70.529  1.00  0.00    -0.300 C  
HETATM   11  C   UNK     1     -12.458  10.836  70.970  1.00  0.00    -0.420 C  
HETATM   12  O   UNK     1     -11.990   9.882  70.362  1.00  0.00    -0.256 OA 
HETATM   13  O   UNK     1     -13.198  10.674  72.090  1.00  0.00    -0.464 OA 
ENDBRANCH   9  10
ENDBRANCH   8   9
ENDBRANCH   2   8
TORSDOF 3
ENDMDL
MODEL      122
REMARK 921   NORMALIZED FREE ENERGY PREDICTED BY IDOCK:   -2.94 KCAL/MOL
REMARK 922        TOTAL FREE ENERGY PREDICTED BY IDOCK:   -3.88 KCAL/MOL
REMARK 923 INTER-LIGAND FREE ENERGY PREDICTED BY IDOCK:   -3.79 KCAL/MOL
REMARK 924 INTRA-LIGAND FREE ENERGY PREDICTED BY IDOCK:   -0.09 KCAL/MOL
REMARK 927      BINDING AFFINITY PREDICTED BY RF-SCORE:    0.00 PKD
ROOT
HETATM    1  N   UNK     1     -11.046   8.441  67.706  1.00  0.00    -0.388 NA 
HETATM    2  C   UNK     1     -10.515   9.558  68.551  1.00  0.00    -0.217 C  
HETATM    3  H1  UNK     1     -10.564   7.554  67.849  1.00  0.00     0.000 HD 
HETATM    4  H2  UNK     1     -11.038   8.700  66.720  1.00  0.00     0.000 HD 
HETATM    5  C   UNK     1     -10.613   9.131  70.021  1.00  0.00    -0.227 C  
HETATM    6  O   UNK     1     -10.645   9.886  70.978  1.00  0.00    -0.290 OA 
HETATM    7  O   UNK     1     -10.629   7.776  70.132  1.00  0.00    -0.227 OA 
ENDROOT
BRANCH   2   8
HETATM    8  C   UNK     1     -11.241  10.893  68.336  1.00  0.00    -0.285 C  
BRANCH   8   9
HETATM    9  S   UNK     1     -10.537  11.785  66.897  1.00  0.00    -0.246 SA 
BRANCH   9  10
HETATM   10  C   UNK     1     -11.797  13.105  66.744  1.00  0.00    -0.385 C  
HETATM   11  C   UNK     1     -12.302  13.259  65.321  1.00  0.00    -0.476 C  
HETATM   12  O   UNK     1     -13.172  14.063  65.010  1.00  0.00    -0.720 OA 
HETATM   13  O   UNK     1     -11.724  12.446  64.409  1.00  0.00    -0.331 OA 
ENDBRANCH   9  10
ENDBRANCH   8   9
ENDBRANCH   2   8
TORSDOF 3
ENDMDL
MODEL      123
REMARK 921   NORMALIZED FREE ENERGY PREDICTED BY IDOCK:   -2.92 KCAL/MOL
REMARK 922        TOTAL FREE ENERGY PREDICTED BY IDOCK:   -3.87 KCAL/MOL
REMARK 923 INTER-LIGAND FREE ENERGY PREDICTED BY IDOCK:   -3.75 KCAL/MOL
REMARK 924 INTRA-LIGAND FREE ENERGY PREDICTED BY IDOCK:   -0.12 KCAL/MOL
REMARK 927      BINDING AFFINITY PREDICTED BY RF-SCORE:    0.00 PKD
ROOT
HETATM    1  N   UNK     1     -11.039  13.342  69.756  1.00  0.00    -0.470 NA 
HETATM    2  C   UNK     1     -12.048  14.040  68.896  1.00  0.00    -0.316 C  
HETATM    3  H1  UNK     1     -11.165  12.331  69.798  1.00  0.00     0.000 HD 
HETATM    4  H2  UNK     1     -11.028  13.742  70.695  1.00  0.00     0.000 HD 
HETATM    5  C   UNK     1     -11.970  13.437  67.488  1.00  0.00    -0.339 C  
HETATM    6  O   UNK     1     -12.338  13.983  66.461  1.00  0.00    -0.457 OA 
HETATM    7  O   UNK     1     -11.458  12.178  67.528  1.00  0.00    -0.298 OA 
ENDROOT
BRANCH   2   8
HETATM    8  C   UNK     1     -11.858  15.562  68.833  1.00  0.00    -0.338 C  
BRANCH   8   9
HETATM    9  S   UNK     1     -10.108  16.006  69.151  1.00  0.00    -0.258 SA 
BRANCH   9  10
HETATM   10  C   UNK     1     -10.154  17.745  68.580  1.00  0.00    -0.384 C  
HETATM   11  C   UNK     1      -8.767  18.348  68.450  1.00  0.00    -0.317 C  
HETATM   12  O   UNK     1      -8.575  19.489  68.051  1.00  0.00    -0.310 OA 
HETATM   13  O   UNK     1      -7.747  17.537  68.810  1.00  0.00    -0.266 OA 
ENDBRANCH   9  10
ENDBRANCH   8   9
ENDBRANCH   2   8
TORSDOF 3
ENDMDL
MODEL      124
REMARK 921   NORMALIZED FREE ENERGY PREDICTED BY IDOCK:   -2.92 KCAL/MOL
REMARK 922        TOTAL FREE ENERGY PREDICTED BY IDOCK:   -3.87 KCAL/MOL
REMARK 923 INTER-LIGAND FREE ENERGY PREDICTED BY IDOCK:   -3.72 KCAL/MOL
REMARK 924 INTRA-LIGAND FREE ENERGY PREDICTED BY IDOCK:   -0.15 KCAL/MOL
REMARK 927      BINDING AFFINITY PREDICTED BY RF-SCORE:    0.00 PKD
ROOT
HETATM    1  N   UNK     1      -8.199  14.548  69.179  1.00  0.00    -0.337 NA 
HETATM    2  C   UNK     1      -8.418  15.536  68.074  1.00  0.00    -0.143 C  
HETATM    3  H1  UNK     1      -7.905  13.627  68.853  1.00  0.00     0.000 HD 
HETATM    4  H2  UNK     1      -9.030  14.473  69.765  1.00  0.00     0.000 HD 
HETATM    5  C   UNK     1      -7.115  15.649  67.272  1.00  0.00    -0.207 C  
HETATM    6  O   UNK     1      -6.792  16.595  66.574  1.00  0.00    -0.215 OA 
HETATM    7  O   UNK     1      -6.362  14.525  67.411  1.00  0.00    -0.322 OA 
ENDROOT
BRANCH   2   8
HETATM    8  C   UNK     1      -8.860  16.922  68.565  1.00  0.00    -0.251 C  
BRANCH   8   9
HETATM    9  S   UNK     1     -10.653  17.168  68.266  1.00  0.00    -0.365 SA 
BRANCH   9  10
HETATM   10  C   UNK     1     -10.587  18.860  67.568  1.00  0.00    -0.451 C  
HETATM   11  C   UNK     1     -10.600  18.860  66.050  1.00  0.00    -0.403 C  
HETATM   12  O   UNK     1     -10.597  19.889  65.387  1.00  0.00    -0.404 OA 
HETATM   13  O   UNK     1     -10.614  17.638  65.471  1.00  0.00    -0.622 OA 
ENDBRANCH   9  10
ENDBRANCH   8   9
ENDBRANCH   2   8
TORSDOF 3
ENDMDL
MODEL      125
REMARK 921   NORMALIZED FREE ENERGY PREDICTED BY IDOCK:   -2.90 KCAL/MOL
REMARK 922        TOTAL FREE ENERGY PREDICTED BY IDOCK:   -3.83 KCAL/MOL
REMARK 923 INTER-LIGAND FREE ENERGY PREDICTED BY IDOCK:   -3.72 KCAL/MOL
REMARK 924 INTRA-LIGAND FREE ENERGY PREDICTED BY IDOCK:   -0.11 KCAL/MOL
REMARK 927      BINDING AFFINITY PREDICTED BY RF-SCORE:    0.00 PKD
ROOT
HETATM    1  N   UNK     1     -11.049  14.249  68.364  1.00  0.00    -0.246 NA 
HETATM    2  C   UNK     1     -10.663  15.071  69.555  1.00  0.00    -0.256 C  
HETATM    3  H1  UNK     1     -11.382  13.315  68.601  1.00  0.00     0.000 HD 
HETATM    4  H2  UNK     1     -10.279  14.198  67.696  1.00  0.00     0.000 HD 
HETATM    5  C   UNK     1     -11.879  15.160  70.486  1.00  0.00    -0.318 C  
HETATM    6  O   UNK     1     -12.070  16.027  71.322  1.00  0.00    -0.417 OA 
HETATM    7  O   UNK     1     -12.723  14.114  70.281  1.00  0.00    -0.333 OA 
ENDROOT
BRANCH   2   8
HETATM    8  C   UNK     1     -10.162  16.478  69.199  1.00  0.00    -0.298 C  
BRANCH   8   9
HETATM    9  S   UNK     1     -10.607  16.900  67.471  1.00  0.00    -0.271 SA 
BRANCH   9  10
HETATM   10  C   UNK     1     -10.748  18.716  67.656  1.00  0.00    -0.376 C  
HETATM   11  C   UNK     1      -9.877  19.467  66.665  1.00  0.00    -0.394 C  
HETATM   12  O   UNK     1      -9.850  20.690  66.599  1.00  0.00    -0.349 OA 
HETATM   13  O   UNK     1      -9.122  18.693  65.854  1.00  0.00    -0.467 OA 
ENDBRANCH   9  10
ENDBRANCH   8   9
ENDBRANCH   2   8
TORSDOF 3
ENDMDL
MODEL      126
REMARK 921   NORMALIZED FREE ENERGY PREDICTED BY IDOCK:   -2.90 KCAL/MOL
REMARK 922        TOTAL FREE ENERGY PREDICTED BY IDOCK:   -3.83 KCAL/MOL
REMARK 923 INTER-LIGAND FREE ENERGY PREDICTED BY IDOCK:   -3.71 KCAL/MOL
REMARK 924 INTRA-LIGAND FREE ENERGY PREDICTED BY IDOCK:   -0.12 KCAL/MOL
REMARK 927      BINDING AFFINITY PREDICTED BY RF-SCORE:    0.00 PKD
ROOT
HETATM    1  N   UNK     1     -11.254  16.951  70.121  1.00  0.00    -0.301 NA 
HETATM    2  C   UNK     1     -11.495  15.487  69.911  1.00  0.00    -0.327 C  
HETATM    3  H1  UNK     1     -10.282  17.230  69.990  1.00  0.00     0.000 HD 
HETATM    4  H2  UNK     1     -11.592  17.244  71.038  1.00  0.00     0.000 HD 
HETATM    5  C   UNK     1     -11.026  15.127  68.495  1.00  0.00    -0.262 C  
HETATM    6  O   UNK     1     -11.402  14.165  67.848  1.00  0.00    -0.267 OA 
HETATM    7  O   UNK     1     -10.095  16.014  68.053  1.00  0.00    -0.233 OA 
ENDROOT
BRANCH   2   8
HETATM    8  C   UNK     1     -12.959  15.068  70.108  1.00  0.00    -0.084 C  
BRANCH   8   9
HETATM    9  S   UNK     1     -13.126  13.989  71.582  1.00  0.00    -0.378 SA 
BRANCH   9  10
HETATM   10  C   UNK     1     -12.115  14.965  72.756  1.00  0.00    -0.264 C  
HETATM   11  C   UNK     1     -12.922  16.044  73.455  1.00  0.00    -0.570 C  
HETATM   12  O   UNK     1     -12.443  16.785  74.303  1.00  0.00    -0.645 OA 
HETATM   13  O   UNK     1     -14.216  16.138  73.074  1.00  0.00    -0.382 OA 
ENDBRANCH   9  10
ENDBRANCH   8   9
ENDBRANCH   2   8
TORSDOF 3
ENDMDL
MODEL      127
REMARK 921   NORMALIZED FREE ENERGY PREDICTED BY IDOCK:   -2.89 KCAL/MOL
REMARK 922        TOTAL FREE ENERGY PREDICTED BY IDOCK:   -3.83 KCAL/MOL
REMARK 923 INTER-LIGAND FREE ENERGY PREDICTED BY IDOCK:   -3.75 KCAL/MOL
REMARK 924 INTRA-LIGAND FREE ENERGY PREDICTED BY IDOCK:   -0.09 KCAL/MOL
REMARK 927      BINDING AFFINITY PREDICTED BY RF-SCORE:    0.00 PKD
ROOT
HETATM    1  N   UNK     1      -9.664   9.346  66.039  1.00  0.00    -0.258 NA 
HETATM    2  C   UNK     1      -9.735  10.248  67.234  1.00  0.00    -0.166 C  
HETATM    3  H1  UNK     1      -8.721   9.026  65.822  1.00  0.00     0.000 HD 
HETATM    4  H2  UNK     1     -10.088   9.792  65.226  1.00  0.00     0.000 HD 
HETATM    5  C   UNK     1      -9.140   9.497  68.432  1.00  0.00    -0.127 C  
HETATM    6  O   UNK     1      -9.370   9.739  69.605  1.00  0.00    -0.191 OA 
HETATM    7  O   UNK     1      -8.282   8.526  68.018  1.00  0.00    -0.117 OA 
ENDROOT
BRANCH   2   8
HETATM    8  C   UNK     1     -11.155  10.730  67.560  1.00  0.00    -0.308 C  
BRANCH   8   9
HETATM    9  S   UNK     1     -11.355  12.496  67.109  1.00  0.00    -0.345 SA 
BRANCH   9  10
HETATM   10  C   UNK     1     -11.299  12.325  65.287  1.00  0.00    -0.338 C  
HETATM   11  C   UNK     1     -12.353  13.169  64.595  1.00  0.00    -0.405 C  
HETATM   12  O   UNK     1     -12.464  13.225  63.377  1.00  0.00    -0.741 OA 
HETATM   13  O   UNK     1     -13.173  13.862  65.417  1.00  0.00    -0.750 OA 
ENDBRANCH   9  10
ENDBRANCH   8   9
ENDBRANCH   2   8
TORSDOF 3
ENDMDL
MODEL      128
REMARK 921   NORMALIZED FREE ENERGY PREDICTED BY IDOCK:   -2.89 KCAL/MOL
REMARK 922        TOTAL FREE ENERGY PREDICTED BY IDOCK:   -3.83 KCAL/MOL
REMARK 923 INTER-LIGAND FREE ENERGY PREDICTED BY IDOCK:   -3.66 KCAL/MOL
REMARK 924 INTRA-LIGAND FREE ENERGY PREDICTED BY IDOCK:   -0.17 KCAL/MOL
REMARK 927      BINDING AFFINITY PREDICTED BY RF-SCORE:    0.00 PKD
ROOT
HETATM    1  N   UNK     1     -10.472  14.166  64.220  1.00  0.00    -0.538 NA 
HETATM    2  C   UNK     1     -11.624  13.288  64.606  1.00  0.00    -0.350 C  
HETATM    3  H1  UNK     1     -10.477  15.075  64.682  1.00  0.00     0.000 HD 
HETATM    4  H2  UNK     1     -10.428  14.278  63.207  1.00  0.00     0.000 HD 
HETATM    5  C   UNK     1     -11.595  13.110  66.130  1.00  0.00    -0.355 C  
HETATM    6  O   UNK     1     -12.109  12.191  66.745  1.00  0.00    -0.609 OA 
HETATM    7  O   UNK     1     -10.940  14.141  66.726  1.00  0.00    -0.293 OA 
ENDROOT
BRANCH   2   8
HETATM    8  C   UNK     1     -11.617  11.920  63.911  1.00  0.00    -0.425 C  
BRANCH   8   9
HETATM    9  S   UNK     1      -9.899  11.313  63.700  1.00  0.00    -0.376 SA 
BRANCH   9  10
HETATM   10  C   UNK     1      -9.881  10.061  65.036  1.00  0.00    -0.304 C  
HETATM   11  C   UNK     1      -8.575   9.289  65.086  1.00  0.00    -0.172 C  
HETATM   12  O   UNK     1      -8.345   8.429  65.927  1.00  0.00    -0.118 OA 
HETATM   13  O   UNK     1      -7.673   9.613  64.132  1.00  0.00    -0.117 OA 
ENDBRANCH   9  10
ENDBRANCH   8   9
ENDBRANCH   2   8
TORSDOF 3
ENDMDL
MODEL      129
REMARK 921   NORMALIZED FREE ENERGY PREDICTED BY IDOCK:   -2.89 KCAL/MOL
REMARK 922        TOTAL FREE ENERGY PREDICTED BY IDOCK:   -3.83 KCAL/MOL
REMARK 923 INTER-LIGAND FREE ENERGY PREDICTED BY IDOCK:   -3.55 KCAL/MOL
REMARK 924 INTRA-LIGAND FREE ENERGY PREDICTED BY IDOCK:   -0.28 KCAL/MOL
REMARK 927      BINDING AFFINITY PREDICTED BY RF-SCORE:    0.00 PKD
ROOT
HETATM    1  N   UNK     1     -12.254  10.759  68.600  1.00  0.00    -0.827 NA 
HETATM    2  C   UNK     1     -11.123  10.657  67.623  1.00  0.00    -0.319 C  
HETATM    3  H1  UNK     1     -12.629   9.857  68.890  1.00  0.00     0.000 HD 
HETATM    4  H2  UNK     1     -12.996  11.354  68.230  1.00  0.00     0.000 HD 
HETATM    5  C   UNK     1     -10.019   9.805  68.262  1.00  0.00    -0.153 C  
HETATM    6  O   UNK     1      -8.840   9.823  67.952  1.00  0.00    -0.122 OA 
HETATM    7  O   UNK     1     -10.532   8.985  69.218  1.00  0.00    -0.222 OA 
ENDROOT
BRANCH   2   8
HETATM    8  C   UNK     1     -10.559  12.016  67.186  1.00  0.00    -0.224 C  
BRANCH   8   9
HETATM    9  S   UNK     1     -11.903  13.105  66.577  1.00  0.00    -0.398 SA 
BRANCH   9  10
HETATM   10  C   UNK     1     -11.312  14.692  67.273  1.00  0.00    -0.353 C  
HETATM   11  C   UNK     1     -11.601  14.815  68.758  1.00  0.00    -0.320 C  
HETATM   12  O   UNK     1     -11.257  15.784  69.422  1.00  0.00    -0.277 OA 
HETATM   13  O   UNK     1     -12.271  13.776  69.306  1.00  0.00    -0.337 OA 
ENDBRANCH   9  10
ENDBRANCH   8   9
ENDBRANCH   2   8
TORSDOF 3
ENDMDL
MODEL      130
REMARK 921   NORMALIZED FREE ENERGY PREDICTED BY IDOCK:   -2.89 KCAL/MOL
REMARK 922        TOTAL FREE ENERGY PREDICTED BY IDOCK:   -3.83 KCAL/MOL
REMARK 923 INTER-LIGAND FREE ENERGY PREDICTED BY IDOCK:   -3.71 KCAL/MOL
REMARK 924 INTRA-LIGAND FREE ENERGY PREDICTED BY IDOCK:   -0.11 KCAL/MOL
REMARK 927      BINDING AFFINITY PREDICTED BY RF-SCORE:    0.00 PKD
ROOT
HETATM    1  N   UNK     1      -9.428  16.566  65.966  1.00  0.00    -0.424 NA 
HETATM    2  C   UNK     1     -10.042  15.272  65.527  1.00  0.00    -0.375 C  
HETATM    3  H1  UNK     1      -9.173  17.182  65.194  1.00  0.00     0.000 HD 
HETATM    4  H2  UNK     1      -8.624  16.397  66.571  1.00  0.00     0.000 HD 
HETATM    5  C   UNK     1     -11.277  15.596  64.676  1.00  0.00    -0.369 C  
HETATM    6  O   UNK     1     -12.217  14.846  64.478  1.00  0.00    -0.456 OA 
HETATM    7  O   UNK     1     -11.177  16.839  64.132  1.00  0.00    -1.155 OA 
ENDROOT
BRANCH   2   8
HETATM    8  C   UNK     1     -10.426  14.345  66.689  1.00  0.00    -0.274 C  
BRANCH   8   9
HETATM    9  S   UNK     1      -9.249  14.539  68.082  1.00  0.00    -0.202 SA 
BRANCH   9  10
HETATM   10  C   UNK     1      -7.980  13.334  67.543  1.00  0.00    -0.184 C  
HETATM   11  C   UNK     1      -6.721  13.405  68.389  1.00  0.00    -0.096 C  
HETATM   12  O   UNK     1      -5.764  12.662  68.216  1.00  0.00    -0.054 OA 
HETATM   13  O   UNK     1      -6.723  14.353  69.353  1.00  0.00    -0.125 OA 
ENDBRANCH   9  10
ENDBRANCH   8   9
ENDBRANCH   2   8
TORSDOF 3
ENDMDL
MODEL      131
REMARK 921   NORMALIZED FREE ENERGY PREDICTED BY IDOCK:   -2.88 KCAL/MOL
REMARK 922        TOTAL FREE ENERGY PREDICTED BY IDOCK:   -3.81 KCAL/MOL
REMARK 923 INTER-LIGAND FREE ENERGY PREDICTED BY IDOCK:   -3.50 KCAL/MOL
REMARK 924 INTRA-LIGAND FREE ENERGY PREDICTED BY IDOCK:   -0.31 KCAL/MOL
REMARK 927      BINDING AFFINITY PREDICTED BY RF-SCORE:    0.00 PKD
ROOT
HETATM    1  N   UNK     1      -7.353  18.335  68.034  1.00  0.00    -0.233 NA 
HETATM    2  C   UNK     1      -7.777  18.499  66.606  1.00  0.00    -0.245 C  
HETATM    3  H1  UNK     1      -6.899  17.443  68.228  1.00  0.00     0.000 HD 
HETATM    4  H2  UNK     1      -8.144  18.480  68.663  1.00  0.00     0.000 HD 
HETATM    5  C   UNK     1      -6.535  18.332  65.721  1.00  0.00    -0.275 C  
HETATM    6  O   UNK     1      -6.410  18.765  64.588  1.00  0.00    -0.493 OA 
HETATM    7  O   UNK     1      -5.582  17.599  66.356  1.00  0.00    -0.167 OA 
ENDROOT
BRANCH   2   8
HETATM    8  C   UNK     1      -8.461  19.841  66.315  1.00  0.00    -0.361 C  
BRANCH   8   9
HETATM    9  S   UNK     1     -10.044  19.970  67.233  1.00  0.00    -0.439 SA 
BRANCH   9  10
HETATM   10  C   UNK     1     -10.732  18.322  66.830  1.00  0.00    -0.242 C  
HETATM   11  C   UNK     1     -10.736  17.389  68.028  1.00  0.00    -0.359 C  
HETATM   12  O   UNK     1     -11.186  16.252  67.982  1.00  0.00    -0.334 OA 
HETATM   13  O   UNK     1     -10.204  17.900  69.161  1.00  0.00    -0.354 OA 
ENDBRANCH   9  10
ENDBRANCH   8   9
ENDBRANCH   2   8
TORSDOF 3
ENDMDL
MODEL      132
REMARK 921   NORMALIZED FREE ENERGY PREDICTED BY IDOCK:   -2.87 KCAL/MOL
REMARK 922        TOTAL FREE ENERGY PREDICTED BY IDOCK:   -3.81 KCAL/MOL
REMARK 923 INTER-LIGAND FREE ENERGY PREDICTED BY IDOCK:   -3.48 KCAL/MOL
REMARK 924 INTRA-LIGAND FREE ENERGY PREDICTED BY IDOCK:   -0.32 KCAL/MOL
REMARK 927      BINDING AFFINITY PREDICTED BY RF-SCORE:    0.00 PKD
ROOT
HETATM    1  N   UNK     1     -12.306   6.848  70.940  1.00  0.00    -0.488 NA 
HETATM    2  C   UNK     1     -11.901   8.006  71.800  1.00  0.00    -0.296 C  
HETATM    3  H1  UNK     1     -13.169   6.396  71.240  1.00  0.00     0.000 HD 
HETATM    4  H2  UNK     1     -11.549   6.168  70.872  1.00  0.00     0.000 HD 
HETATM    5  C   UNK     1     -13.055   9.017  71.809  1.00  0.00    -0.381 C  
HETATM    6  O   UNK     1     -12.953  10.206  72.063  1.00  0.00    -0.424 OA 
HETATM    7  O   UNK     1     -14.236   8.407  71.524  1.00  0.00    -0.411 OA 
ENDROOT
BRANCH   2   8
HETATM    8  C   UNK     1     -10.602   8.686  71.348  1.00  0.00    -0.264 C  
BRANCH   8   9
HETATM    9  S   UNK     1     -10.531   8.787  69.518  1.00  0.00    -0.214 SA 
BRANCH   9  10
HETATM   10  C   UNK     1     -10.136  10.568  69.353  1.00  0.00    -0.209 C  
HETATM   11  C   UNK     1     -11.346  11.393  68.955  1.00  0.00    -0.270 C  
HETATM   12  O   UNK     1     -11.304  12.610  68.824  1.00  0.00    -0.249 OA 
HETATM   13  O   UNK     1     -12.483  10.692  68.748  1.00  0.00    -0.278 OA 
ENDBRANCH   9  10
ENDBRANCH   8   9
ENDBRANCH   2   8
TORSDOF 3
ENDMDL
MODEL      133
REMARK 921   NORMALIZED FREE ENERGY PREDICTED BY IDOCK:   -2.87 KCAL/MOL
REMARK 922        TOTAL FREE ENERGY PREDICTED BY IDOCK:   -3.80 KCAL/MOL
REMARK 923 INTER-LIGAND FREE ENERGY PREDICTED BY IDOCK:   -3.66 KCAL/MOL
REMARK 924 INTRA-LIGAND FREE ENERGY PREDICTED BY IDOCK:   -0.14 KCAL/MOL
REMARK 927      BINDING AFFINITY PREDICTED BY RF-SCORE:    0.00 PKD
ROOT
HETATM    1  N   UNK     1     -11.491   6.693  67.474  1.00  0.00    -0.715 NA 
HETATM    2  C   UNK     1     -10.765   6.390  68.749  1.00  0.00    -0.287 C  
HETATM    3  H1  UNK     1     -10.905   6.629  66.642  1.00  0.00     0.000 HD 
HETATM    4  H2  UNK     1     -11.943   7.607  67.525  1.00  0.00     0.000 HD 
HETATM    5  C   UNK     1     -10.164   4.984  68.631  1.00  0.00    -0.084 C  
HETATM    6  O   UNK     1      -9.853   4.265  69.566  1.00  0.00    -0.208 OA 
HETATM    7  O   UNK     1      -9.988   4.640  67.327  1.00  0.00    -0.188 OA 
ENDROOT
BRANCH   2   8
HETATM    8  C   UNK     1     -11.648   6.488  70.001  1.00  0.00    -0.390 C  
BRANCH   8   9
HETATM    9  S   UNK     1     -10.793   7.433  71.320  1.00  0.00    -0.241 SA 
BRANCH   9  10
HETATM   10  C   UNK     1     -12.238   8.323  72.005  1.00  0.00    -0.348 C  
HETATM   11  C   UNK     1     -12.260   9.786  71.602  1.00  0.00    -0.404 C  
HETATM   12  O   UNK     1     -13.160  10.550  71.928  1.00  0.00    -0.457 OA 
HETATM   13  O   UNK     1     -11.211  10.197  70.855  1.00  0.00    -0.337 OA 
ENDBRANCH   9  10
ENDBRANCH   8   9
ENDBRANCH   2   8
TORSDOF 3
ENDMDL
MODEL      134
REMARK 921   NORMALIZED FREE ENERGY PREDICTED BY IDOCK:   -2.86 KCAL/MOL
REMARK 922        TOTAL FREE ENERGY PREDICTED BY IDOCK:   -3.79 KCAL/MOL
REMARK 923 INTER-LIGAND FREE ENERGY PREDICTED BY IDOCK:   -3.35 KCAL/MOL
REMARK 924 INTRA-LIGAND FREE ENERGY PREDICTED BY IDOCK:   -0.44 KCAL/MOL
REMARK 927      BINDING AFFINITY PREDICTED BY RF-SCORE:    0.00 PKD
ROOT
HETATM    1  N   UNK     1     -12.124   7.486  72.493  1.00  0.00    -0.535 NA 
HETATM    2  C   UNK     1     -11.846   8.853  71.947  1.00  0.00    -0.370 C  
HETATM    3  H1  UNK     1     -12.844   7.471  73.215  1.00  0.00     0.000 HD 
HETATM    4  H2  UNK     1     -11.266   7.052  72.832  1.00  0.00     0.000 HD 
HETATM    5  C   UNK     1     -13.161   9.422  71.399  1.00  0.00    -0.347 C  
HETATM    6  O   UNK     1     -13.257  10.304  70.562  1.00  0.00    -0.299 OA 
HETATM    7  O   UNK     1     -14.231   8.832  71.996  1.00  0.00    -0.428 OA 
ENDROOT
BRANCH   2   8
HETATM    8  C   UNK     1     -10.763   8.876  70.860  1.00  0.00    -0.231 C  
BRANCH   8   9
HETATM    9  S   UNK     1      -9.506   7.578  71.177  1.00  0.00    -0.157 SA 
BRANCH   9  10
HETATM   10  C   UNK     1      -8.338   8.563  72.185  1.00  0.00    -0.132 C  
HETATM   11  C   UNK     1      -8.449   8.252  73.666  1.00  0.00    -0.197 C  
HETATM   12  O   UNK     1      -7.733   8.777  74.510  1.00  0.00    -0.401 OA 
HETATM   13  O   UNK     1      -9.401   7.351  74.000  1.00  0.00    -0.250 OA 
ENDBRANCH   9  10
ENDBRANCH   8   9
ENDBRANCH   2   8
TORSDOF 3
ENDMDL
MODEL      135
REMARK 921   NORMALIZED FREE ENERGY PREDICTED BY IDOCK:   -2.84 KCAL/MOL
REMARK 922        TOTAL FREE ENERGY PREDICTED BY IDOCK:   -3.77 KCAL/MOL
REMARK 923 INTER-LIGAND FREE ENERGY PREDICTED BY IDOCK:   -3.68 KCAL/MOL
REMARK 924 INTRA-LIGAND FREE ENERGY PREDICTED BY IDOCK:   -0.09 KCAL/MOL
REMARK 927      BINDING AFFINITY PREDICTED BY RF-SCORE:    0.00 PKD
ROOT
HETATM    1  N   UNK     1      -8.762  20.169  67.105  1.00  0.00    -0.334 NA 
HETATM    2  C   UNK     1      -8.798  19.260  68.295  1.00  0.00    -0.337 C  
HETATM    3  H1  UNK     1      -8.482  21.125  67.326  1.00  0.00     0.000 HD 
HETATM    4  H2  UNK     1      -9.658  20.161  66.618  1.00  0.00     0.000 HD 
HETATM    5  C   UNK     1      -7.408  19.270  68.943  1.00  0.00    -0.356 C  
HETATM    6  O   UNK     1      -6.955  18.396  69.663  1.00  0.00    -0.085 OA 
HETATM    7  O   UNK     1      -6.737  20.412  68.634  1.00  0.00    -0.288 OA 
ENDROOT
BRANCH   2   8
HETATM    8  C   UNK     1      -9.219  17.822  67.961  1.00  0.00    -0.273 C  
BRANCH   8   9
HETATM    9  S   UNK     1     -10.800  17.814  67.033  1.00  0.00     0.043 SA 
BRANCH   9  10
HETATM   10  C   UNK     1     -10.836  16.045  66.562  1.00  0.00    -0.167 C  
HETATM   11  C   UNK     1     -10.970  15.849  65.063  1.00  0.00    -0.412 C  
HETATM   12  O   UNK     1     -10.980  14.743  64.537  1.00  0.00    -0.327 OA 
HETATM   13  O   UNK     1     -11.083  16.984  64.337  1.00  0.00    -1.144 OA 
ENDBRANCH   9  10
ENDBRANCH   8   9
ENDBRANCH   2   8
TORSDOF 3
ENDMDL
MODEL      136
REMARK 921   NORMALIZED FREE ENERGY PREDICTED BY IDOCK:   -2.84 KCAL/MOL
REMARK 922        TOTAL FREE ENERGY PREDICTED BY IDOCK:   -3.77 KCAL/MOL
REMARK 923 INTER-LIGAND FREE ENERGY PREDICTED BY IDOCK:   -3.37 KCAL/MOL
REMARK 924 INTRA-LIGAND FREE ENERGY PREDICTED BY IDOCK:   -0.40 KCAL/MOL
REMARK 927      BINDING AFFINITY PREDICTED BY RF-SCORE:    0.00 PKD
ROOT
HETATM    1  N   UNK     1     -12.112  13.598  68.939  1.00  0.00    -0.342 NA 
HETATM    2  C   UNK     1     -11.741  13.220  67.537  1.00  0.00    -0.366 C  
HETATM    3  H1  UNK     1     -12.977  13.169  69.265  1.00  0.00     0.000 HD 
HETATM    4  H2  UNK     1     -12.154  14.613  69.039  1.00  0.00     0.000 HD 
HETATM    5  C   UNK     1     -11.633  11.691  67.471  1.00  0.00    -0.272 C  
HETATM    6  O   UNK     1     -10.999  11.061  66.641  1.00  0.00    -0.258 OA 
HETATM    7  O   UNK     1     -12.374  11.110  68.452  1.00  0.00    -0.556 OA 
ENDROOT
BRANCH   2   8
HETATM    8  C   UNK     1     -10.438  13.867  67.047  1.00  0.00    -0.278 C  
BRANCH   8   9
HETATM    9  S   UNK     1      -9.301  14.170  68.454  1.00  0.00    -0.198 SA 
BRANCH   9  10
HETATM   10  C   UNK     1      -8.983  15.951  68.176  1.00  0.00    -0.181 C  
HETATM   11  C   UNK     1     -10.031  16.834  68.829  1.00  0.00    -0.269 C  
HETATM   12  O   UNK     1      -9.985  18.057  68.791  1.00  0.00    -0.361 OA 
HETATM   13  O   UNK     1     -11.031  16.178  69.460  1.00  0.00    -0.293 OA 
ENDBRANCH   9  10
ENDBRANCH   8   9
ENDBRANCH   2   8
TORSDOF 3
ENDMDL
MODEL      137
REMARK 921   NORMALIZED FREE ENERGY PREDICTED BY IDOCK:   -2.84 KCAL/MOL
REMARK 922        TOTAL FREE ENERGY PREDICTED BY IDOCK:   -3.77 KCAL/MOL
REMARK 923 INTER-LIGAND FREE ENERGY PREDICTED BY IDOCK:   -3.65 KCAL/MOL
REMARK 924 INTRA-LIGAND FREE ENERGY PREDICTED BY IDOCK:   -0.13 KCAL/MOL
REMARK 927      BINDING AFFINITY PREDICTED BY RF-SCORE:    0.00 PKD
ROOT
HETATM    1  N   UNK     1     -10.040  14.004  68.871  1.00  0.00    -0.383 NA 
HETATM    2  C   UNK     1     -10.802  13.237  67.833  1.00  0.00    -0.243 C  
HETATM    3  H1  UNK     1     -10.635  14.530  69.511  1.00  0.00     0.000 HD 
HETATM    4  H2  UNK     1      -9.353  14.618  68.433  1.00  0.00     0.000 HD 
HETATM    5  C   UNK     1     -11.769  12.291  68.556  1.00  0.00    -0.331 C  
HETATM    6  O   UNK     1     -12.251  11.275  68.085  1.00  0.00    -0.622 OA 
HETATM    7  O   UNK     1     -12.054  12.751  69.804  1.00  0.00    -0.296 OA 
ENDROOT
BRANCH   2   8
HETATM    8  C   UNK     1      -9.906  12.447  66.869  1.00  0.00    -0.215 C  
BRANCH   8   9
HETATM    9  S   UNK     1     -10.613  12.460  65.177  1.00  0.00    -0.302 SA 
BRANCH   9  10
HETATM   10  C   UNK     1     -10.244  10.729  64.709  1.00  0.00    -0.334 C  
HETATM   11  C   UNK     1      -9.564  10.629  63.355  1.00  0.00    -0.332 C  
HETATM   12  O   UNK     1      -9.202   9.564  62.872  1.00  0.00    -0.237 OA 
HETATM   13  O   UNK     1      -9.384  11.803  62.709  1.00  0.00    -0.351 OA 
ENDBRANCH   9  10
ENDBRANCH   8   9
ENDBRANCH   2   8
TORSDOF 3
ENDMDL
MODEL      138
REMARK 921   NORMALIZED FREE ENERGY PREDICTED BY IDOCK:   -2.82 KCAL/MOL
REMARK 922        TOTAL FREE ENERGY PREDICTED BY IDOCK:   -3.75 KCAL/MOL
REMARK 923 INTER-LIGAND FREE ENERGY PREDICTED BY IDOCK:   -3.58 KCAL/MOL
REMARK 924 INTRA-LIGAND FREE ENERGY PREDICTED BY IDOCK:   -0.16 KCAL/MOL
REMARK 927      BINDING AFFINITY PREDICTED BY RF-SCORE:    0.00 PKD
ROOT
HETATM    1  N   UNK     1      -9.572   6.131  70.345  1.00  0.00    -0.163 NA 
HETATM    2  C   UNK     1     -10.729   6.822  69.691  1.00  0.00    -0.251 C  
HETATM    3  H1  UNK     1      -9.591   5.116  70.248  1.00  0.00     0.000 HD 
HETATM    4  H2  UNK     1      -9.503   6.397  71.328  1.00  0.00     0.000 HD 
HETATM    5  C   UNK     1     -10.739   6.430  68.207  1.00  0.00    -0.285 C  
HETATM    6  O   UNK     1     -11.264   7.067  67.310  1.00  0.00    -0.281 OA 
HETATM    7  O   UNK     1     -10.102   5.244  68.015  1.00  0.00    -0.160 OA 
ENDROOT
BRANCH   2   8
HETATM    8  C   UNK     1     -10.699   8.349  69.837  1.00  0.00    -0.227 C  
BRANCH   8   9
HETATM    9  S   UNK     1     -10.527   8.824  71.600  1.00  0.00    -0.342 SA 
BRANCH   9  10
HETATM   10  C   UNK     1     -12.103   8.136  72.228  1.00  0.00    -0.364 C  
HETATM   11  C   UNK     1     -13.213   9.170  72.260  1.00  0.00    -0.461 C  
HETATM   12  O   UNK     1     -14.355   8.907  72.615  1.00  0.00    -0.613 OA 
HETATM   13  O   UNK     1     -12.856  10.415  71.869  1.00  0.00    -0.433 OA 
ENDBRANCH   9  10
ENDBRANCH   8   9
ENDBRANCH   2   8
TORSDOF 3
ENDMDL
MODEL      139
REMARK 921   NORMALIZED FREE ENERGY PREDICTED BY IDOCK:   -2.82 KCAL/MOL
REMARK 922        TOTAL FREE ENERGY PREDICTED BY IDOCK:   -3.74 KCAL/MOL
REMARK 923 INTER-LIGAND FREE ENERGY PREDICTED BY IDOCK:   -3.51 KCAL/MOL
REMARK 924 INTRA-LIGAND FREE ENERGY PREDICTED BY IDOCK:   -0.23 KCAL/MOL
REMARK 927      BINDING AFFINITY PREDICTED BY RF-SCORE:    0.00 PKD
ROOT
HETATM    1  N   UNK     1      -9.520  14.834  67.577  1.00  0.00    -0.196 NA 
HETATM    2  C   UNK     1      -9.563  16.110  66.792  1.00  0.00    -0.240 C  
HETATM    3  H1  UNK     1     -10.406  14.595  68.020  1.00  0.00     0.000 HD 
HETATM    4  H2  UNK     1      -8.769  14.862  68.267  1.00  0.00     0.000 HD 
HETATM    5  C   UNK     1     -10.667  15.980  65.735  1.00  0.00    -0.301 C  
HETATM    6  O   UNK     1     -10.738  16.624  64.702  1.00  0.00    -0.742 OA 
HETATM    7  O   UNK     1     -11.594  15.060  66.113  1.00  0.00    -0.286 OA 
ENDROOT
BRANCH   2   8
HETATM    8  C   UNK     1      -8.228  16.470  66.126  1.00  0.00    -0.244 C  
BRANCH   8   9
HETATM    9  S   UNK     1      -7.464  17.916  66.955  1.00  0.00    -0.211 SA 
BRANCH   9  10
HETATM   10  C   UNK     1      -8.699  19.187  66.492  1.00  0.00    -0.337 C  
HETATM   11  C   UNK     1      -9.529  19.645  67.678  1.00  0.00    -0.337 C  
HETATM   12  O   UNK     1     -10.388  20.513  67.590  1.00  0.00    -0.272 OA 
HETATM   13  O   UNK     1      -9.258  19.025  68.848  1.00  0.00    -0.347 OA 
ENDBRANCH   9  10
ENDBRANCH   8   9
ENDBRANCH   2   8
TORSDOF 3
ENDMDL
MODEL      140
REMARK 921   NORMALIZED FREE ENERGY PREDICTED BY IDOCK:   -2.79 KCAL/MOL
REMARK 922        TOTAL FREE ENERGY PREDICTED BY IDOCK:   -3.71 KCAL/MOL
REMARK 923 INTER-LIGAND FREE ENERGY PREDICTED BY IDOCK:   -3.58 KCAL/MOL
REMARK 924 INTRA-LIGAND FREE ENERGY PREDICTED BY IDOCK:   -0.13 KCAL/MOL
REMARK 927      BINDING AFFINITY PREDICTED BY RF-SCORE:    0.00 PKD
ROOT
HETATM    1  N   UNK     1      -7.784  18.239  65.672  1.00  0.00    -0.508 NA 
HETATM    2  C   UNK     1      -8.621  19.031  66.630  1.00  0.00    -0.313 C  
HETATM    3  H1  UNK     1      -6.881  18.666  65.466  1.00  0.00     0.000 HD 
HETATM    4  H2  UNK     1      -8.298  18.055  64.811  1.00  0.00     0.000 HD 
HETATM    5  C   UNK     1      -7.815  19.218  67.922  1.00  0.00    -0.289 C  
HETATM    6  O   UNK     1      -8.285  19.457  69.022  1.00  0.00    -0.346 OA 
HETATM    7  O   UNK     1      -6.481  19.114  67.680  1.00  0.00    -0.209 OA 
ENDROOT
BRANCH   2   8
HETATM    8  C   UNK     1      -9.980  18.388  66.939  1.00  0.00    -0.353 C  
BRANCH   8   9
HETATM    9  S   UNK     1      -9.758  16.668  67.533  1.00  0.00    -0.251 SA 
BRANCH   9  10
HETATM   10  C   UNK     1     -10.434  15.782  66.080  1.00  0.00    -0.317 C  
HETATM   11  C   UNK     1     -11.327  14.621  66.476  1.00  0.00    -0.353 C  
HETATM   12  O   UNK     1     -11.906  13.920  65.656  1.00  0.00    -0.342 OA 
HETATM   13  O   UNK     1     -11.442  14.404  67.806  1.00  0.00    -0.301 OA 
ENDBRANCH   9  10
ENDBRANCH   8   9
ENDBRANCH   2   8
TORSDOF 3
ENDMDL
MODEL      141
REMARK 921   NORMALIZED FREE ENERGY PREDICTED BY IDOCK:   -2.77 KCAL/MOL
REMARK 922        TOTAL FREE ENERGY PREDICTED BY IDOCK:   -3.69 KCAL/MOL
REMARK 923 INTER-LIGAND FREE ENERGY PREDICTED BY IDOCK:   -3.51 KCAL/MOL
REMARK 924 INTRA-LIGAND FREE ENERGY PREDICTED BY IDOCK:   -0.17 KCAL/MOL
REMARK 927      BINDING AFFINITY PREDICTED BY RF-SCORE:    0.00 PKD
ROOT
HETATM    1  N   UNK     1      -8.726  19.114  66.157  1.00  0.00    -0.450 NA 
HETATM    2  C   UNK     1      -8.794  18.058  67.218  1.00  0.00    -0.247 C  
HETATM    3  H1  UNK     1      -8.839  20.062  66.514  1.00  0.00     0.000 HD 
HETATM    4  H2  UNK     1      -9.403  18.925  65.417  1.00  0.00     0.000 HD 
HETATM    5  C   UNK     1      -7.714  18.364  68.263  1.00  0.00    -0.293 C  
HETATM    6  O   UNK     1      -7.222  17.555  69.031  1.00  0.00    -0.251 OA 
HETATM    7  O   UNK     1      -7.387  19.684  68.250  1.00  0.00    -0.296 OA 
ENDROOT
BRANCH   2   8
HETATM    8  C   UNK     1      -8.624  16.631  66.680  1.00  0.00    -0.258 C  
BRANCH   8   9
HETATM    9  S   UNK     1     -10.231  15.747  66.678  1.00  0.00    -0.295 SA 
BRANCH   9  10
HETATM   10  C   UNK     1     -10.922  16.425  68.232  1.00  0.00    -0.355 C  
HETATM   11  C   UNK     1     -11.699  15.386  69.020  1.00  0.00    -0.361 C  
HETATM   12  O   UNK     1     -12.214  15.625  70.105  1.00  0.00    -0.379 OA 
HETATM   13  O   UNK     1     -11.791  14.168  68.440  1.00  0.00    -0.330 OA 
ENDBRANCH   9  10
ENDBRANCH   8   9
ENDBRANCH   2   8
TORSDOF 3
ENDMDL
MODEL      142
REMARK 921   NORMALIZED FREE ENERGY PREDICTED BY IDOCK:   -2.77 KCAL/MOL
REMARK 922        TOTAL FREE ENERGY PREDICTED BY IDOCK:   -3.69 KCAL/MOL
REMARK 923 INTER-LIGAND FREE ENERGY PREDICTED BY IDOCK:   -3.54 KCAL/MOL
REMARK 924 INTRA-LIGAND FREE ENERGY PREDICTED BY IDOCK:   -0.15 KCAL/MOL
REMARK 927      BINDING AFFINITY PREDICTED BY RF-SCORE:    0.00 PKD
ROOT
HETATM    1  N   UNK     1     -11.840   9.495  69.947  1.00  0.00    -0.449 NA 
HETATM    2  C   UNK     1     -11.824  10.905  70.453  1.00  0.00    -0.357 C  
HETATM    3  H1  UNK     1     -11.650   8.799  70.667  1.00  0.00     0.000 HD 
HETATM    4  H2  UNK     1     -11.196   9.387  69.163  1.00  0.00     0.000 HD 
HETATM    5  C   UNK     1     -12.855  11.016  71.584  1.00  0.00    -0.435 C  
HETATM    6  O   UNK     1     -13.387  12.047  71.960  1.00  0.00    -0.495 OA 
HETATM    7  O   UNK     1     -13.085   9.801  72.150  1.00  0.00    -0.424 OA 
ENDROOT
BRANCH   2   8
HETATM    8  C   UNK     1     -12.110  11.954  69.369  1.00  0.00    -0.216 C  
BRANCH   8   9
HETATM    9  S   UNK     1     -10.563  12.424  68.504  1.00  0.00    -0.222 SA 
BRANCH   9  10
HETATM   10  C   UNK     1     -10.943  11.723  66.856  1.00  0.00    -0.285 C  
HETATM   11  C   UNK     1      -9.912  10.702  66.410  1.00  0.00    -0.222 C  
HETATM   12  O   UNK     1      -9.998  10.091  65.353  1.00  0.00    -0.297 OA 
HETATM   13  O   UNK     1      -8.880  10.510  67.263  1.00  0.00    -0.135 OA 
ENDBRANCH   9  10
ENDBRANCH   8   9
ENDBRANCH   2   8
TORSDOF 3
ENDMDL
MODEL      143
REMARK 921   NORMALIZED FREE ENERGY PREDICTED BY IDOCK:   -2.76 KCAL/MOL
REMARK 922        TOTAL FREE ENERGY PREDICTED BY IDOCK:   -3.67 KCAL/MOL
REMARK 923 INTER-LIGAND FREE ENERGY PREDICTED BY IDOCK:   -3.27 KCAL/MOL
REMARK 924 INTRA-LIGAND FREE ENERGY PREDICTED BY IDOCK:   -0.41 KCAL/MOL
REMARK 927      BINDING AFFINITY PREDICTED BY RF-SCORE:    0.00 PKD
ROOT
HETATM    1  N   UNK     1     -11.588   4.574  64.975  1.00  0.00    -1.039 NA 
HETATM    2  C   UNK     1     -10.188   4.056  64.849  1.00  0.00    -0.200 C  
HETATM    3  H1  UNK     1     -12.052   4.722  64.079  1.00  0.00     0.000 HD 
HETATM    4  H2  UNK     1     -11.607   5.427  65.535  1.00  0.00     0.000 HD 
HETATM    5  C   UNK     1     -10.237   2.745  64.054  1.00  0.00    -0.100 C  
HETATM    6  O   UNK     1      -9.391   1.866  64.082  1.00  0.00    -0.116 OA 
HETATM    7  O   UNK     1     -11.347   2.695  63.270  1.00  0.00    -0.302 OA 
ENDROOT
BRANCH   2   8
HETATM    8  C   UNK     1      -9.488   3.833  66.197  1.00  0.00    -0.175 C  
BRANCH   8   9
HETATM    9  S   UNK     1      -8.719   5.390  66.788  1.00  0.00    -0.113 SA 
BRANCH   9  10
HETATM   10  C   UNK     1      -9.486   5.466  68.449  1.00  0.00    -0.123 C  
HETATM   11  C   UNK     1     -10.837   6.158  68.429  1.00  0.00    -0.305 C  
HETATM   12  O   UNK     1     -11.532   6.284  69.430  1.00  0.00    -0.427 OA 
HETATM   13  O   UNK     1     -11.227   6.634  67.226  1.00  0.00    -0.366 OA 
ENDBRANCH   9  10
ENDBRANCH   8   9
ENDBRANCH   2   8
TORSDOF 3
ENDMDL
MODEL      144
REMARK 921   NORMALIZED FREE ENERGY PREDICTED BY IDOCK:   -2.76 KCAL/MOL
REMARK 922        TOTAL FREE ENERGY PREDICTED BY IDOCK:   -3.67 KCAL/MOL
REMARK 923 INTER-LIGAND FREE ENERGY PREDICTED BY IDOCK:   -3.55 KCAL/MOL
REMARK 924 INTRA-LIGAND FREE ENERGY PREDICTED BY IDOCK:   -0.13 KCAL/MOL
REMARK 927      BINDING AFFINITY PREDICTED BY RF-SCORE:    0.00 PKD
ROOT
HETATM    1  N   UNK     1     -11.012   8.871  67.628  1.00  0.00    -0.475 NA 
HETATM    2  C   UNK     1     -11.066  10.366  67.703  1.00  0.00    -0.293 C  
HETATM    3  H1  UNK     1     -11.391   8.490  66.762  1.00  0.00     0.000 HD 
HETATM    4  H2  UNK     1     -11.474   8.453  68.437  1.00  0.00     0.000 HD 
HETATM    5  C   UNK     1     -10.303  10.930  66.498  1.00  0.00    -0.247 C  
HETATM    6  O   UNK     1      -9.813  12.045  66.427  1.00  0.00    -0.210 OA 
HETATM    7  O   UNK     1     -10.265  10.026  65.482  1.00  0.00    -0.280 OA 
ENDROOT
BRANCH   2   8
HETATM    8  C   UNK     1     -10.496  10.940  69.008  1.00  0.00    -0.219 C  
BRANCH   8   9
HETATM    9  S   UNK     1     -10.460   9.654  70.315  1.00  0.00    -0.303 SA 
BRANCH   9  10
HETATM   10  C   UNK     1     -11.935  10.180  71.263  1.00  0.00    -0.382 C  
HETATM   11  C   UNK     1     -12.799   9.006  71.687  1.00  0.00    -0.359 C  
HETATM   12  O   UNK     1     -13.814   9.138  72.359  1.00  0.00    -0.469 OA 
HETATM   13  O   UNK     1     -12.373   7.793  71.268  1.00  0.00    -0.310 OA 
ENDBRANCH   9  10
ENDBRANCH   8   9
ENDBRANCH   2   8
TORSDOF 3
ENDMDL
MODEL      145
REMARK 921   NORMALIZED FREE ENERGY PREDICTED BY IDOCK:   -2.75 KCAL/MOL
REMARK 922        TOTAL FREE ENERGY PREDICTED BY IDOCK:   -3.66 KCAL/MOL
REMARK 923 INTER-LIGAND FREE ENERGY PREDICTED BY IDOCK:   -3.50 KCAL/MOL
REMARK 924 INTRA-LIGAND FREE ENERGY PREDICTED BY IDOCK:   -0.16 KCAL/MOL
REMARK 927      BINDING AFFINITY PREDICTED BY RF-SCORE:    0.00 PKD
ROOT
HETATM    1  N   UNK     1     -11.535   6.520  68.151  1.00  0.00    -0.579 NA 
HETATM    2  C   UNK     1     -10.977   7.068  69.429  1.00  0.00    -0.201 C  
HETATM    3  H1  UNK     1     -11.463   7.163  67.363  1.00  0.00     0.000 HD 
HETATM    4  H2  UNK     1     -12.500   6.216  68.281  1.00  0.00     0.000 HD 
HETATM    5  C   UNK     1      -9.510   7.446  69.183  1.00  0.00    -0.149 C  
HETATM    6  O   UNK     1      -8.652   7.552  70.043  1.00  0.00    -0.136 OA 
HETATM    7  O   UNK     1      -9.286   7.685  67.863  1.00  0.00    -0.137 OA 
ENDROOT
BRANCH   2   8
HETATM    8  C   UNK     1     -11.085   6.100  70.615  1.00  0.00    -0.317 C  
BRANCH   8   9
HETATM    9  S   UNK     1     -12.208   6.776  71.897  1.00  0.00    -0.308 SA 
BRANCH   9  10
HETATM   10  C   UNK     1     -11.921   8.561  71.605  1.00  0.00    -0.316 C  
HETATM   11  C   UNK     1     -13.098   9.414  72.043  1.00  0.00    -0.433 C  
HETATM   12  O   UNK     1     -13.096  10.636  71.966  1.00  0.00    -0.481 OA 
HETATM   13  O   UNK     1     -14.160   8.732  72.527  1.00  0.00    -0.440 OA 
ENDBRANCH   9  10
ENDBRANCH   8   9
ENDBRANCH   2   8
TORSDOF 3
ENDMDL
MODEL      146
REMARK 921   NORMALIZED FREE ENERGY PREDICTED BY IDOCK:   -2.75 KCAL/MOL
REMARK 922        TOTAL FREE ENERGY PREDICTED BY IDOCK:   -3.66 KCAL/MOL
REMARK 923 INTER-LIGAND FREE ENERGY PREDICTED BY IDOCK:   -3.21 KCAL/MOL
REMARK 924 INTRA-LIGAND FREE ENERGY PREDICTED BY IDOCK:   -0.45 KCAL/MOL
REMARK 927      BINDING AFFINITY PREDICTED BY RF-SCORE:    0.00 PKD
ROOT
HETATM    1  N   UNK     1     -11.127   9.672  71.090  1.00  0.00    -0.359 NA 
HETATM    2  C   UNK     1     -12.273   8.738  71.330  1.00  0.00    -0.309 C  
HETATM    3  H1  UNK     1     -11.375  10.493  70.538  1.00  0.00     0.000 HD 
HETATM    4  H2  UNK     1     -10.342   9.178  70.666  1.00  0.00     0.000 HD 
HETATM    5  C   UNK     1     -13.391   9.526  72.025  1.00  0.00    -0.452 C  
HETATM    6  O   UNK     1     -14.282   9.043  72.703  1.00  0.00    -0.574 OA 
HETATM    7  O   UNK     1     -13.282  10.856  71.761  1.00  0.00    -0.444 OA 
ENDROOT
BRANCH   2   8
HETATM    8  C   UNK     1     -11.899   7.502  72.161  1.00  0.00    -0.298 C  
BRANCH   8   9
HETATM    9  S   UNK     1     -10.092   7.459  72.472  1.00  0.00    -0.208 SA 
BRANCH   9  10
HETATM   10  C   UNK     1      -9.631   6.171  71.256  1.00  0.00    -0.171 C  
HETATM   11  C   UNK     1      -8.972   6.753  70.019  1.00  0.00    -0.141 C  
HETATM   12  O   UNK     1      -8.557   6.059  69.099  1.00  0.00    -0.116 OA 
HETATM   13  O   UNK     1      -8.872   8.101  69.996  1.00  0.00    -0.137 OA 
ENDBRANCH   9  10
ENDBRANCH   8   9
ENDBRANCH   2   8
TORSDOF 3
ENDMDL
MODEL      147
REMARK 921   NORMALIZED FREE ENERGY PREDICTED BY IDOCK:   -2.69 KCAL/MOL
REMARK 922        TOTAL FREE ENERGY PREDICTED BY IDOCK:   -3.60 KCAL/MOL
REMARK 923 INTER-LIGAND FREE ENERGY PREDICTED BY IDOCK:   -3.42 KCAL/MOL
REMARK 924 INTRA-LIGAND FREE ENERGY PREDICTED BY IDOCK:   -0.18 KCAL/MOL
REMARK 927      BINDING AFFINITY PREDICTED BY RF-SCORE:    0.00 PKD
ROOT
HETATM    1  N   UNK     1      -8.055   9.047  71.744  1.00  0.00    -0.350 NA 
HETATM    2  C   UNK     1      -9.385   8.590  72.260  1.00  0.00    -0.293 C  
HETATM    3  H1  UNK     1      -7.567   9.684  72.373  1.00  0.00     0.000 HD 
HETATM    4  H2  UNK     1      -8.151   9.461  70.817  1.00  0.00     0.000 HD 
HETATM    5  C   UNK     1      -9.162   7.923  73.624  1.00  0.00    -0.255 C  
HETATM    6  O   UNK     1      -9.911   7.117  74.149  1.00  0.00    -0.301 OA 
HETATM    7  O   UNK     1      -8.018   8.375  74.203  1.00  0.00    -0.292 OA 
ENDROOT
BRANCH   2   8
HETATM    8  C   UNK     1     -10.118   7.630  71.313  1.00  0.00    -0.186 C  
BRANCH   8   9
HETATM    9  S   UNK     1     -11.309   8.547  70.263  1.00  0.00    -0.054 SA 
BRANCH   9  10
HETATM   10  C   UNK     1     -12.290   9.346  71.587  1.00  0.00    -0.385 C  
HETATM   11  C   UNK     1     -13.583   8.604  71.875  1.00  0.00    -0.410 C  
HETATM   12  O   UNK     1     -14.367   8.954  72.748  1.00  0.00    -0.600 OA 
HETATM   13  O   UNK     1     -13.817   7.524  71.096  1.00  0.00    -0.294 OA 
ENDBRANCH   9  10
ENDBRANCH   8   9
ENDBRANCH   2   8
TORSDOF 3
ENDMDL
MODEL      148
REMARK 921   NORMALIZED FREE ENERGY PREDICTED BY IDOCK:   -2.69 KCAL/MOL
REMARK 922        TOTAL FREE ENERGY PREDICTED BY IDOCK:   -3.59 KCAL/MOL
REMARK 923 INTER-LIGAND FREE ENERGY PREDICTED BY IDOCK:   -3.45 KCAL/MOL
REMARK 924 INTRA-LIGAND FREE ENERGY PREDICTED BY IDOCK:   -0.14 KCAL/MOL
REMARK 927      BINDING AFFINITY PREDICTED BY RF-SCORE:    0.00 PKD
ROOT
HETATM    1  N   UNK     1     -11.043  14.784  64.505  1.00  0.00    -0.622 NA 
HETATM    2  C   UNK     1     -12.012  14.074  65.401  1.00  0.00    -0.380 C  
HETATM    3  H1  UNK     1     -11.053  15.798  64.611  1.00  0.00     0.000 HD 
HETATM    4  H2  UNK     1     -11.196  14.523  63.531  1.00  0.00     0.000 HD 
HETATM    5  C   UNK     1     -11.688  14.460  66.850  1.00  0.00    -0.402 C  
HETATM    6  O   UNK     1     -11.987  13.812  67.840  1.00  0.00    -0.362 OA 
HETATM    7  O   UNK     1     -11.040  15.654  66.901  1.00  0.00    -0.287 OA 
ENDROOT
BRANCH   2   8
HETATM    8  C   UNK     1     -11.997  12.548  65.241  1.00  0.00    -0.438 C  
BRANCH   8   9
HETATM    9  S   UNK     1     -10.273  11.928  65.148  1.00  0.00    -0.284 SA 
BRANCH   9  10
HETATM   10  C   UNK     1     -10.161  11.166  66.809  1.00  0.00    -0.232 C  
HETATM   11  C   UNK     1      -8.810  11.398  67.461  1.00  0.00    -0.146 C  
HETATM   12  O   UNK     1      -8.541  11.000  68.587  1.00  0.00    -0.147 OA 
HETATM   13  O   UNK     1      -7.913  12.076  66.710  1.00  0.00    -0.145 OA 
ENDBRANCH   9  10
ENDBRANCH   8   9
ENDBRANCH   2   8
TORSDOF 3
ENDMDL
MODEL      149
REMARK 921   NORMALIZED FREE ENERGY PREDICTED BY IDOCK:   -2.68 KCAL/MOL
REMARK 922        TOTAL FREE ENERGY PREDICTED BY IDOCK:   -3.58 KCAL/MOL
REMARK 923 INTER-LIGAND FREE ENERGY PREDICTED BY IDOCK:   -3.50 KCAL/MOL
REMARK 924 INTRA-LIGAND FREE ENERGY PREDICTED BY IDOCK:   -0.08 KCAL/MOL
REMARK 927      BINDING AFFINITY PREDICTED BY RF-SCORE:    0.00 PKD
ROOT
HETATM    1  N   UNK     1      -6.917  17.216  67.434  1.00  0.00    -0.149 NA 
HETATM    2  C   UNK     1      -8.021  16.203  67.433  1.00  0.00    -0.160 C  
HETATM    3  H1  UNK     1      -6.391  17.249  68.307  1.00  0.00     0.000 HD 
HETATM    4  H2  UNK     1      -7.276  18.141  67.195  1.00  0.00     0.000 HD 
HETATM    5  C   UNK     1      -7.407  14.831  67.736  1.00  0.00    -0.170 C  
HETATM    6  O   UNK     1      -7.901  13.754  67.446  1.00  0.00    -0.168 OA 
HETATM    7  O   UNK     1      -6.233  14.963  68.410  1.00  0.00    -0.090 OA 
ENDROOT
BRANCH   2   8
HETATM    8  C   UNK     1      -8.813  16.153  66.119  1.00  0.00    -0.332 C  
BRANCH   8   9
HETATM    9  S   UNK     1     -10.578  15.780  66.445  1.00  0.00    -0.286 SA 
BRANCH   9  10
HETATM   10  C   UNK     1     -11.118  15.466  64.723  1.00  0.00    -0.403 C  
HETATM   11  C   UNK     1     -12.232  14.439  64.645  1.00  0.00    -0.464 C  
HETATM   12  O   UNK     1     -12.759  14.110  63.590  1.00  0.00    -0.790 OA 
HETATM   13  O   UNK     1     -12.609  13.901  65.828  1.00  0.00    -0.491 OA 
ENDBRANCH   9  10
ENDBRANCH   8   9
ENDBRANCH   2   8
TORSDOF 3
ENDMDL
MODEL      150
REMARK 921   NORMALIZED FREE ENERGY PREDICTED BY IDOCK:   -2.68 KCAL/MOL
REMARK 922        TOTAL FREE ENERGY PREDICTED BY IDOCK:   -3.58 KCAL/MOL
REMARK 923 INTER-LIGAND FREE ENERGY PREDICTED BY IDOCK:   -3.21 KCAL/MOL
REMARK 924 INTRA-LIGAND FREE ENERGY PREDICTED BY IDOCK:   -0.36 KCAL/MOL
REMARK 927      BINDING AFFINITY PREDICTED BY RF-SCORE:    0.00 PKD
ROOT
HETATM    1  N   UNK     1     -11.150   9.187  68.735  1.00  0.00    -0.447 NA 
HETATM    2  C   UNK     1     -10.784   8.442  67.488  1.00  0.00    -0.137 C  
HETATM    3  H1  UNK     1     -11.848   8.711  69.307  1.00  0.00     0.000 HD 
HETATM    4  H2  UNK     1     -11.453  10.135  68.513  1.00  0.00     0.000 HD 
HETATM    5  C   UNK     1     -10.280   7.052  67.895  1.00  0.00    -0.183 C  
HETATM    6  O   UNK     1      -9.556   6.335  67.224  1.00  0.00    -0.119 OA 
HETATM    7  O   UNK     1     -10.775   6.693  69.110  1.00  0.00    -0.222 OA 
ENDROOT
BRANCH   2   8
HETATM    8  C   UNK     1      -9.733   9.157  66.628  1.00  0.00    -0.223 C  
BRANCH   8   9
HETATM    9  S   UNK     1      -9.595  10.920  67.115  1.00  0.00    -0.166 SA 
BRANCH   9  10
HETATM   10  C   UNK     1     -10.580  11.660  65.761  1.00  0.00    -0.271 C  
HETATM   11  C   UNK     1     -11.887  12.254  66.256  1.00  0.00    -0.317 C  
HETATM   12  O   UNK     1     -12.677  12.827  65.517  1.00  0.00    -0.595 OA 
HETATM   13  O   UNK     1     -12.127  12.105  67.578  1.00  0.00    -0.534 OA 
ENDBRANCH   9  10
ENDBRANCH   8   9
ENDBRANCH   2   8
TORSDOF 3
ENDMDL
MODEL      151
REMARK 921   NORMALIZED FREE ENERGY PREDICTED BY IDOCK:   -2.68 KCAL/MOL
REMARK 922        TOTAL FREE ENERGY PREDICTED BY IDOCK:   -3.58 KCAL/MOL
REMARK 923 INTER-LIGAND FREE ENERGY PREDICTED BY IDOCK:   -3.47 KCAL/MOL
REMARK 924 INTRA-LIGAND FREE ENERGY PREDICTED BY IDOCK:   -0.11 KCAL/MOL
REMARK 927      BINDING AFFINITY PREDICTED BY RF-SCORE:    0.00 PKD
ROOT
HETATM    1  N   UNK     1      -8.976  19.718  67.814  1.00  0.00    -0.320 NA 
HETATM    2  C   UNK     1      -7.988  18.607  67.625  1.00  0.00    -0.246 C  
HETATM    3  H1  UNK     1      -8.570  20.648  67.717  1.00  0.00     0.000 HD 
HETATM    4  H2  UNK     1      -9.454  19.626  68.711  1.00  0.00     0.000 HD 
HETATM    5  C   UNK     1      -7.354  18.767  66.238  1.00  0.00    -0.256 C  
HETATM    6  O   UNK     1      -6.820  17.878  65.595  1.00  0.00    -0.381 OA 
HETATM    7  O   UNK     1      -7.432  20.057  65.815  1.00  0.00    -0.324 OA 
ENDROOT
BRANCH   2   8
HETATM    8  C   UNK     1      -8.598  17.207  67.772  1.00  0.00    -0.216 C  
BRANCH   8   9
HETATM    9  S   UNK     1     -10.429  17.292  67.710  1.00  0.00    -0.368 SA 
BRANCH   9  10
HETATM   10  C   UNK     1     -10.765  15.608  67.075  1.00  0.00    -0.314 C  
HETATM   11  C   UNK     1     -11.644  14.802  68.013  1.00  0.00    -0.343 C  
HETATM   12  O   UNK     1     -12.014  13.662  67.759  1.00  0.00    -0.363 OA 
HETATM   13  O   UNK     1     -11.993  15.426  69.160  1.00  0.00    -0.335 OA 
ENDBRANCH   9  10
ENDBRANCH   8   9
ENDBRANCH   2   8
TORSDOF 3
ENDMDL
MODEL      152
REMARK 921   NORMALIZED FREE ENERGY PREDICTED BY IDOCK:   -2.68 KCAL/MOL
REMARK 922        TOTAL FREE ENERGY PREDICTED BY IDOCK:   -3.58 KCAL/MOL
REMARK 923 INTER-LIGAND FREE ENERGY PREDICTED BY IDOCK:   -3.37 KCAL/MOL
REMARK 924 INTRA-LIGAND FREE ENERGY PREDICTED BY IDOCK:   -0.21 KCAL/MOL
REMARK 927      BINDING AFFINITY PREDICTED BY RF-SCORE:    0.00 PKD
ROOT
HETATM    1  N   UNK     1     -12.026  10.926  68.054  1.00  0.00    -0.777 NA 
HETATM    2  C   UNK     1     -11.415  12.294  68.065  1.00  0.00    -0.321 C  
HETATM    3  H1  UNK     1     -11.583  10.274  68.701  1.00  0.00     0.000 HD 
HETATM    4  H2  UNK     1     -12.036  10.544  67.108  1.00  0.00     0.000 HD 
HETATM    5  C   UNK     1     -11.489  12.836  69.498  1.00  0.00    -0.225 C  
HETATM    6  O   UNK     1     -11.454  14.014  69.813  1.00  0.00    -0.258 OA 
HETATM    7  O   UNK     1     -11.568  11.819  70.397  1.00  0.00    -0.237 OA 
ENDROOT
BRANCH   2   8
HETATM    8  C   UNK     1     -12.081  13.276  67.091  1.00  0.00    -0.298 C  
BRANCH   8   9
HETATM    9  S   UNK     1     -11.398  13.070  65.401  1.00  0.00    -0.307 SA 
BRANCH   9  10
HETATM   10  C   UNK     1      -9.701  12.551  65.849  1.00  0.00    -0.219 C  
HETATM   11  C   UNK     1      -9.366  11.163  65.335  1.00  0.00    -0.219 C  
HETATM   12  O   UNK     1      -8.270  10.642  65.498  1.00  0.00    -0.160 OA 
HETATM   13  O   UNK     1     -10.366  10.530  64.682  1.00  0.00    -0.344 OA 
ENDBRANCH   9  10
ENDBRANCH   8   9
ENDBRANCH   2   8
TORSDOF 3
ENDMDL
MODEL      153
REMARK 921   NORMALIZED FREE ENERGY PREDICTED BY IDOCK:   -2.67 KCAL/MOL
REMARK 922        TOTAL FREE ENERGY PREDICTED BY IDOCK:   -3.57 KCAL/MOL
REMARK 923 INTER-LIGAND FREE ENERGY PREDICTED BY IDOCK:   -3.38 KCAL/MOL
REMARK 924 INTRA-LIGAND FREE ENERGY PREDICTED BY IDOCK:   -0.20 KCAL/MOL
REMARK 927      BINDING AFFINITY PREDICTED BY RF-SCORE:    0.00 PKD
ROOT
HETATM    1  N   UNK     1     -12.522  14.472  68.452  1.00  0.00    -0.531 NA 
HETATM    2  C   UNK     1     -11.977  14.119  67.101  1.00  0.00    -0.426 C  
HETATM    3  H1  UNK     1     -13.342  13.929  68.718  1.00  0.00     0.000 HD 
HETATM    4  H2  UNK     1     -12.718  15.471  68.512  1.00  0.00     0.000 HD 
HETATM    5  C   UNK     1     -11.646  12.621  67.099  1.00  0.00    -0.368 C  
HETATM    6  O   UNK     1     -10.856  12.071  66.350  1.00  0.00    -0.256 OA 
HETATM    7  O   UNK     1     -12.380  11.961  68.035  1.00  0.00    -0.363 OA 
ENDROOT
BRANCH   2   8
HETATM    8  C   UNK     1     -10.742  14.937  66.701  1.00  0.00    -0.312 C  
BRANCH   8   9
HETATM    9  S   UNK     1      -9.765  15.395  68.183  1.00  0.00    -0.213 SA 
BRANCH   9  10
HETATM   10  C   UNK     1      -8.491  14.083  68.092  1.00  0.00    -0.172 C  
HETATM   11  C   UNK     1      -7.198  14.576  67.469  1.00  0.00    -0.187 C  
HETATM   12  O   UNK     1      -6.208  13.866  67.346  1.00  0.00    -0.335 OA 
HETATM   13  O   UNK     1      -7.209  15.862  67.052  1.00  0.00    -0.213 OA 
ENDBRANCH   9  10
ENDBRANCH   8   9
ENDBRANCH   2   8
TORSDOF 3
ENDMDL
MODEL      154
REMARK 921   NORMALIZED FREE ENERGY PREDICTED BY IDOCK:   -2.67 KCAL/MOL
REMARK 922        TOTAL FREE ENERGY PREDICTED BY IDOCK:   -3.57 KCAL/MOL
REMARK 923 INTER-LIGAND FREE ENERGY PREDICTED BY IDOCK:   -3.43 KCAL/MOL
REMARK 924 INTRA-LIGAND FREE ENERGY PREDICTED BY IDOCK:   -0.14 KCAL/MOL
REMARK 927      BINDING AFFINITY PREDICTED BY RF-SCORE:    0.00 PKD
ROOT
HETATM    1  N   UNK     1     -13.148  14.650  70.347  1.00  0.00    -0.562 NA 
HETATM    2  C   UNK     1     -11.837  14.836  69.645  1.00  0.00    -0.319 C  
HETATM    3  H1  UNK     1     -13.069  14.620  71.363  1.00  0.00     0.000 HD 
HETATM    4  H2  UNK     1     -13.628  13.820  69.999  1.00  0.00     0.000 HD 
HETATM    5  C   UNK     1     -11.199  16.130  70.167  1.00  0.00    -0.370 C  
HETATM    6  O   UNK     1     -10.359  16.792  69.581  1.00  0.00    -0.250 OA 
HETATM    7  O   UNK     1     -11.672  16.439  71.404  1.00  0.00    -0.425 OA 
ENDROOT
BRANCH   2   8
HETATM    8  C   UNK     1     -11.957  14.881  68.116  1.00  0.00    -0.202 C  
BRANCH   8   9
HETATM    9  S   UNK     1     -10.666  13.836  67.338  1.00  0.00    -0.277 SA 
BRANCH   9  10
HETATM   10  C   UNK     1     -11.529  12.223  67.419  1.00  0.00    -0.352 C  
HETATM   11  C   UNK     1     -10.589  11.053  67.197  1.00  0.00    -0.250 C  
HETATM   12  O   UNK     1     -10.958   9.887  67.244  1.00  0.00    -0.251 OA 
HETATM   13  O   UNK     1      -9.303  11.384  66.938  1.00  0.00    -0.175 OA 
ENDBRANCH   9  10
ENDBRANCH   8   9
ENDBRANCH   2   8
TORSDOF 3
ENDMDL
MODEL      155
REMARK 921   NORMALIZED FREE ENERGY PREDICTED BY IDOCK:   -2.66 KCAL/MOL
REMARK 922        TOTAL FREE ENERGY PREDICTED BY IDOCK:   -3.55 KCAL/MOL
REMARK 923 INTER-LIGAND FREE ENERGY PREDICTED BY IDOCK:   -3.40 KCAL/MOL
REMARK 924 INTRA-LIGAND FREE ENERGY PREDICTED BY IDOCK:   -0.15 KCAL/MOL
REMARK 927      BINDING AFFINITY PREDICTED BY RF-SCORE:    0.00 PKD
ROOT
HETATM    1  N   UNK     1      -9.628   6.371  70.843  1.00  0.00    -0.175 NA 
HETATM    2  C   UNK     1      -9.992   6.261  72.292  1.00  0.00    -0.165 C  
HETATM    3  H1  UNK     1      -8.913   5.707  70.548  1.00  0.00     0.000 HD 
HETATM    4  H2  UNK     1      -9.349   7.325  70.613  1.00  0.00     0.000 HD 
HETATM    5  C   UNK     1     -10.461   4.825  72.556  1.00  0.00    -0.203 C  
HETATM    6  O   UNK     1     -11.176   4.471  73.479  1.00  0.00    -0.305 OA 
HETATM    7  O   UNK     1      -9.944   3.969  71.635  1.00  0.00    -0.183 OA 
ENDROOT
BRANCH   2   8
HETATM    8  C   UNK     1     -11.068   7.262  72.736  1.00  0.00    -0.319 C  
BRANCH   8   9
HETATM    9  S   UNK     1     -12.233   7.605  71.362  1.00  0.00    -0.330 SA 
BRANCH   9  10
HETATM   10  C   UNK     1     -13.188   8.960  72.140  1.00  0.00    -0.429 C  
HETATM   11  C   UNK     1     -12.712  10.331  71.695  1.00  0.00    -0.456 C  
HETATM   12  O   UNK     1     -13.238  11.370  72.072  1.00  0.00    -0.503 OA 
HETATM   13  O   UNK     1     -11.656  10.332  70.850  1.00  0.00    -0.337 OA 
ENDBRANCH   9  10
ENDBRANCH   8   9
ENDBRANCH   2   8
TORSDOF 3
ENDMDL
MODEL      156
REMARK 921   NORMALIZED FREE ENERGY PREDICTED BY IDOCK:   -2.63 KCAL/MOL
REMARK 922        TOTAL FREE ENERGY PREDICTED BY IDOCK:   -3.52 KCAL/MOL
REMARK 923 INTER-LIGAND FREE ENERGY PREDICTED BY IDOCK:   -3.40 KCAL/MOL
REMARK 924 INTRA-LIGAND FREE ENERGY PREDICTED BY IDOCK:   -0.12 KCAL/MOL
REMARK 927      BINDING AFFINITY PREDICTED BY RF-SCORE:    0.00 PKD
ROOT
HETATM    1  N   UNK     1     -11.408  11.957  69.870  1.00  0.00    -0.505 NA 
HETATM    2  C   UNK     1     -10.379  11.281  69.015  1.00  0.00    -0.166 C  
HETATM    3  H1  UNK     1     -11.846  12.763  69.425  1.00  0.00     0.000 HD 
HETATM    4  H2  UNK     1     -11.011  12.216  70.774  1.00  0.00     0.000 HD 
HETATM    5  C   UNK     1     -11.054  10.862  67.703  1.00  0.00    -0.313 C  
HETATM    6  O   UNK     1     -10.663   9.981  66.955  1.00  0.00    -0.234 OA 
HETATM    7  O   UNK     1     -12.147  11.630  67.453  1.00  0.00    -0.605 OA 
ENDROOT
BRANCH   2   8
HETATM    8  C   UNK     1      -9.719  10.068  69.685  1.00  0.00    -0.229 C  
BRANCH   8   9
HETATM    9  S   UNK     1     -10.912   9.213  70.785  1.00  0.00    -0.294 SA 
BRANCH   9  10
HETATM   10  C   UNK     1     -10.071   7.590  70.897  1.00  0.00    -0.191 C  
HETATM   11  C   UNK     1     -11.046   6.449  71.124  1.00  0.00    -0.291 C  
HETATM   12  O   UNK     1     -10.693   5.279  71.194  1.00  0.00    -0.206 OA 
HETATM   13  O   UNK     1     -12.343   6.811  71.247  1.00  0.00    -0.363 OA 
ENDBRANCH   9  10
ENDBRANCH   8   9
ENDBRANCH   2   8
TORSDOF 3
ENDMDL
MODEL      157
REMARK 921   NORMALIZED FREE ENERGY PREDICTED BY IDOCK:   -2.62 KCAL/MOL
REMARK 922        TOTAL FREE ENERGY PREDICTED BY IDOCK:   -3.51 KCAL/MOL
REMARK 923 INTER-LIGAND FREE ENERGY PREDICTED BY IDOCK:   -3.39 KCAL/MOL
REMARK 924 INTRA-LIGAND FREE ENERGY PREDICTED BY IDOCK:   -0.12 KCAL/MOL
REMARK 927      BINDING AFFINITY PREDICTED BY RF-SCORE:    0.00 PKD
ROOT
HETATM    1  N   UNK     1     -10.930   7.092  66.758  1.00  0.00    -0.561 NA 
HETATM    2  C   UNK     1     -10.355   7.887  67.891  1.00  0.00    -0.221 C  
HETATM    3  H1  UNK     1     -10.653   6.111  66.763  1.00  0.00     0.000 HD 
HETATM    4  H2  UNK     1     -10.703   7.526  65.863  1.00  0.00     0.000 HD 
HETATM    5  C   UNK     1     -10.784   7.220  69.204  1.00  0.00    -0.185 C  
HETATM    6  O   UNK     1     -10.841   7.769  70.292  1.00  0.00    -0.243 OA 
HETATM    7  O   UNK     1     -11.071   5.905  69.009  1.00  0.00    -0.336 OA 
ENDROOT
BRANCH   2   8
HETATM    8  C   UNK     1     -10.772   9.364  67.884  1.00  0.00    -0.210 C  
BRANCH   8   9
HETATM    9  S   UNK     1     -10.052  10.229  66.436  1.00  0.00    -0.229 SA 
BRANCH   9  10
HETATM   10  C   UNK     1      -9.955  11.916  67.140  1.00  0.00    -0.194 C  
HETATM   11  C   UNK     1     -11.199  12.735  66.850  1.00  0.00    -0.296 C  
HETATM   12  O   UNK     1     -11.351  13.879  67.260  1.00  0.00    -0.298 OA 
HETATM   13  O   UNK     1     -12.138  12.117  66.098  1.00  0.00    -0.621 OA 
ENDBRANCH   9  10
ENDBRANCH   8   9
ENDBRANCH   2   8
TORSDOF 3
ENDMDL
MODEL      158
REMARK 921   NORMALIZED FREE ENERGY PREDICTED BY IDOCK:   -2.61 KCAL/MOL
REMARK 922        TOTAL FREE ENERGY PREDICTED BY IDOCK:   -3.50 KCAL/MOL
REMARK 923 INTER-LIGAND FREE ENERGY PREDICTED BY IDOCK:   -3.27 KCAL/MOL
REMARK 924 INTRA-LIGAND FREE ENERGY PREDICTED BY IDOCK:   -0.23 KCAL/MOL
REMARK 927      BINDING AFFINITY PREDICTED BY RF-SCORE:    0.00 PKD
ROOT
HETATM    1  N   UNK     1      -7.832  17.227  68.415  1.00  0.00    -0.244 NA 
HETATM    2  C   UNK     1      -9.245  17.701  68.259  1.00  0.00    -0.283 C  
HETATM    3  H1  UNK     1      -7.163  17.733  67.835  1.00  0.00     0.000 HD 
HETATM    4  H2  UNK     1      -7.768  16.223  68.244  1.00  0.00     0.000 HD 
HETATM    5  C   UNK     1      -9.282  19.199  68.589  1.00  0.00    -0.380 C  
HETATM    6  O   UNK     1     -10.270  19.822  68.941  1.00  0.00    -0.443 OA 
HETATM    7  O   UNK     1      -8.060  19.766  68.408  1.00  0.00    -0.324 OA 
ENDROOT
BRANCH   2   8
HETATM    8  C   UNK     1     -10.252  16.939  69.131  1.00  0.00    -0.292 C  
BRANCH   8   9
HETATM    9  S   UNK     1     -11.209  15.747  68.117  1.00  0.00    -0.325 SA 
BRANCH   9  10
HETATM   10  C   UNK     1     -10.175  14.260  68.387  1.00  0.00    -0.245 C  
HETATM   11  C   UNK     1      -9.442  13.830  67.130  1.00  0.00    -0.244 C  
HETATM   12  O   UNK     1      -8.672  12.878  67.103  1.00  0.00    -0.195 OA 
HETATM   13  O   UNK     1      -9.698  14.571  66.028  1.00  0.00    -0.298 OA 
ENDBRANCH   9  10
ENDBRANCH   8   9
ENDBRANCH   2   8
TORSDOF 3
ENDMDL
MODEL      159
REMARK 921   NORMALIZED FREE ENERGY PREDICTED BY IDOCK:   -2.60 KCAL/MOL
REMARK 922        TOTAL FREE ENERGY PREDICTED BY IDOCK:   -3.49 KCAL/MOL
REMARK 923 INTER-LIGAND FREE ENERGY PREDICTED BY IDOCK:   -2.85 KCAL/MOL
REMARK 924 INTRA-LIGAND FREE ENERGY PREDICTED BY IDOCK:   -0.64 KCAL/MOL
REMARK 927      BINDING AFFINITY PREDICTED BY RF-SCORE:    0.00 PKD
ROOT
HETATM    1  N   UNK     1      -8.321   6.537  70.730  1.00  0.00    -0.128 NA 
HETATM    2  C   UNK     1      -9.504   5.679  70.395  1.00  0.00    -0.166 C  
HETATM    3  H1  UNK     1      -7.738   6.762  69.924  1.00  0.00     0.000 HD 
HETATM    4  H2  UNK     1      -7.764   6.109  71.469  1.00  0.00     0.000 HD 
HETATM    5  C   UNK     1     -10.331   6.406  69.327  1.00  0.00    -0.207 C  
HETATM    6  O   UNK     1     -11.514   6.219  69.098  1.00  0.00    -0.394 OA 
HETATM    7  O   UNK     1      -9.559   7.281  68.629  1.00  0.00    -0.141 OA 
ENDROOT
BRANCH   2   8
HETATM    8  C   UNK     1     -10.382   5.339  71.607  1.00  0.00    -0.216 C  
BRANCH   8   9
HETATM    9  S   UNK     1     -10.115   6.552  72.956  1.00  0.00    -0.204 SA 
BRANCH   9  10
HETATM   10  C   UNK     1     -11.485   7.704  72.570  1.00  0.00    -0.352 C  
HETATM   11  C   UNK     1     -11.004   8.959  71.865  1.00  0.00    -0.369 C  
HETATM   12  O   UNK     1     -11.764   9.842  71.490  1.00  0.00    -0.379 OA 
HETATM   13  O   UNK     1      -9.667   9.042  71.679  1.00  0.00    -0.300 OA 
ENDBRANCH   9  10
ENDBRANCH   8   9
ENDBRANCH   2   8
TORSDOF 3
ENDMDL
MODEL      160
REMARK 921   NORMALIZED FREE ENERGY PREDICTED BY IDOCK:   -2.59 KCAL/MOL
REMARK 922        TOTAL FREE ENERGY PREDICTED BY IDOCK:   -3.47 KCAL/MOL
REMARK 923 INTER-LIGAND FREE ENERGY PREDICTED BY IDOCK:   -3.06 KCAL/MOL
REMARK 924 INTRA-LIGAND FREE ENERGY PREDICTED BY IDOCK:   -0.41 KCAL/MOL
REMARK 927      BINDING AFFINITY PREDICTED BY RF-SCORE:    0.00 PKD
ROOT
HETATM    1  N   UNK     1     -10.846   6.237  72.343  1.00  0.00    -0.231 NA 
HETATM    2  C   UNK     1     -10.924   6.144  70.849  1.00  0.00    -0.297 C  
HETATM    3  H1  UNK     1     -11.158   5.393  72.823  1.00  0.00     0.000 HD 
HETATM    4  H2  UNK     1     -11.357   7.053  72.680  1.00  0.00     0.000 HD 
HETATM    5  C   UNK     1     -10.087   4.938  70.404  1.00  0.00    -0.245 C  
HETATM    6  O   UNK     1      -9.608   4.778  69.294  1.00  0.00    -0.142 OA 
HETATM    7  O   UNK     1      -9.967   4.032  71.412  1.00  0.00    -0.185 OA 
ENDROOT
BRANCH   2   8
HETATM    8  C   UNK     1     -10.453   7.413  70.126  1.00  0.00    -0.220 C  
BRANCH   8   9
HETATM    9  S   UNK     1      -9.944   8.692  71.337  1.00  0.00    -0.282 SA 
BRANCH   9  10
HETATM   10  C   UNK     1     -11.152   9.994  70.892  1.00  0.00    -0.314 C  
HETATM   11  C   UNK     1     -12.445   9.876  71.680  1.00  0.00    -0.415 C  
HETATM   12  O   UNK     1     -13.370  10.668  71.558  1.00  0.00    -0.347 OA 
HETATM   13  O   UNK     1     -12.510   8.829  72.532  1.00  0.00    -0.382 OA 
ENDBRANCH   9  10
ENDBRANCH   8   9
ENDBRANCH   2   8
TORSDOF 3
ENDMDL
MODEL      161
REMARK 921   NORMALIZED FREE ENERGY PREDICTED BY IDOCK:   -2.59 KCAL/MOL
REMARK 922        TOTAL FREE ENERGY PREDICTED BY IDOCK:   -3.47 KCAL/MOL
REMARK 923 INTER-LIGAND FREE ENERGY PREDICTED BY IDOCK:   -3.35 KCAL/MOL
REMARK 924 INTRA-LIGAND FREE ENERGY PREDICTED BY IDOCK:   -0.12 KCAL/MOL
REMARK 927      BINDING AFFINITY PREDICTED BY RF-SCORE:    0.00 PKD
ROOT
HETATM    1  N   UNK     1      -8.836  12.379  68.634  1.00  0.00    -0.378 NA 
HETATM    2  C   UNK     1      -9.873  11.398  68.178  1.00  0.00    -0.191 C  
HETATM    3  H1  UNK     1      -8.400  12.898  67.872  1.00  0.00     0.000 HD 
HETATM    4  H2  UNK     1      -8.129  11.916  69.204  1.00  0.00     0.000 HD 
HETATM    5  C   UNK     1     -10.936  12.166  67.382  1.00  0.00    -0.260 C  
HETATM    6  O   UNK     1     -12.084  11.799  67.194  1.00  0.00    -0.592 OA 
HETATM    7  O   UNK     1     -10.422  13.317  66.872  1.00  0.00    -0.258 OA 
ENDROOT
BRANCH   2   8
HETATM    8  C   UNK     1     -10.530  10.616  69.324  1.00  0.00    -0.227 C  
BRANCH   8   9
HETATM    9  S   UNK     1      -9.933   8.882  69.345  1.00  0.00    -0.198 SA 
BRANCH   9  10
HETATM   10  C   UNK     1     -11.108   8.199  70.572  1.00  0.00    -0.253 C  
HETATM   11  C   UNK     1     -10.573   8.278  71.990  1.00  0.00    -0.296 C  
HETATM   12  O   UNK     1     -11.216   7.906  72.963  1.00  0.00    -0.411 OA 
HETATM   13  O   UNK     1      -9.327   8.789  72.112  1.00  0.00    -0.284 OA 
ENDBRANCH   9  10
ENDBRANCH   8   9
ENDBRANCH   2   8
TORSDOF 3
ENDMDL
MODEL      162
REMARK 921   NORMALIZED FREE ENERGY PREDICTED BY IDOCK:   -2.59 KCAL/MOL
REMARK 922        TOTAL FREE ENERGY PREDICTED BY IDOCK:   -3.47 KCAL/MOL
REMARK 923 INTER-LIGAND FREE ENERGY PREDICTED BY IDOCK:   -3.03 KCAL/MOL
REMARK 924 INTRA-LIGAND FREE ENERGY PREDICTED BY IDOCK:   -0.44 KCAL/MOL
REMARK 927      BINDING AFFINITY PREDICTED BY RF-SCORE:    0.00 PKD
ROOT
HETATM    1  N   UNK     1     -10.049  16.515  66.415  1.00  0.00    -0.298 NA 
HETATM    2  C   UNK     1      -9.323  15.214  66.246  1.00  0.00    -0.313 C  
HETATM    3  H1  UNK     1     -10.810  16.648  65.750  1.00  0.00     0.000 HD 
HETATM    4  H2  UNK     1      -9.397  17.298  66.377  1.00  0.00     0.000 HD 
HETATM    5  C   UNK     1     -10.347  14.079  66.376  1.00  0.00    -0.289 C  
HETATM    6  O   UNK     1     -10.091  12.925  66.676  1.00  0.00    -0.236 OA 
HETATM    7  O   UNK     1     -11.599  14.519  66.079  1.00  0.00    -0.356 OA 
ENDROOT
BRANCH   2   8
HETATM    8  C   UNK     1      -8.177  15.013  67.247  1.00  0.00    -0.211 C  
BRANCH   8   9
HETATM    9  S   UNK     1      -8.593  15.772  68.864  1.00  0.00    -0.236 SA 
BRANCH   9  10
HETATM   10  C   UNK     1      -7.164  16.906  69.015  1.00  0.00    -0.232 C  
HETATM   11  C   UNK     1      -7.542  18.351  68.745  1.00  0.00    -0.275 C  
HETATM   12  O   UNK     1      -6.740  19.273  68.826  1.00  0.00    -0.275 OA 
HETATM   13  O   UNK     1      -8.834  18.557  68.402  1.00  0.00    -0.308 OA 
ENDBRANCH   9  10
ENDBRANCH   8   9
ENDBRANCH   2   8
TORSDOF 3
ENDMDL
MODEL      163
REMARK 921   NORMALIZED FREE ENERGY PREDICTED BY IDOCK:   -2.58 KCAL/MOL
REMARK 922        TOTAL FREE ENERGY PREDICTED BY IDOCK:   -3.47 KCAL/MOL
REMARK 923 INTER-LIGAND FREE ENERGY PREDICTED BY IDOCK:   -2.95 KCAL/MOL
REMARK 924 INTRA-LIGAND FREE ENERGY PREDICTED BY IDOCK:   -0.52 KCAL/MOL
REMARK 927      BINDING AFFINITY PREDICTED BY RF-SCORE:    0.00 PKD
ROOT
HETATM    1  N   UNK     1     -10.043  11.383  66.178  1.00  0.00    -0.223 NA 
HETATM    2  C   UNK     1      -9.665  11.256  67.622  1.00  0.00    -0.171 C  
HETATM    3  H1  UNK     1     -10.714  10.681  65.867  1.00  0.00     0.000 HD 
HETATM    4  H2  UNK     1      -9.213  11.375  65.586  1.00  0.00     0.000 HD 
HETATM    5  C   UNK     1     -10.948  11.339  68.459  1.00  0.00    -0.220 C  
HETATM    6  O   UNK     1     -11.007  11.655  69.636  1.00  0.00    -0.165 OA 
HETATM    7  O   UNK     1     -12.032  10.978  67.721  1.00  0.00    -0.609 OA 
ENDROOT
BRANCH   2   8
HETATM    8  C   UNK     1      -8.655  12.313  68.091  1.00  0.00    -0.181 C  
BRANCH   8   9
HETATM    9  S   UNK     1      -8.751  13.808  67.034  1.00  0.00    -0.158 SA 
BRANCH   9  10
HETATM   10  C   UNK     1      -9.611  14.922  68.206  1.00  0.00    -0.214 C  
HETATM   11  C   UNK     1     -11.099  15.018  67.925  1.00  0.00    -0.307 C  
HETATM   12  O   UNK     1     -11.862  15.684  68.613  1.00  0.00    -0.372 OA 
HETATM   13  O   UNK     1     -11.533  14.318  66.853  1.00  0.00    -0.331 OA 
ENDBRANCH   9  10
ENDBRANCH   8   9
ENDBRANCH   2   8
TORSDOF 3
ENDMDL
MODEL      164
REMARK 921   NORMALIZED FREE ENERGY PREDICTED BY IDOCK:   -2.57 KCAL/MOL
REMARK 922        TOTAL FREE ENERGY PREDICTED BY IDOCK:   -3.45 KCAL/MOL
REMARK 923 INTER-LIGAND FREE ENERGY PREDICTED BY IDOCK:   -3.37 KCAL/MOL
REMARK 924 INTRA-LIGAND FREE ENERGY PREDICTED BY IDOCK:   -0.08 KCAL/MOL
REMARK 927      BINDING AFFINITY PREDICTED BY RF-SCORE:    0.00 PKD
ROOT
HETATM    1  N   UNK     1      -9.726  13.478  66.723  1.00  0.00    -0.263 NA 
HETATM    2  C   UNK     1     -10.160  12.552  65.628  1.00  0.00    -0.269 C  
HETATM    3  H1  UNK     1      -9.075  14.200  66.415  1.00  0.00     0.000 HD 
HETATM    4  H2  UNK     1      -9.337  12.953  67.506  1.00  0.00     0.000 HD 
HETATM    5  C   UNK     1     -10.792  13.396  64.514  1.00  0.00    -0.406 C  
HETATM    6  O   UNK     1     -11.580  12.988  63.676  1.00  0.00    -0.451 OA 
HETATM    7  O   UNK     1     -10.332  14.675  64.555  1.00  0.00    -0.233 OA 
ENDROOT
BRANCH   2   8
HETATM    8  C   UNK     1     -11.140  11.465  66.092  1.00  0.00    -0.198 C  
BRANCH   8   9
HETATM    9  S   UNK     1     -10.666  10.834  67.747  1.00  0.00    -0.273 SA 
BRANCH   9  10
HETATM   10  C   UNK     1     -11.942  11.686  68.746  1.00  0.00    -0.264 C  
HETATM   11  C   UNK     1     -11.979  11.191  70.180  1.00  0.00    -0.365 C  
HETATM   12  O   UNK     1     -12.738  11.654  71.022  1.00  0.00    -0.356 OA 
HETATM   13  O   UNK     1     -11.114  10.194  70.472  1.00  0.00    -0.294 OA 
ENDBRANCH   9  10
ENDBRANCH   8   9
ENDBRANCH   2   8
TORSDOF 3
ENDMDL
MODEL      165
REMARK 921   NORMALIZED FREE ENERGY PREDICTED BY IDOCK:   -2.56 KCAL/MOL
REMARK 922        TOTAL FREE ENERGY PREDICTED BY IDOCK:   -3.44 KCAL/MOL
REMARK 923 INTER-LIGAND FREE ENERGY PREDICTED BY IDOCK:   -3.31 KCAL/MOL
REMARK 924 INTRA-LIGAND FREE ENERGY PREDICTED BY IDOCK:   -0.13 KCAL/MOL
REMARK 927      BINDING AFFINITY PREDICTED BY RF-SCORE:    0.00 PKD
ROOT
HETATM    1  N   UNK     1     -10.921   8.848  67.233  1.00  0.00    -0.370 NA 
HETATM    2  C   UNK     1     -10.333   9.754  66.195  1.00  0.00    -0.144 C  
HETATM    3  H1  UNK     1     -11.034   7.884  66.920  1.00  0.00     0.000 HD 
HETATM    4  H2  UNK     1     -11.807   9.220  67.576  1.00  0.00     0.000 HD 
HETATM    5  C   UNK     1      -8.979   9.172  65.769  1.00  0.00    -0.193 C  
HETATM    6  O   UNK     1      -8.066   9.800  65.259  1.00  0.00    -0.116 OA 
HETATM    7  O   UNK     1      -8.930   7.834  66.006  1.00  0.00    -0.169 OA 
ENDROOT
BRANCH   2   8
HETATM    8  C   UNK     1     -10.163  11.205  66.667  1.00  0.00    -0.232 C  
BRANCH   8   9
HETATM    9  S   UNK     1     -11.700  11.806  67.466  1.00  0.00    -0.168 SA 
BRANCH   9  10
HETATM   10  C   UNK     1     -11.716  13.508  66.792  1.00  0.00    -0.391 C  
HETATM   11  C   UNK     1     -12.639  13.646  65.595  1.00  0.00    -0.484 C  
HETATM   12  O   UNK     1     -12.820  14.710  65.016  1.00  0.00    -0.466 OA 
HETATM   13  O   UNK     1     -13.252  12.507  65.201  1.00  0.00    -0.573 OA 
ENDBRANCH   9  10
ENDBRANCH   8   9
ENDBRANCH   2   8
TORSDOF 3
ENDMDL
MODEL      166
REMARK 921   NORMALIZED FREE ENERGY PREDICTED BY IDOCK:   -2.55 KCAL/MOL
REMARK 922        TOTAL FREE ENERGY PREDICTED BY IDOCK:   -3.42 KCAL/MOL
REMARK 923 INTER-LIGAND FREE ENERGY PREDICTED BY IDOCK:   -3.35 KCAL/MOL
REMARK 924 INTRA-LIGAND FREE ENERGY PREDICTED BY IDOCK:   -0.08 KCAL/MOL
REMARK 927      BINDING AFFINITY PREDICTED BY RF-SCORE:    0.00 PKD
ROOT
HETATM    1  N   UNK     1     -10.768  18.113  67.385  1.00  0.00    -0.384 NA 
HETATM    2  C   UNK     1     -10.321  16.881  66.659  1.00  0.00    -0.299 C  
HETATM    3  H1  UNK     1     -11.755  18.101  67.643  1.00  0.00     0.000 HD 
HETATM    4  H2  UNK     1     -10.548  18.949  66.844  1.00  0.00     0.000 HD 
HETATM    5  C   UNK     1     -10.622  15.669  67.551  1.00  0.00    -0.297 C  
HETATM    6  O   UNK     1     -10.071  14.583  67.480  1.00  0.00    -0.227 OA 
HETATM    7  O   UNK     1     -11.622  15.950  68.428  1.00  0.00    -0.371 OA 
ENDROOT
BRANCH   2   8
HETATM    8  C   UNK     1      -8.836  16.898  66.271  1.00  0.00    -0.279 C  
BRANCH   8   9
HETATM    9  S   UNK     1      -8.117  18.563  66.549  1.00  0.00    -0.277 SA 
BRANCH   9  10
HETATM   10  C   UNK     1      -7.424  18.290  68.221  1.00  0.00    -0.279 C  
HETATM   11  C   UNK     1      -6.839  19.557  68.818  1.00  0.00    -0.322 C  
HETATM   12  O   UNK     1      -6.356  19.599  69.942  1.00  0.00    -0.314 OA 
HETATM   13  O   UNK     1      -6.884  20.647  68.020  1.00  0.00    -0.298 OA 
ENDBRANCH   9  10
ENDBRANCH   8   9
ENDBRANCH   2   8
TORSDOF 3
ENDMDL
MODEL      167
REMARK 921   NORMALIZED FREE ENERGY PREDICTED BY IDOCK:   -2.54 KCAL/MOL
REMARK 922        TOTAL FREE ENERGY PREDICTED BY IDOCK:   -3.42 KCAL/MOL
REMARK 923 INTER-LIGAND FREE ENERGY PREDICTED BY IDOCK:   -3.27 KCAL/MOL
REMARK 924 INTRA-LIGAND FREE ENERGY PREDICTED BY IDOCK:   -0.15 KCAL/MOL
REMARK 927      BINDING AFFINITY PREDICTED BY RF-SCORE:    0.00 PKD
ROOT
HETATM    1  N   UNK     1      -9.712   9.511  71.527  1.00  0.00    -0.233 NA 
HETATM    2  C   UNK     1     -11.045   8.867  71.757  1.00  0.00    -0.363 C  
HETATM    3  H1  UNK     1      -8.921   8.895  71.714  1.00  0.00     0.000 HD 
HETATM    4  H2  UNK     1      -9.631  10.373  72.066  1.00  0.00     0.000 HD 
HETATM    5  C   UNK     1     -11.128   7.616  70.874  1.00  0.00    -0.263 C  
HETATM    6  O   UNK     1     -12.157   7.074  70.506  1.00  0.00    -0.313 OA 
HETATM    7  O   UNK     1      -9.885   7.155  70.570  1.00  0.00    -0.180 OA 
ENDROOT
BRANCH   2   8
HETATM    8  C   UNK     1     -12.236   9.795  71.476  1.00  0.00    -0.406 C  
BRANCH   8   9
HETATM    9  S   UNK     1     -11.972  10.727  69.920  1.00  0.00    -0.349 SA 
BRANCH   9  10
HETATM   10  C   UNK     1     -12.340  12.411  70.538  1.00  0.00    -0.262 C  
HETATM   11  C   UNK     1     -11.966  13.489  69.537  1.00  0.00    -0.334 C  
HETATM   12  O   UNK     1     -12.161  14.680  69.741  1.00  0.00    -0.313 OA 
HETATM   13  O   UNK     1     -11.394  13.046  68.395  1.00  0.00    -0.252 OA 
ENDBRANCH   9  10
ENDBRANCH   8   9
ENDBRANCH   2   8
TORSDOF 3
ENDMDL
MODEL      168
REMARK 921   NORMALIZED FREE ENERGY PREDICTED BY IDOCK:   -2.54 KCAL/MOL
REMARK 922        TOTAL FREE ENERGY PREDICTED BY IDOCK:   -3.41 KCAL/MOL
REMARK 923 INTER-LIGAND FREE ENERGY PREDICTED BY IDOCK:   -3.22 KCAL/MOL
REMARK 924 INTRA-LIGAND FREE ENERGY PREDICTED BY IDOCK:   -0.19 KCAL/MOL
REMARK 927      BINDING AFFINITY PREDICTED BY RF-SCORE:    0.00 PKD
ROOT
HETATM    1  N   UNK     1      -6.562  12.595  67.679  1.00  0.00    -0.128 NA 
HETATM    2  C   UNK     1      -8.038  12.390  67.519  1.00  0.00    -0.173 C  
HETATM    3  H1  UNK     1      -6.070  11.774  68.032  1.00  0.00     0.000 HD 
HETATM    4  H2  UNK     1      -6.373  13.407  68.266  1.00  0.00     0.000 HD 
HETATM    5  C   UNK     1      -8.252  11.197  66.579  1.00  0.00    -0.167 C  
HETATM    6  O   UNK     1      -9.260  10.981  65.927  1.00  0.00    -0.186 OA 
HETATM    7  O   UNK     1      -7.170  10.374  66.585  1.00  0.00    -0.102 OA 
ENDROOT
BRANCH   2   8
HETATM    8  C   UNK     1      -8.778  13.625  66.988  1.00  0.00    -0.192 C  
BRANCH   8   9
HETATM    9  S   UNK     1     -10.388  13.828  67.844  1.00  0.00    -0.249 SA 
BRANCH   9  10
HETATM   10  C   UNK     1     -11.436  14.180  66.385  1.00  0.00    -0.354 C  
HETATM   11  C   UNK     1     -12.304  12.996  65.998  1.00  0.00    -0.319 C  
HETATM   12  O   UNK     1     -13.102  13.035  65.070  1.00  0.00    -0.761 OA 
HETATM   13  O   UNK     1     -12.135  11.884  66.748  1.00  0.00    -0.593 OA 
ENDBRANCH   9  10
ENDBRANCH   8   9
ENDBRANCH   2   8
TORSDOF 3
ENDMDL
MODEL      169
REMARK 921   NORMALIZED FREE ENERGY PREDICTED BY IDOCK:   -2.52 KCAL/MOL
REMARK 922        TOTAL FREE ENERGY PREDICTED BY IDOCK:   -3.40 KCAL/MOL
REMARK 923 INTER-LIGAND FREE ENERGY PREDICTED BY IDOCK:   -3.25 KCAL/MOL
REMARK 924 INTRA-LIGAND FREE ENERGY PREDICTED BY IDOCK:   -0.15 KCAL/MOL
REMARK 927      BINDING AFFINITY PREDICTED BY RF-SCORE:    0.00 PKD
ROOT
HETATM    1  N   UNK     1     -11.211  14.409  65.215  1.00  0.00    -0.329 NA 
HETATM    2  C   UNK     1     -11.857  13.561  66.268  1.00  0.00    -0.392 C  
HETATM    3  H1  UNK     1     -11.450  15.398  65.280  1.00  0.00     0.000 HD 
HETATM    4  H2  UNK     1     -11.422  14.049  64.284  1.00  0.00     0.000 HD 
HETATM    5  C   UNK     1     -11.450  14.115  67.639  1.00  0.00    -0.338 C  
HETATM    6  O   UNK     1     -11.455  13.490  68.686  1.00  0.00    -0.264 OA 
HETATM    7  O   UNK     1     -11.106  15.428  67.549  1.00  0.00    -0.314 OA 
ENDROOT
BRANCH   2   8
HETATM    8  C   UNK     1     -11.497  12.072  66.168  1.00  0.00    -0.339 C  
BRANCH   8   9
HETATM    9  S   UNK     1      -9.809  11.862  65.485  1.00  0.00    -0.216 SA 
BRANCH   9  10
HETATM   10  C   UNK     1     -10.241  10.967  63.947  1.00  0.00    -0.364 C  
HETATM   11  C   UNK     1      -9.086  10.135  63.420  1.00  0.00    -0.276 C  
HETATM   12  O   UNK     1      -9.177   9.433  62.420  1.00  0.00    -0.258 OA 
HETATM   13  O   UNK     1      -7.938  10.221  64.129  1.00  0.00    -0.157 OA 
ENDBRANCH   9  10
ENDBRANCH   8   9
ENDBRANCH   2   8
TORSDOF 3
ENDMDL
MODEL      170
REMARK 921   NORMALIZED FREE ENERGY PREDICTED BY IDOCK:   -2.52 KCAL/MOL
REMARK 922        TOTAL FREE ENERGY PREDICTED BY IDOCK:   -3.40 KCAL/MOL
REMARK 923 INTER-LIGAND FREE ENERGY PREDICTED BY IDOCK:   -2.93 KCAL/MOL
REMARK 924 INTRA-LIGAND FREE ENERGY PREDICTED BY IDOCK:   -0.47 KCAL/MOL
REMARK 927      BINDING AFFINITY PREDICTED BY RF-SCORE:    0.00 PKD
ROOT
HETATM    1  N   UNK     1     -10.057   7.353  72.037  1.00  0.00    -0.180 NA 
HETATM    2  C   UNK     1      -9.990   8.823  71.758  1.00  0.00    -0.326 C  
HETATM    3  H1  UNK     1     -10.605   7.116  72.864  1.00  0.00     0.000 HD 
HETATM    4  H2  UNK     1      -9.120   6.955  72.101  1.00  0.00     0.000 HD 
HETATM    5  C   UNK     1     -11.426   9.345  71.611  1.00  0.00    -0.393 C  
HETATM    6  O   UNK     1     -11.754  10.360  71.020  1.00  0.00    -0.348 OA 
HETATM    7  O   UNK     1     -12.304   8.535  72.261  1.00  0.00    -0.355 OA 
ENDROOT
BRANCH   2   8
HETATM    8  C   UNK     1      -9.165   9.179  70.514  1.00  0.00    -0.241 C  
BRANCH   8   9
HETATM    9  S   UNK     1      -8.449   7.668  69.762  1.00  0.00    -0.135 SA 
BRANCH   9  10
HETATM   10  C   UNK     1      -9.407   7.652  68.202  1.00  0.00    -0.144 C  
HETATM   11  C   UNK     1     -10.587   6.700  68.258  1.00  0.00    -0.241 C  
HETATM   12  O   UNK     1     -11.375   6.565  67.330  1.00  0.00    -0.304 OA 
HETATM   13  O   UNK     1     -10.713   6.000  69.408  1.00  0.00    -0.262 OA 
ENDBRANCH   9  10
ENDBRANCH   8   9
ENDBRANCH   2   8
TORSDOF 3
ENDMDL
MODEL      171
REMARK 921   NORMALIZED FREE ENERGY PREDICTED BY IDOCK:   -2.52 KCAL/MOL
REMARK 922        TOTAL FREE ENERGY PREDICTED BY IDOCK:   -3.39 KCAL/MOL
REMARK 923 INTER-LIGAND FREE ENERGY PREDICTED BY IDOCK:   -3.29 KCAL/MOL
REMARK 924 INTRA-LIGAND FREE ENERGY PREDICTED BY IDOCK:   -0.10 KCAL/MOL
REMARK 927      BINDING AFFINITY PREDICTED BY RF-SCORE:    0.00 PKD
ROOT
HETATM    1  N   UNK     1     -12.784  14.666  69.340  1.00  0.00    -0.518 NA 
HETATM    2  C   UNK     1     -11.684  15.262  70.163  1.00  0.00    -0.312 C  
HETATM    3  H1  UNK     1     -13.228  13.856  69.773  1.00  0.00     0.000 HD 
HETATM    4  H2  UNK     1     -12.450  14.436  68.404  1.00  0.00     0.000 HD 
HETATM    5  C   UNK     1     -12.266  15.643  71.531  1.00  0.00    -0.424 C  
HETATM    6  O   UNK     1     -11.800  16.473  72.293  1.00  0.00    -0.519 OA 
HETATM    7  O   UNK     1     -13.373  14.903  71.809  1.00  0.00    -0.314 OA 
ENDROOT
BRANCH   2   8
HETATM    8  C   UNK     1     -11.016  16.482  69.512  1.00  0.00    -0.289 C  
BRANCH   8   9
HETATM    9  S   UNK     1     -10.145  15.994  67.974  1.00  0.00    -0.244 SA 
BRANCH   9  10
HETATM   10  C   UNK     1      -8.635  15.281  68.725  1.00  0.00    -0.190 C  
HETATM   11  C   UNK     1      -7.417  15.436  67.832  1.00  0.00    -0.140 C  
HETATM   12  O   UNK     1      -6.301  15.057  68.162  1.00  0.00    -0.110 OA 
HETATM   13  O   UNK     1      -7.647  16.022  66.636  1.00  0.00    -0.231 OA 
ENDBRANCH   9  10
ENDBRANCH   8   9
ENDBRANCH   2   8
TORSDOF 3
ENDMDL
MODEL      172
REMARK 921   NORMALIZED FREE ENERGY PREDICTED BY IDOCK:   -2.51 KCAL/MOL
REMARK 922        TOTAL FREE ENERGY PREDICTED BY IDOCK:   -3.38 KCAL/MOL
REMARK 923 INTER-LIGAND FREE ENERGY PREDICTED BY IDOCK:   -3.19 KCAL/MOL
REMARK 924 INTRA-LIGAND FREE ENERGY PREDICTED BY IDOCK:   -0.19 KCAL/MOL
REMARK 927      BINDING AFFINITY PREDICTED BY RF-SCORE:    0.00 PKD
ROOT
HETATM    1  N   UNK     1     -12.275   6.586  70.117  1.00  0.00    -0.412 NA 
HETATM    2  C   UNK     1     -11.791   7.696  70.999  1.00  0.00    -0.285 C  
HETATM    3  H1  UNK     1     -11.579   5.858  69.954  1.00  0.00     0.000 HD 
HETATM    4  H2  UNK     1     -12.623   6.955  69.232  1.00  0.00     0.000 HD 
HETATM    5  C   UNK     1     -11.342   7.083  72.331  1.00  0.00    -0.269 C  
HETATM    6  O   UNK     1     -11.260   7.678  73.393  1.00  0.00    -0.314 OA 
HETATM    7  O   UNK     1     -11.007   5.774  72.174  1.00  0.00    -0.237 OA 
ENDROOT
BRANCH   2   8
HETATM    8  C   UNK     1     -12.839   8.791  71.244  1.00  0.00    -0.215 C  
BRANCH   8   9
HETATM    9  S   UNK     1     -12.094  10.453  71.035  1.00  0.00    -0.396 SA 
BRANCH   9  10
HETATM   10  C   UNK     1     -11.073  10.116  69.553  1.00  0.00    -0.250 C  
HETATM   11  C   UNK     1     -11.390  11.059  68.407  1.00  0.00    -0.295 C  
HETATM   12  O   UNK     1     -10.796  11.025  67.337  1.00  0.00    -0.239 OA 
HETATM   13  O   UNK     1     -12.381  11.948  68.644  1.00  0.00    -0.275 OA 
ENDBRANCH   9  10
ENDBRANCH   8   9
ENDBRANCH   2   8
TORSDOF 3
ENDMDL
MODEL      173
REMARK 921   NORMALIZED FREE ENERGY PREDICTED BY IDOCK:   -2.50 KCAL/MOL
REMARK 922        TOTAL FREE ENERGY PREDICTED BY IDOCK:   -3.37 KCAL/MOL
REMARK 923 INTER-LIGAND FREE ENERGY PREDICTED BY IDOCK:   -2.96 KCAL/MOL
REMARK 924 INTRA-LIGAND FREE ENERGY PREDICTED BY IDOCK:   -0.41 KCAL/MOL
REMARK 927      BINDING AFFINITY PREDICTED BY RF-SCORE:    0.00 PKD
ROOT
HETATM    1  N   UNK     1      -6.716  18.850  68.485  1.00  0.00    -0.247 NA 
HETATM    2  C   UNK     1      -7.036  18.866  67.022  1.00  0.00    -0.203 C  
HETATM    3  H1  UNK     1      -6.839  19.753  68.942  1.00  0.00     0.000 HD 
HETATM    4  H2  UNK     1      -5.773  18.492  68.644  1.00  0.00     0.000 HD 
HETATM    5  C   UNK     1      -8.482  19.352  66.857  1.00  0.00    -0.293 C  
HETATM    6  O   UNK     1      -9.197  19.135  65.893  1.00  0.00    -0.436 OA 
HETATM    7  O   UNK     1      -8.867  20.098  67.927  1.00  0.00    -0.294 OA 
ENDROOT
BRANCH   2   8
HETATM    8  C   UNK     1      -6.850  17.507  66.333  1.00  0.00    -0.273 C  
BRANCH   8   9
HETATM    9  S   UNK     1      -7.210  16.140  67.501  1.00  0.00    -0.179 SA 
BRANCH   9  10
HETATM   10  C   UNK     1      -8.893  15.713  66.919  1.00  0.00    -0.250 C  
HETATM   11  C   UNK     1      -9.969  16.131  67.905  1.00  0.00    -0.239 C  
HETATM   12  O   UNK     1     -11.163  15.968  67.692  1.00  0.00    -0.288 OA 
HETATM   13  O   UNK     1      -9.519  16.698  69.047  1.00  0.00    -0.259 OA 
ENDBRANCH   9  10
ENDBRANCH   8   9
ENDBRANCH   2   8
TORSDOF 3
ENDMDL
MODEL      174
REMARK 921   NORMALIZED FREE ENERGY PREDICTED BY IDOCK:   -2.50 KCAL/MOL
REMARK 922        TOTAL FREE ENERGY PREDICTED BY IDOCK:   -3.37 KCAL/MOL
REMARK 923 INTER-LIGAND FREE ENERGY PREDICTED BY IDOCK:   -3.40 KCAL/MOL
REMARK 924 INTRA-LIGAND FREE ENERGY PREDICTED BY IDOCK:    0.03 KCAL/MOL
REMARK 927      BINDING AFFINITY PREDICTED BY RF-SCORE:    0.00 PKD
ROOT
HETATM    1  N   UNK     1      -9.285  14.903  67.270  1.00  0.00    -0.197 NA 
HETATM    2  C   UNK     1     -10.108  16.091  66.874  1.00  0.00    -0.265 C  
HETATM    3  H1  UNK     1      -9.783  14.016  67.194  1.00  0.00     0.000 HD 
HETATM    4  H2  UNK     1      -8.908  15.023  68.210  1.00  0.00     0.000 HD 
HETATM    5  C   UNK     1     -10.591  15.875  65.434  1.00  0.00    -0.419 C  
HETATM    6  O   UNK     1     -10.938  16.755  64.663  1.00  0.00    -0.839 OA 
HETATM    7  O   UNK     1     -10.616  14.551  65.124  1.00  0.00    -0.356 OA 
ENDROOT
BRANCH   2   8
HETATM    8  C   UNK     1      -9.359  17.426  66.988  1.00  0.00    -0.260 C  
BRANCH   8   9
HETATM    9  S   UNK     1      -7.546  17.149  66.983  1.00  0.00    -0.210 SA 
BRANCH   9  10
HETATM   10  C   UNK     1      -7.198  17.552  68.735  1.00  0.00    -0.257 C  
HETATM   11  C   UNK     1      -7.295  19.040  69.016  1.00  0.00    -0.306 C  
HETATM   12  O   UNK     1      -7.131  19.516  70.132  1.00  0.00    -0.009 OA 
HETATM   13  O   UNK     1      -7.572  19.816  67.944  1.00  0.00    -0.283 OA 
ENDBRANCH   9  10
ENDBRANCH   8   9
ENDBRANCH   2   8
TORSDOF 3
ENDMDL
MODEL      175
REMARK 921   NORMALIZED FREE ENERGY PREDICTED BY IDOCK:   -2.49 KCAL/MOL
REMARK 922        TOTAL FREE ENERGY PREDICTED BY IDOCK:   -3.36 KCAL/MOL
REMARK 923 INTER-LIGAND FREE ENERGY PREDICTED BY IDOCK:   -3.17 KCAL/MOL
REMARK 924 INTRA-LIGAND FREE ENERGY PREDICTED BY IDOCK:   -0.19 KCAL/MOL
REMARK 927      BINDING AFFINITY PREDICTED BY RF-SCORE:    0.00 PKD
ROOT
HETATM    1  N   UNK     1     -11.072   8.841  72.095  1.00  0.00    -0.363 NA 
HETATM    2  C   UNK     1     -11.957   8.023  71.204  1.00  0.00    -0.277 C  
HETATM    3  H1  UNK     1     -11.353   9.819  72.164  1.00  0.00     0.000 HD 
HETATM    4  H2  UNK     1     -10.098   8.767  71.802  1.00  0.00     0.000 HD 
HETATM    5  C   UNK     1     -13.392   8.127  71.735  1.00  0.00    -0.345 C  
HETATM    6  O   UNK     1     -14.286   7.324  71.523  1.00  0.00    -0.430 OA 
HETATM    7  O   UNK     1     -13.559   9.264  72.460  1.00  0.00    -0.467 OA 
ENDROOT
BRANCH   2   8
HETATM    8  C   UNK     1     -11.534   6.551  71.099  1.00  0.00    -0.326 C  
BRANCH   8   9
HETATM    9  S   UNK     1     -11.082   6.132  69.372  1.00  0.00    -0.381 SA 
BRANCH   9  10
HETATM   10  C   UNK     1     -10.406   7.755  68.861  1.00  0.00    -0.213 C  
HETATM   11  C   UNK     1      -8.888   7.769  68.844  1.00  0.00    -0.135 C  
HETATM   12  O   UNK     1      -8.238   8.747  68.499  1.00  0.00    -0.115 OA 
HETATM   13  O   UNK     1      -8.294   6.622  69.242  1.00  0.00    -0.122 OA 
ENDBRANCH   9  10
ENDBRANCH   8   9
ENDBRANCH   2   8
TORSDOF 3
ENDMDL
MODEL      176
REMARK 921   NORMALIZED FREE ENERGY PREDICTED BY IDOCK:   -2.48 KCAL/MOL
REMARK 922        TOTAL FREE ENERGY PREDICTED BY IDOCK:   -3.35 KCAL/MOL
REMARK 923 INTER-LIGAND FREE ENERGY PREDICTED BY IDOCK:   -2.73 KCAL/MOL
REMARK 924 INTRA-LIGAND FREE ENERGY PREDICTED BY IDOCK:   -0.62 KCAL/MOL
REMARK 927      BINDING AFFINITY PREDICTED BY RF-SCORE:    0.00 PKD
ROOT
HETATM    1  N   UNK     1      -6.806  17.136  66.377  1.00  0.00    -0.252 NA 
HETATM    2  C   UNK     1      -6.458  17.050  67.832  1.00  0.00    -0.141 C  
HETATM    3  H1  UNK     1      -6.399  16.389  65.814  1.00  0.00     0.000 HD 
HETATM    4  H2  UNK     1      -6.553  18.049  66.000  1.00  0.00     0.000 HD 
HETATM    5  C   UNK     1      -6.920  15.682  68.351  1.00  0.00    -0.115 C  
HETATM    6  O   UNK     1      -7.158  15.409  69.515  1.00  0.00    -0.175 OA 
HETATM    7  O   UNK     1      -7.005  14.782  67.335  1.00  0.00    -0.186 OA 
ENDROOT
BRANCH   2   8
HETATM    8  C   UNK     1      -7.070  18.174  68.680  1.00  0.00    -0.268 C  
BRANCH   8   9
HETATM    9  S   UNK     1      -8.419  19.011  67.763  1.00  0.00    -0.300 SA 
BRANCH   9  10
HETATM   10  C   UNK     1      -9.849  18.212  68.581  1.00  0.00    -0.377 C  
HETATM   11  C   UNK     1     -10.382  17.031  67.790  1.00  0.00    -0.335 C  
HETATM   12  O   UNK     1     -11.314  16.339  68.178  1.00  0.00    -0.337 OA 
HETATM   13  O   UNK     1      -9.758  16.792  66.614  1.00  0.00    -0.245 OA 
ENDBRANCH   9  10
ENDBRANCH   8   9
ENDBRANCH   2   8
TORSDOF 3
ENDMDL
MODEL      177
REMARK 921   NORMALIZED FREE ENERGY PREDICTED BY IDOCK:   -2.48 KCAL/MOL
REMARK 922        TOTAL FREE ENERGY PREDICTED BY IDOCK:   -3.34 KCAL/MOL
REMARK 923 INTER-LIGAND FREE ENERGY PREDICTED BY IDOCK:   -2.90 KCAL/MOL
REMARK 924 INTRA-LIGAND FREE ENERGY PREDICTED BY IDOCK:   -0.44 KCAL/MOL
REMARK 927      BINDING AFFINITY PREDICTED BY RF-SCORE:    0.00 PKD
ROOT
HETATM    1  N   UNK     1      -9.232  14.824  67.317  1.00  0.00    -0.195 NA 
HETATM    2  C   UNK     1      -9.879  16.121  66.939  1.00  0.00    -0.241 C  
HETATM    3  H1  UNK     1      -9.878  14.035  67.344  1.00  0.00     0.000 HD 
HETATM    4  H2  UNK     1      -8.737  14.913  68.204  1.00  0.00     0.000 HD 
HETATM    5  C   UNK     1     -10.549  15.937  65.571  1.00  0.00    -0.401 C  
HETATM    6  O   UNK     1     -10.826  16.832  64.791  1.00  0.00    -0.745 OA 
HETATM    7  O   UNK     1     -10.833  14.626  65.343  1.00  0.00    -0.314 OA 
ENDROOT
BRANCH   2   8
HETATM    8  C   UNK     1      -8.907  17.308  66.898  1.00  0.00    -0.240 C  
BRANCH   8   9
HETATM    9  S   UNK     1      -7.188  16.722  66.639  1.00  0.00    -0.245 SA 
BRANCH   9  10
HETATM   10  C   UNK     1      -6.515  17.093  68.301  1.00  0.00    -0.153 C  
HETATM   11  C   UNK     1      -6.180  15.836  69.082  1.00  0.00    -0.126 C  
HETATM   12  O   UNK     1      -5.687  15.863  70.203  1.00  0.00    -0.161 OA 
HETATM   13  O   UNK     1      -6.467  14.671  68.457  1.00  0.00    -0.081 OA 
ENDBRANCH   9  10
ENDBRANCH   8   9
ENDBRANCH   2   8
TORSDOF 3
ENDMDL
MODEL      178
REMARK 921   NORMALIZED FREE ENERGY PREDICTED BY IDOCK:   -2.46 KCAL/MOL
REMARK 922        TOTAL FREE ENERGY PREDICTED BY IDOCK:   -3.32 KCAL/MOL
REMARK 923 INTER-LIGAND FREE ENERGY PREDICTED BY IDOCK:   -3.15 KCAL/MOL
REMARK 924 INTRA-LIGAND FREE ENERGY PREDICTED BY IDOCK:   -0.17 KCAL/MOL
REMARK 927      BINDING AFFINITY PREDICTED BY RF-SCORE:    0.00 PKD
ROOT
HETATM    1  N   UNK     1     -10.254  16.599  65.518  1.00  0.00    -0.596 NA 
HETATM    2  C   UNK     1     -10.359  17.432  66.759  1.00  0.00    -0.305 C  
HETATM    3  H1  UNK     1     -11.054  16.695  64.892  1.00  0.00     0.000 HD 
HETATM    4  H2  UNK     1     -10.098  15.619  65.754  1.00  0.00     0.000 HD 
HETATM    5  C   UNK     1     -10.529  18.896  66.336  1.00  0.00    -0.439 C  
HETATM    6  O   UNK     1     -10.266  19.868  67.024  1.00  0.00    -0.402 OA 
HETATM    7  O   UNK     1     -11.052  18.981  65.083  1.00  0.00    -0.387 OA 
ENDROOT
BRANCH   2   8
HETATM    8  C   UNK     1      -9.156  17.288  67.702  1.00  0.00    -0.228 C  
BRANCH   8   9
HETATM    9  S   UNK     1      -7.607  17.081  66.742  1.00  0.00    -0.268 SA 
BRANCH   9  10
HETATM   10  C   UNK     1      -7.194  15.370  67.246  1.00  0.00    -0.194 C  
HETATM   11  C   UNK     1      -5.868  15.289  67.980  1.00  0.00    -0.141 C  
HETATM   12  O   UNK     1      -5.423  14.241  68.432  1.00  0.00    -0.093 OA 
HETATM   13  O   UNK     1      -5.200  16.458  68.103  1.00  0.00    -0.101 OA 
ENDBRANCH   9  10
ENDBRANCH   8   9
ENDBRANCH   2   8
TORSDOF 3
ENDMDL
MODEL      179
REMARK 921   NORMALIZED FREE ENERGY PREDICTED BY IDOCK:   -2.43 KCAL/MOL
REMARK 922        TOTAL FREE ENERGY PREDICTED BY IDOCK:   -3.28 KCAL/MOL
REMARK 923 INTER-LIGAND FREE ENERGY PREDICTED BY IDOCK:   -3.25 KCAL/MOL
REMARK 924 INTRA-LIGAND FREE ENERGY PREDICTED BY IDOCK:   -0.03 KCAL/MOL
REMARK 927      BINDING AFFINITY PREDICTED BY RF-SCORE:    0.00 PKD
ROOT
HETATM    1  N   UNK     1      -8.921  14.897  66.155  1.00  0.00    -0.489 NA 
HETATM    2  C   UNK     1      -9.283  15.904  67.203  1.00  0.00    -0.209 C  
HETATM    3  H1  UNK     1      -8.102  14.336  66.390  1.00  0.00     0.000 HD 
HETATM    4  H2  UNK     1      -8.798  15.348  65.248  1.00  0.00     0.000 HD 
HETATM    5  C   UNK     1      -9.514  15.156  68.522  1.00  0.00    -0.203 C  
HETATM    6  O   UNK     1     -10.175  15.564  69.462  1.00  0.00    -0.242 OA 
HETATM    7  O   UNK     1      -8.850  13.969  68.528  1.00  0.00    -0.187 OA 
ENDROOT
BRANCH   2   8
HETATM    8  C   UNK     1     -10.515  16.748  66.848  1.00  0.00    -0.269 C  
BRANCH   8   9
HETATM    9  S   UNK     1     -10.453  18.369  67.704  1.00  0.00    -0.409 SA 
BRANCH   9  10
HETATM   10  C   UNK     1      -9.384  19.268  66.519  1.00  0.00    -0.353 C  
HETATM   11  C   UNK     1      -8.092  19.748  67.155  1.00  0.00    -0.292 C  
HETATM   12  O   UNK     1      -7.224  20.340  66.527  1.00  0.00    -0.256 OA 
HETATM   13  O   UNK     1      -7.961  19.479  68.474  1.00  0.00    -0.338 OA 
ENDBRANCH   9  10
ENDBRANCH   8   9
ENDBRANCH   2   8
TORSDOF 3
ENDMDL
MODEL      180
REMARK 921   NORMALIZED FREE ENERGY PREDICTED BY IDOCK:   -2.42 KCAL/MOL
REMARK 922        TOTAL FREE ENERGY PREDICTED BY IDOCK:   -3.28 KCAL/MOL
REMARK 923 INTER-LIGAND FREE ENERGY PREDICTED BY IDOCK:   -3.09 KCAL/MOL
REMARK 924 INTRA-LIGAND FREE ENERGY PREDICTED BY IDOCK:   -0.18 KCAL/MOL
REMARK 927      BINDING AFFINITY PREDICTED BY RF-SCORE:    0.00 PKD
ROOT
HETATM    1  N   UNK     1     -11.469   4.531  65.051  1.00  0.00    -1.108 NA 
HETATM    2  C   UNK     1     -10.287   4.964  65.863  1.00  0.00    -0.236 C  
HETATM    3  H1  UNK     1     -11.224   4.168  64.131  1.00  0.00     0.000 HD 
HETATM    4  H2  UNK     1     -12.147   5.289  64.970  1.00  0.00     0.000 HD 
HETATM    5  C   UNK     1      -9.340   3.764  66.000  1.00  0.00    -0.170 C  
HETATM    6  O   UNK     1      -8.505   3.617  66.877  1.00  0.00    -0.101 OA 
HETATM    7  O   UNK     1      -9.528   2.880  64.985  1.00  0.00    -0.153 OA 
ENDROOT
BRANCH   2   8
HETATM    8  C   UNK     1     -10.656   5.510  67.249  1.00  0.00    -0.219 C  
BRANCH   8   9
HETATM    9  S   UNK     1     -10.506   7.337  67.282  1.00  0.00    -0.335 SA 
BRANCH   9  10
HETATM   10  C   UNK     1      -9.004   7.511  66.249  1.00  0.00    -0.167 C  
HETATM   11  C   UNK     1      -8.979   8.821  65.481  1.00  0.00    -0.181 C  
HETATM   12  O   UNK     1      -8.047   9.148  64.759  1.00  0.00    -0.125 OA 
HETATM   13  O   UNK     1     -10.065   9.610  65.646  1.00  0.00    -0.296 OA 
ENDBRANCH   9  10
ENDBRANCH   8   9
ENDBRANCH   2   8
TORSDOF 3
ENDMDL
MODEL      181
REMARK 921   NORMALIZED FREE ENERGY PREDICTED BY IDOCK:   -2.42 KCAL/MOL
REMARK 922        TOTAL FREE ENERGY PREDICTED BY IDOCK:   -3.27 KCAL/MOL
REMARK 923 INTER-LIGAND FREE ENERGY PREDICTED BY IDOCK:   -3.15 KCAL/MOL
REMARK 924 INTRA-LIGAND FREE ENERGY PREDICTED BY IDOCK:   -0.12 KCAL/MOL
REMARK 927      BINDING AFFINITY PREDICTED BY RF-SCORE:    0.00 PKD
ROOT
HETATM    1  N   UNK     1      -7.273  10.558  64.271  1.00  0.00    -0.348 NA 
HETATM    2  C   UNK     1      -8.666  10.009  64.213  1.00  0.00    -0.206 C  
HETATM    3  H1  UNK     1      -6.827  10.644  63.357  1.00  0.00     0.000 HD 
HETATM    4  H2  UNK     1      -6.693  10.004  64.902  1.00  0.00     0.000 HD 
HETATM    5  C   UNK     1      -9.497  10.919  63.301  1.00  0.00    -0.324 C  
HETATM    6  O   UNK     1     -10.713  11.021  63.319  1.00  0.00    -0.271 OA 
HETATM    7  O   UNK     1      -8.699  11.590  62.428  1.00  0.00    -0.310 OA 
ENDROOT
BRANCH   2   8
HETATM    8  C   UNK     1      -9.335   9.879  65.588  1.00  0.00    -0.214 C  
BRANCH   8   9
HETATM    9  S   UNK     1      -9.462  11.519  66.399  1.00  0.00    -0.218 SA 
BRANCH   9  10
HETATM   10  C   UNK     1     -11.203  11.419  66.957  1.00  0.00    -0.283 C  
HETATM   11  C   UNK     1     -11.318  11.113  68.439  1.00  0.00    -0.288 C  
HETATM   12  O   UNK     1     -12.394  11.037  69.019  1.00  0.00    -0.481 OA 
HETATM   13  O   UNK     1     -10.145  10.925  69.085  1.00  0.00    -0.212 OA 
ENDBRANCH   9  10
ENDBRANCH   8   9
ENDBRANCH   2   8
TORSDOF 3
ENDMDL
MODEL      182
REMARK 921   NORMALIZED FREE ENERGY PREDICTED BY IDOCK:   -2.39 KCAL/MOL
REMARK 922        TOTAL FREE ENERGY PREDICTED BY IDOCK:   -3.24 KCAL/MOL
REMARK 923 INTER-LIGAND FREE ENERGY PREDICTED BY IDOCK:   -3.15 KCAL/MOL
REMARK 924 INTRA-LIGAND FREE ENERGY PREDICTED BY IDOCK:   -0.09 KCAL/MOL
REMARK 927      BINDING AFFINITY PREDICTED BY RF-SCORE:    0.00 PKD
ROOT
HETATM    1  N   UNK     1      -8.716  11.043  64.771  1.00  0.00    -0.367 NA 
HETATM    2  C   UNK     1     -10.131  10.738  65.156  1.00  0.00    -0.299 C  
HETATM    3  H1  UNK     1      -8.625  11.474  63.851  1.00  0.00     0.000 HD 
HETATM    4  H2  UNK     1      -8.137  10.206  64.835  1.00  0.00     0.000 HD 
HETATM    5  C   UNK     1     -10.932  12.046  65.100  1.00  0.00    -0.310 C  
HETATM    6  O   UNK     1     -11.973  12.266  65.696  1.00  0.00    -0.487 OA 
HETATM    7  O   UNK     1     -10.342  12.939  64.261  1.00  0.00    -0.388 OA 
ENDROOT
BRANCH   2   8
HETATM    8  C   UNK     1     -10.268  10.090  66.540  1.00  0.00    -0.224 C  
BRANCH   8   9
HETATM    9  S   UNK     1      -9.013   8.772  66.762  1.00  0.00    -0.141 SA 
BRANCH   9  10
HETATM   10  C   UNK     1     -10.129   7.403  67.242  1.00  0.00    -0.228 C  
HETATM   11  C   UNK     1     -10.424   7.393  68.731  1.00  0.00    -0.199 C  
HETATM   12  O   UNK     1     -11.175   6.580  69.253  1.00  0.00    -0.328 OA 
HETATM   13  O   UNK     1      -9.795   8.348  69.452  1.00  0.00    -0.178 OA 
ENDBRANCH   9  10
ENDBRANCH   8   9
ENDBRANCH   2   8
TORSDOF 3
ENDMDL
MODEL      183
REMARK 921   NORMALIZED FREE ENERGY PREDICTED BY IDOCK:   -2.37 KCAL/MOL
REMARK 922        TOTAL FREE ENERGY PREDICTED BY IDOCK:   -3.22 KCAL/MOL
REMARK 923 INTER-LIGAND FREE ENERGY PREDICTED BY IDOCK:   -3.06 KCAL/MOL
REMARK 924 INTRA-LIGAND FREE ENERGY PREDICTED BY IDOCK:   -0.16 KCAL/MOL
REMARK 927      BINDING AFFINITY PREDICTED BY RF-SCORE:    0.00 PKD
ROOT
HETATM    1  N   UNK     1      -7.987  17.841  66.821  1.00  0.00    -0.225 NA 
HETATM    2  C   UNK     1      -8.711  17.165  67.945  1.00  0.00    -0.222 C  
HETATM    3  H1  UNK     1      -7.337  18.564  67.128  1.00  0.00     0.000 HD 
HETATM    4  H2  UNK     1      -8.648  18.218  66.141  1.00  0.00     0.000 HD 
HETATM    5  C   UNK     1      -7.664  16.568  68.894  1.00  0.00    -0.236 C  
HETATM    6  O   UNK     1      -7.855  15.650  69.673  1.00  0.00    -0.203 OA 
HETATM    7  O   UNK     1      -6.478  17.224  68.780  1.00  0.00    -0.176 OA 
ENDROOT
BRANCH   2   8
HETATM    8  C   UNK     1      -9.690  16.077  67.482  1.00  0.00    -0.228 C  
BRANCH   8   9
HETATM    9  S   UNK     1     -11.269  16.195  68.407  1.00  0.00    -0.330 SA 
BRANCH   9  10
HETATM   10  C   UNK     1     -11.358  14.475  69.026  1.00  0.00    -0.272 C  
HETATM   11  C   UNK     1     -12.299  14.334  70.209  1.00  0.00    -0.354 C  
HETATM   12  O   UNK     1     -12.528  13.261  70.751  1.00  0.00    -0.353 OA 
HETATM   13  O   UNK     1     -12.873  15.483  70.633  1.00  0.00    -0.458 OA 
ENDBRANCH   9  10
ENDBRANCH   8   9
ENDBRANCH   2   8
TORSDOF 3
ENDMDL
MODEL      184
REMARK 921   NORMALIZED FREE ENERGY PREDICTED BY IDOCK:   -2.36 KCAL/MOL
REMARK 922        TOTAL FREE ENERGY PREDICTED BY IDOCK:   -3.20 KCAL/MOL
REMARK 923 INTER-LIGAND FREE ENERGY PREDICTED BY IDOCK:   -3.04 KCAL/MOL
REMARK 924 INTRA-LIGAND FREE ENERGY PREDICTED BY IDOCK:   -0.16 KCAL/MOL
REMARK 927      BINDING AFFINITY PREDICTED BY RF-SCORE:    0.00 PKD
ROOT
HETATM    1  N   UNK     1      -9.249   9.166  64.586  1.00  0.00    -0.441 NA 
HETATM    2  C   UNK     1     -10.015   9.874  65.661  1.00  0.00    -0.283 C  
HETATM    3  H1  UNK     1      -9.737   9.129  63.691  1.00  0.00     0.000 HD 
HETATM    4  H2  UNK     1      -8.985   8.228  64.889  1.00  0.00     0.000 HD 
HETATM    5  C   UNK     1     -10.325  11.293  65.167  1.00  0.00    -0.295 C  
HETATM    6  O   UNK     1     -10.576  12.252  65.878  1.00  0.00    -0.244 OA 
HETATM    7  O   UNK     1     -10.317  11.346  63.808  1.00  0.00    -0.319 OA 
ENDROOT
BRANCH   2   8
HETATM    8  C   UNK     1      -9.280   9.929  67.008  1.00  0.00    -0.142 C  
BRANCH   8   9
HETATM    9  S   UNK     1     -10.206   8.992  68.284  1.00  0.00    -0.210 SA 
BRANCH   9  10
HETATM   10  C   UNK     1     -11.109  10.387  69.053  1.00  0.00    -0.248 C  
HETATM   11  C   UNK     1     -11.443  10.127  70.510  1.00  0.00    -0.337 C  
HETATM   12  O   UNK     1     -12.015  10.947  71.216  1.00  0.00    -0.279 OA 
HETATM   13  O   UNK     1     -11.067   8.917  70.983  1.00  0.00    -0.244 OA 
ENDBRANCH   9  10
ENDBRANCH   8   9
ENDBRANCH   2   8
TORSDOF 3
ENDMDL
MODEL      185
REMARK 921   NORMALIZED FREE ENERGY PREDICTED BY IDOCK:   -2.35 KCAL/MOL
REMARK 922        TOTAL FREE ENERGY PREDICTED BY IDOCK:   -3.20 KCAL/MOL
REMARK 923 INTER-LIGAND FREE ENERGY PREDICTED BY IDOCK:   -3.09 KCAL/MOL
REMARK 924 INTRA-LIGAND FREE ENERGY PREDICTED BY IDOCK:   -0.10 KCAL/MOL
REMARK 927      BINDING AFFINITY PREDICTED BY RF-SCORE:    0.00 PKD
ROOT
HETATM    1  N   UNK     1      -9.400   7.530  65.928  1.00  0.00    -0.400 NA 
HETATM    2  C   UNK     1     -10.337   8.065  66.968  1.00  0.00    -0.344 C  
HETATM    3  H1  UNK     1      -9.665   7.772  64.973  1.00  0.00     0.000 HD 
HETATM    4  H2  UNK     1      -9.292   6.520  66.026  1.00  0.00     0.000 HD 
HETATM    5  C   UNK     1     -10.406   9.589  66.806  1.00  0.00    -0.228 C  
HETATM    6  O   UNK     1     -10.738  10.379  67.674  1.00  0.00    -0.243 OA 
HETATM    7  O   UNK     1     -10.075   9.957  65.540  1.00  0.00    -0.303 OA 
ENDROOT
BRANCH   2   8
HETATM    8  C   UNK     1      -9.938   7.700  68.404  1.00  0.00    -0.176 C  
BRANCH   8   9
HETATM    9  S   UNK     1     -10.684   6.098  68.893  1.00  0.00    -0.339 SA 
BRANCH   9  10
HETATM   10  C   UNK     1     -11.672   6.676  70.322  1.00  0.00    -0.371 C  
HETATM   11  C   UNK     1     -11.234   6.032  71.625  1.00  0.00    -0.268 C  
HETATM   12  O   UNK     1     -11.744   6.306  72.704  1.00  0.00    -0.228 OA 
HETATM   13  O   UNK     1     -10.238   5.124  71.517  1.00  0.00    -0.195 OA 
ENDBRANCH   9  10
ENDBRANCH   8   9
ENDBRANCH   2   8
TORSDOF 3
ENDMDL
MODEL      186
REMARK 921   NORMALIZED FREE ENERGY PREDICTED BY IDOCK:   -2.33 KCAL/MOL
REMARK 922        TOTAL FREE ENERGY PREDICTED BY IDOCK:   -3.17 KCAL/MOL
REMARK 923 INTER-LIGAND FREE ENERGY PREDICTED BY IDOCK:   -3.37 KCAL/MOL
REMARK 924 INTRA-LIGAND FREE ENERGY PREDICTED BY IDOCK:    0.19 KCAL/MOL
REMARK 927      BINDING AFFINITY PREDICTED BY RF-SCORE:    0.00 PKD
ROOT
HETATM    1  N   UNK     1      -5.868  18.764  67.987  1.00  0.00    -0.200 NA 
HETATM    2  C   UNK     1      -6.907  18.364  68.990  1.00  0.00    -0.265 C  
HETATM    3  H1  UNK     1      -5.059  18.145  67.965  1.00  0.00     0.000 HD 
HETATM    4  H2  UNK     1      -5.578  19.731  68.135  1.00  0.00     0.000 HD 
HETATM    5  C   UNK     1      -7.345  16.928  68.673  1.00  0.00    -0.222 C  
HETATM    6  O   UNK     1      -8.403  16.420  69.006  1.00  0.00    -0.236 OA 
HETATM    7  O   UNK     1      -6.376  16.266  67.987  1.00  0.00    -0.119 OA 
ENDROOT
BRANCH   2   8
HETATM    8  C   UNK     1      -8.126  19.297  69.022  1.00  0.00    -0.244 C  
BRANCH   8   9
HETATM    9  S   UNK     1      -8.291  20.195  67.431  1.00  0.00    -0.334 SA 
BRANCH   9  10
HETATM   10  C   UNK     1      -8.656  18.768  66.343  1.00  0.00    -0.284 C  
HETATM   11  C   UNK     1     -10.144  18.593  66.100  1.00  0.00    -0.369 C  
HETATM   12  O   UNK     1     -10.599  17.718  65.374  1.00  0.00    -0.659 OA 
HETATM   13  O   UNK     1     -10.944  19.471  66.746  1.00  0.00    -0.436 OA 
ENDBRANCH   9  10
ENDBRANCH   8   9
ENDBRANCH   2   8
TORSDOF 3
ENDMDL
MODEL      187
REMARK 921   NORMALIZED FREE ENERGY PREDICTED BY IDOCK:   -2.33 KCAL/MOL
REMARK 922        TOTAL FREE ENERGY PREDICTED BY IDOCK:   -3.17 KCAL/MOL
REMARK 923 INTER-LIGAND FREE ENERGY PREDICTED BY IDOCK:   -3.02 KCAL/MOL
REMARK 924 INTRA-LIGAND FREE ENERGY PREDICTED BY IDOCK:   -0.15 KCAL/MOL
REMARK 927      BINDING AFFINITY PREDICTED BY RF-SCORE:    0.00 PKD
ROOT
HETATM    1  N   UNK     1     -11.070   8.810  72.035  1.00  0.00    -0.363 NA 
HETATM    2  C   UNK     1     -11.958   8.004  71.136  1.00  0.00    -0.277 C  
HETATM    3  H1  UNK     1     -11.343   9.789  72.111  1.00  0.00     0.000 HD 
HETATM    4  H2  UNK     1     -10.096   8.730  71.744  1.00  0.00     0.000 HD 
HETATM    5  C   UNK     1     -13.394   8.115  71.664  1.00  0.00    -0.331 C  
HETATM    6  O   UNK     1     -14.293   7.321  71.445  1.00  0.00    -0.431 OA 
HETATM    7  O   UNK     1     -13.555   9.249  72.398  1.00  0.00    -0.458 OA 
ENDROOT
BRANCH   2   8
HETATM    8  C   UNK     1     -11.546   6.530  71.022  1.00  0.00    -0.348 C  
BRANCH   8   9
HETATM    9  S   UNK     1     -11.116   6.114  69.289  1.00  0.00    -0.350 SA 
BRANCH   9  10
HETATM   10  C   UNK     1      -9.291   6.162  69.437  1.00  0.00    -0.139 C  
HETATM   11  C   UNK     1      -8.677   4.775  69.471  1.00  0.00    -0.086 C  
HETATM   12  O   UNK     1      -7.469   4.585  69.533  1.00  0.00    -0.051 OA 
HETATM   13  O   UNK     1      -9.559   3.750  69.432  1.00  0.00    -0.183 OA 
ENDBRANCH   9  10
ENDBRANCH   8   9
ENDBRANCH   2   8
TORSDOF 3
ENDMDL
MODEL      188
REMARK 921   NORMALIZED FREE ENERGY PREDICTED BY IDOCK:   -2.32 KCAL/MOL
REMARK 922        TOTAL FREE ENERGY PREDICTED BY IDOCK:   -3.16 KCAL/MOL
REMARK 923 INTER-LIGAND FREE ENERGY PREDICTED BY IDOCK:   -3.08 KCAL/MOL
REMARK 924 INTRA-LIGAND FREE ENERGY PREDICTED BY IDOCK:   -0.08 KCAL/MOL
REMARK 927      BINDING AFFINITY PREDICTED BY RF-SCORE:    0.00 PKD
ROOT
HETATM    1  N   UNK     1     -10.287  13.369  67.809  1.00  0.00    -0.237 NA 
HETATM    2  C   UNK     1      -9.108  12.446  67.861  1.00  0.00    -0.191 C  
HETATM    3  H1  UNK     1     -10.234  14.140  68.475  1.00  0.00     0.000 HD 
HETATM    4  H2  UNK     1     -11.157  12.849  67.928  1.00  0.00     0.000 HD 
HETATM    5  C   UNK     1      -7.843  13.277  67.612  1.00  0.00    -0.168 C  
HETATM    6  O   UNK     1      -6.778  12.842  67.206  1.00  0.00    -0.152 OA 
HETATM    7  O   UNK     1      -8.048  14.581  67.936  1.00  0.00    -0.128 OA 
ENDROOT
BRANCH   2   8
HETATM    8  C   UNK     1      -9.188  11.286  66.858  1.00  0.00    -0.175 C  
BRANCH   8   9
HETATM    9  S   UNK     1     -10.886  11.133  66.185  1.00  0.00    -0.129 SA 
BRANCH   9  10
HETATM   10  C   UNK     1     -10.659  12.090  64.640  1.00  0.00    -0.307 C  
HETATM   11  C   UNK     1     -11.975  12.592  64.073  1.00  0.00    -0.454 C  
HETATM   12  O   UNK     1     -12.042  13.281  63.063  1.00  0.00    -0.421 OA 
HETATM   13  O   UNK     1     -13.080  12.223  64.760  1.00  0.00    -0.724 OA 
ENDBRANCH   9  10
ENDBRANCH   8   9
ENDBRANCH   2   8
TORSDOF 3
ENDMDL
MODEL      189
REMARK 921   NORMALIZED FREE ENERGY PREDICTED BY IDOCK:   -2.32 KCAL/MOL
REMARK 922        TOTAL FREE ENERGY PREDICTED BY IDOCK:   -3.16 KCAL/MOL
REMARK 923 INTER-LIGAND FREE ENERGY PREDICTED BY IDOCK:   -3.01 KCAL/MOL
REMARK 924 INTRA-LIGAND FREE ENERGY PREDICTED BY IDOCK:   -0.15 KCAL/MOL
REMARK 927      BINDING AFFINITY PREDICTED BY RF-SCORE:    0.00 PKD
ROOT
HETATM    1  N   UNK     1      -9.318   4.225  68.417  1.00  0.00    -0.143 NA 
HETATM    2  C   UNK     1     -10.252   5.384  68.586  1.00  0.00    -0.176 C  
HETATM    3  H1  UNK     1      -9.706   3.463  67.862  1.00  0.00     0.000 HD 
HETATM    4  H2  UNK     1      -9.000   3.883  69.325  1.00  0.00     0.000 HD 
HETATM    5  C   UNK     1     -10.641   5.888  67.190  1.00  0.00    -0.299 C  
HETATM    6  O   UNK     1     -11.051   7.007  66.929  1.00  0.00    -0.359 OA 
HETATM    7  O   UNK     1     -10.498   4.904  66.262  1.00  0.00    -0.287 OA 
ENDROOT
BRANCH   2   8
HETATM    8  C   UNK     1      -9.669   6.531  69.422  1.00  0.00    -0.146 C  
BRANCH   8   9
HETATM    9  S   UNK     1     -10.753   6.901  70.853  1.00  0.00    -0.237 SA 
BRANCH   9  10
HETATM   10  C   UNK     1     -11.161   8.640  70.451  1.00  0.00    -0.230 C  
HETATM   11  C   UNK     1     -11.869   9.347  71.593  1.00  0.00    -0.394 C  
HETATM   12  O   UNK     1     -12.198  10.525  71.541  1.00  0.00    -0.355 OA 
HETATM   13  O   UNK     1     -12.117   8.584  72.681  1.00  0.00    -0.378 OA 
ENDBRANCH   9  10
ENDBRANCH   8   9
ENDBRANCH   2   8
TORSDOF 3
ENDMDL
MODEL      190
REMARK 921   NORMALIZED FREE ENERGY PREDICTED BY IDOCK:   -2.32 KCAL/MOL
REMARK 922        TOTAL FREE ENERGY PREDICTED BY IDOCK:   -3.15 KCAL/MOL
REMARK 923 INTER-LIGAND FREE ENERGY PREDICTED BY IDOCK:   -2.70 KCAL/MOL
REMARK 924 INTRA-LIGAND FREE ENERGY PREDICTED BY IDOCK:   -0.45 KCAL/MOL
REMARK 927      BINDING AFFINITY PREDICTED BY RF-SCORE:    0.00 PKD
ROOT
HETATM    1  N   UNK     1      -8.720   8.969  70.886  1.00  0.00    -0.214 NA 
HETATM    2  C   UNK     1     -10.169   9.109  71.244  1.00  0.00    -0.329 C  
HETATM    3  H1  UNK     1      -8.085   9.234  71.638  1.00  0.00     0.000 HD 
HETATM    4  H2  UNK     1      -8.508   9.489  70.035  1.00  0.00     0.000 HD 
HETATM    5  C   UNK     1     -10.435   8.255  72.490  1.00  0.00    -0.336 C  
HETATM    6  O   UNK     1     -11.522   7.821  72.833  1.00  0.00    -0.378 OA 
HETATM    7  O   UNK     1      -9.291   8.064  73.200  1.00  0.00    -0.247 OA 
ENDROOT
BRANCH   2   8
HETATM    8  C   UNK     1     -11.125   8.710  70.112  1.00  0.00    -0.192 C  
BRANCH   8   9
HETATM    9  S   UNK     1     -10.242   8.673  68.505  1.00  0.00    -0.192 SA 
BRANCH   9  10
HETATM   10  C   UNK     1     -10.819  10.276  67.834  1.00  0.00    -0.284 C  
HETATM   11  C   UNK     1      -9.803  11.385  68.033  1.00  0.00    -0.184 C  
HETATM   12  O   UNK     1      -9.979  12.527  67.627  1.00  0.00    -0.195 OA 
HETATM   13  O   UNK     1      -8.679  11.030  68.697  1.00  0.00    -0.152 OA 
ENDBRANCH   9  10
ENDBRANCH   8   9
ENDBRANCH   2   8
TORSDOF 3
ENDMDL
MODEL      191
REMARK 921   NORMALIZED FREE ENERGY PREDICTED BY IDOCK:   -2.31 KCAL/MOL
REMARK 922        TOTAL FREE ENERGY PREDICTED BY IDOCK:   -3.14 KCAL/MOL
REMARK 923 INTER-LIGAND FREE ENERGY PREDICTED BY IDOCK:   -2.94 KCAL/MOL
REMARK 924 INTRA-LIGAND FREE ENERGY PREDICTED BY IDOCK:   -0.20 KCAL/MOL
REMARK 927      BINDING AFFINITY PREDICTED BY RF-SCORE:    0.00 PKD
ROOT
HETATM    1  N   UNK     1      -9.563   8.930  71.925  1.00  0.00    -0.299 NA 
HETATM    2  C   UNK     1     -10.888   9.110  71.249  1.00  0.00    -0.332 C  
HETATM    3  H1  UNK     1      -9.597   9.064  72.935  1.00  0.00     0.000 HD 
HETATM    4  H2  UNK     1      -8.859   9.536  71.505  1.00  0.00     0.000 HD 
HETATM    5  C   UNK     1     -11.882   8.128  71.883  1.00  0.00    -0.317 C  
HETATM    6  O   UNK     1     -12.905   7.719  71.360  1.00  0.00    -0.328 OA 
HETATM    7  O   UNK     1     -11.490   7.785  73.139  1.00  0.00    -0.330 OA 
ENDROOT
BRANCH   2   8
HETATM    8  C   UNK     1     -10.838   8.907  69.728  1.00  0.00    -0.200 C  
BRANCH   8   9
HETATM    9  S   UNK     1      -9.572   7.656  69.287  1.00  0.00    -0.160 SA 
BRANCH   9  10
HETATM   10  C   UNK     1     -10.672   6.401  68.534  1.00  0.00    -0.288 C  
HETATM   11  C   UNK     1     -10.416   6.225  67.048  1.00  0.00    -0.278 C  
HETATM   12  O   UNK     1     -11.022   5.411  66.363  1.00  0.00    -0.243 OA 
HETATM   13  O   UNK     1      -9.469   7.035  66.524  1.00  0.00    -0.167 OA 
ENDBRANCH   9  10
ENDBRANCH   8   9
ENDBRANCH   2   8
TORSDOF 3
ENDMDL
MODEL      192
REMARK 921   NORMALIZED FREE ENERGY PREDICTED BY IDOCK:   -2.30 KCAL/MOL
REMARK 922        TOTAL FREE ENERGY PREDICTED BY IDOCK:   -3.14 KCAL/MOL
REMARK 923 INTER-LIGAND FREE ENERGY PREDICTED BY IDOCK:   -2.92 KCAL/MOL
REMARK 924 INTRA-LIGAND FREE ENERGY PREDICTED BY IDOCK:   -0.22 KCAL/MOL
REMARK 927      BINDING AFFINITY PREDICTED BY RF-SCORE:    0.00 PKD
ROOT
HETATM    1  N   UNK     1     -10.489   8.720  71.807  1.00  0.00    -0.319 NA 
HETATM    2  C   UNK     1     -11.358   7.763  71.050  1.00  0.00    -0.271 C  
HETATM    3  H1  UNK     1     -10.822   9.684  71.784  1.00  0.00     0.000 HD 
HETATM    4  H2  UNK     1      -9.524   8.665  71.481  1.00  0.00     0.000 HD 
HETATM    5  C   UNK     1     -12.776   7.849  71.630  1.00  0.00    -0.330 C  
HETATM    6  O   UNK     1     -13.630   6.983  71.546  1.00  0.00    -0.351 OA 
HETATM    7  O   UNK     1     -12.980   9.050  72.236  1.00  0.00    -0.388 OA 
ENDROOT
BRANCH   2   8
HETATM    8  C   UNK     1     -10.857   6.313  71.086  1.00  0.00    -0.266 C  
BRANCH   8   9
HETATM    9  S   UNK     1     -10.069   5.944  72.700  1.00  0.00    -0.183 SA 
BRANCH   9  10
HETATM   10  C   UNK     1     -11.318   4.777  73.358  1.00  0.00    -0.312 C  
HETATM   11  C   UNK     1     -10.844   3.336  73.309  1.00  0.00    -0.180 C  
HETATM   12  O   UNK     1     -11.515   2.403  73.732  1.00  0.00    -0.214 OA 
HETATM   13  O   UNK     1      -9.623   3.145  72.760  1.00  0.00    -0.103 OA 
ENDBRANCH   9  10
ENDBRANCH   8   9
ENDBRANCH   2   8
TORSDOF 3
ENDMDL
MODEL      193
REMARK 921   NORMALIZED FREE ENERGY PREDICTED BY IDOCK:   -2.30 KCAL/MOL
REMARK 922        TOTAL FREE ENERGY PREDICTED BY IDOCK:   -3.14 KCAL/MOL
REMARK 923 INTER-LIGAND FREE ENERGY PREDICTED BY IDOCK:   -3.10 KCAL/MOL
REMARK 924 INTRA-LIGAND FREE ENERGY PREDICTED BY IDOCK:   -0.04 KCAL/MOL
REMARK 927      BINDING AFFINITY PREDICTED BY RF-SCORE:    0.00 PKD
ROOT
HETATM    1  N   UNK     1      -5.178  16.357  66.679  1.00  0.00    -0.293 NA 
HETATM    2  C   UNK     1      -6.613  16.447  67.099  1.00  0.00    -0.199 C  
HETATM    3  H1  UNK     1      -4.596  15.818  67.320  1.00  0.00     0.000 HD 
HETATM    4  H2  UNK     1      -4.786  17.288  66.534  1.00  0.00     0.000 HD 
HETATM    5  C   UNK     1      -7.158  15.019  67.237  1.00  0.00    -0.099 C  
HETATM    6  O   UNK     1      -8.334  14.701  67.181  1.00  0.00    -0.200 OA 
HETATM    7  O   UNK     1      -6.150  14.136  67.467  1.00  0.00    -0.326 OA 
ENDROOT
BRANCH   2   8
HETATM    8  C   UNK     1      -7.489  17.258  66.134  1.00  0.00    -0.286 C  
BRANCH   8   9
HETATM    9  S   UNK     1      -7.331  19.053  66.476  1.00  0.00    -0.244 SA 
BRANCH   9  10
HETATM   10  C   UNK     1      -9.079  19.538  66.226  1.00  0.00    -0.360 C  
HETATM   11  C   UNK     1      -9.943  19.226  67.434  1.00  0.00    -0.368 C  
HETATM   12  O   UNK     1     -11.135  19.502  67.486  1.00  0.00    -0.398 OA 
HETATM   13  O   UNK     1      -9.308  18.615  68.460  1.00  0.00    -0.323 OA 
ENDBRANCH   9  10
ENDBRANCH   8   9
ENDBRANCH   2   8
TORSDOF 3
ENDMDL
MODEL      194
REMARK 921   NORMALIZED FREE ENERGY PREDICTED BY IDOCK:   -2.29 KCAL/MOL
REMARK 922        TOTAL FREE ENERGY PREDICTED BY IDOCK:   -3.12 KCAL/MOL
REMARK 923 INTER-LIGAND FREE ENERGY PREDICTED BY IDOCK:   -3.02 KCAL/MOL
REMARK 924 INTRA-LIGAND FREE ENERGY PREDICTED BY IDOCK:   -0.10 KCAL/MOL
REMARK 927      BINDING AFFINITY PREDICTED BY RF-SCORE:    0.00 PKD
ROOT
HETATM    1  N   UNK     1      -6.505  18.954  66.956  1.00  0.00    -0.190 NA 
HETATM    2  C   UNK     1      -7.968  19.093  66.662  1.00  0.00    -0.272 C  
HETATM    3  H1  UNK     1      -5.927  19.661  66.504  1.00  0.00     0.000 HD 
HETATM    4  H2  UNK     1      -6.178  18.017  66.720  1.00  0.00     0.000 HD 
HETATM    5  C   UNK     1      -8.409  20.496  67.096  1.00  0.00    -0.276 C  
HETATM    6  O   UNK     1      -9.551  20.828  67.368  1.00  0.00    -0.452 OA 
HETATM    7  O   UNK     1      -7.353  21.353  67.111  1.00  0.00    -0.466 OA 
ENDROOT
BRANCH   2   8
HETATM    8  C   UNK     1      -8.839  18.028  67.343  1.00  0.00    -0.245 C  
BRANCH   8   9
HETATM    9  S   UNK     1      -8.079  16.368  67.169  1.00  0.00    -0.201 SA 
BRANCH   9  10
HETATM   10  C   UNK     1      -9.014  15.496  68.480  1.00  0.00    -0.191 C  
HETATM   11  C   UNK     1      -9.843  14.349  67.932  1.00  0.00    -0.224 C  
HETATM   12  O   UNK     1     -10.517  13.617  68.646  1.00  0.00    -0.240 OA 
HETATM   13  O   UNK     1      -9.794  14.187  66.590  1.00  0.00    -0.264 OA 
ENDBRANCH   9  10
ENDBRANCH   8   9
ENDBRANCH   2   8
TORSDOF 3
ENDMDL
MODEL      195
REMARK 921   NORMALIZED FREE ENERGY PREDICTED BY IDOCK:   -2.29 KCAL/MOL
REMARK 922        TOTAL FREE ENERGY PREDICTED BY IDOCK:   -3.12 KCAL/MOL
REMARK 923 INTER-LIGAND FREE ENERGY PREDICTED BY IDOCK:   -2.94 KCAL/MOL
REMARK 924 INTRA-LIGAND FREE ENERGY PREDICTED BY IDOCK:   -0.18 KCAL/MOL
REMARK 927      BINDING AFFINITY PREDICTED BY RF-SCORE:    0.00 PKD
ROOT
HETATM    1  N   UNK     1     -12.133   6.743  69.728  1.00  0.00    -0.562 NA 
HETATM    2  C   UNK     1     -11.229   7.534  70.624  1.00  0.00    -0.268 C  
HETATM    3  H1  UNK     1     -12.107   5.739  69.903  1.00  0.00     0.000 HD 
HETATM    4  H2  UNK     1     -11.933   6.943  68.748  1.00  0.00     0.000 HD 
HETATM    5  C   UNK     1     -11.623   7.237  72.077  1.00  0.00    -0.274 C  
HETATM    6  O   UNK     1     -11.392   7.956  73.035  1.00  0.00    -0.408 OA 
HETATM    7  O   UNK     1     -12.247   6.033  72.174  1.00  0.00    -0.288 OA 
ENDROOT
BRANCH   2   8
HETATM    8  C   UNK     1     -11.268   9.046  70.361  1.00  0.00    -0.241 C  
BRANCH   8   9
HETATM    9  S   UNK     1      -9.634   9.640  69.780  1.00  0.00    -0.231 SA 
BRANCH   9  10
HETATM   10  C   UNK     1      -9.072   8.121  68.927  1.00  0.00    -0.147 C  
HETATM   11  C   UNK     1      -9.468   8.101  67.462  1.00  0.00    -0.152 C  
HETATM   12  O   UNK     1      -9.160   7.190  66.704  1.00  0.00    -0.138 OA 
HETATM   13  O   UNK     1     -10.191   9.164  67.043  1.00  0.00    -0.226 OA 
ENDBRANCH   9  10
ENDBRANCH   8   9
ENDBRANCH   2   8
TORSDOF 3
ENDMDL
MODEL      196
REMARK 921   NORMALIZED FREE ENERGY PREDICTED BY IDOCK:   -2.28 KCAL/MOL
REMARK 922        TOTAL FREE ENERGY PREDICTED BY IDOCK:   -3.11 KCAL/MOL
REMARK 923 INTER-LIGAND FREE ENERGY PREDICTED BY IDOCK:   -2.90 KCAL/MOL
REMARK 924 INTRA-LIGAND FREE ENERGY PREDICTED BY IDOCK:   -0.21 KCAL/MOL
REMARK 927      BINDING AFFINITY PREDICTED BY RF-SCORE:    0.00 PKD
ROOT
HETATM    1  N   UNK     1      -9.382   8.122  68.289  1.00  0.00    -0.134 NA 
HETATM    2  C   UNK     1      -9.666   7.910  69.745  1.00  0.00    -0.176 C  
HETATM    3  H1  UNK     1      -9.685   9.031  67.940  1.00  0.00     0.000 HD 
HETATM    4  H2  UNK     1      -9.784   7.369  67.730  1.00  0.00     0.000 HD 
HETATM    5  C   UNK     1      -8.983   9.035  70.531  1.00  0.00    -0.213 C  
HETATM    6  O   UNK     1      -8.670   8.988  71.709  1.00  0.00    -0.350 OA 
HETATM    7  O   UNK     1      -8.792  10.129  69.745  1.00  0.00    -0.193 OA 
ENDROOT
BRANCH   2   8
HETATM    8  C   UNK     1      -9.210   6.542  70.270  1.00  0.00    -0.155 C  
BRANCH   8   9
HETATM    9  S   UNK     1     -10.435   5.866  71.455  1.00  0.00    -0.241 SA 
BRANCH   9  10
HETATM   10  C   UNK     1     -11.920   6.754  70.856  1.00  0.00    -0.383 C  
HETATM   11  C   UNK     1     -12.346   7.867  71.796  1.00  0.00    -0.320 C  
HETATM   12  O   UNK     1     -13.296   8.604  71.564  1.00  0.00    -0.336 OA 
HETATM   13  O   UNK     1     -11.605   7.992  72.919  1.00  0.00    -0.397 OA 
ENDBRANCH   9  10
ENDBRANCH   8   9
ENDBRANCH   2   8
TORSDOF 3
ENDMDL
MODEL      197
REMARK 921   NORMALIZED FREE ENERGY PREDICTED BY IDOCK:   -2.27 KCAL/MOL
REMARK 922        TOTAL FREE ENERGY PREDICTED BY IDOCK:   -3.10 KCAL/MOL
REMARK 923 INTER-LIGAND FREE ENERGY PREDICTED BY IDOCK:   -2.89 KCAL/MOL
REMARK 924 INTRA-LIGAND FREE ENERGY PREDICTED BY IDOCK:   -0.21 KCAL/MOL
REMARK 927      BINDING AFFINITY PREDICTED BY RF-SCORE:    0.00 PKD
ROOT
HETATM    1  N   UNK     1     -12.844   7.442  72.360  1.00  0.00    -0.493 NA 
HETATM    2  C   UNK     1     -12.071   6.863  71.215  1.00  0.00    -0.373 C  
HETATM    3  H1  UNK     1     -13.369   6.749  72.894  1.00  0.00     0.000 HD 
HETATM    4  H2  UNK     1     -13.460   8.189  72.038  1.00  0.00     0.000 HD 
HETATM    5  C   UNK     1     -11.123   5.794  71.775  1.00  0.00    -0.238 C  
HETATM    6  O   UNK     1     -10.104   5.398  71.235  1.00  0.00    -0.191 OA 
HETATM    7  O   UNK     1     -11.585   5.308  72.958  1.00  0.00    -0.313 OA 
ENDROOT
BRANCH   2   8
HETATM    8  C   UNK     1     -11.281   7.906  70.413  1.00  0.00    -0.234 C  
BRANCH   8   9
HETATM    9  S   UNK     1     -10.439   9.082  71.540  1.00  0.00    -0.349 SA 
BRANCH   9  10
HETATM   10  C   UNK     1      -8.705   8.711  71.084  1.00  0.00    -0.197 C  
HETATM   11  C   UNK     1      -7.816   8.523  72.299  1.00  0.00    -0.063 C  
HETATM   12  O   UNK     1      -6.629   8.235  72.215  1.00  0.00    -0.069 OA 
HETATM   13  O   UNK     1      -8.423   8.699  73.495  1.00  0.00    -0.370 OA 
ENDBRANCH   9  10
ENDBRANCH   8   9
ENDBRANCH   2   8
TORSDOF 3
ENDMDL
MODEL      198
REMARK 921   NORMALIZED FREE ENERGY PREDICTED BY IDOCK:   -2.27 KCAL/MOL
REMARK 922        TOTAL FREE ENERGY PREDICTED BY IDOCK:   -3.10 KCAL/MOL
REMARK 923 INTER-LIGAND FREE ENERGY PREDICTED BY IDOCK:   -2.97 KCAL/MOL
REMARK 924 INTRA-LIGAND FREE ENERGY PREDICTED BY IDOCK:   -0.13 KCAL/MOL
REMARK 927      BINDING AFFINITY PREDICTED BY RF-SCORE:    0.00 PKD
ROOT
HETATM    1  N   UNK     1      -8.419  11.064  65.277  1.00  0.00    -0.365 NA 
HETATM    2  C   UNK     1      -8.630  10.835  66.742  1.00  0.00    -0.136 C  
HETATM    3  H1  UNK     1      -8.258  10.208  64.747  1.00  0.00     0.000 HD 
HETATM    4  H2  UNK     1      -7.662  11.730  65.121  1.00  0.00     0.000 HD 
HETATM    5  C   UNK     1      -9.817   9.878  66.908  1.00  0.00    -0.199 C  
HETATM    6  O   UNK     1     -10.507   9.770  67.907  1.00  0.00    -0.208 OA 
HETATM    7  O   UNK     1      -9.991   9.124  65.789  1.00  0.00    -0.277 OA 
ENDROOT
BRANCH   2   8
HETATM    8  C   UNK     1      -8.872  12.125  67.540  1.00  0.00    -0.175 C  
BRANCH   8   9
HETATM    9  S   UNK     1      -9.667  13.395  66.483  1.00  0.00    -0.280 SA 
BRANCH   9  10
HETATM   10  C   UNK     1      -9.926  14.689  67.752  1.00  0.00    -0.224 C  
HETATM   11  C   UNK     1     -11.397  14.983  67.986  1.00  0.00    -0.327 C  
HETATM   12  O   UNK     1     -11.788  15.792  68.818  1.00  0.00    -0.387 OA 
HETATM   13  O   UNK     1     -12.258  14.289  67.207  1.00  0.00    -0.393 OA 
ENDBRANCH   9  10
ENDBRANCH   8   9
ENDBRANCH   2   8
TORSDOF 3
ENDMDL
MODEL      199
REMARK 921   NORMALIZED FREE ENERGY PREDICTED BY IDOCK:   -2.23 KCAL/MOL
REMARK 922        TOTAL FREE ENERGY PREDICTED BY IDOCK:   -3.05 KCAL/MOL
REMARK 923 INTER-LIGAND FREE ENERGY PREDICTED BY IDOCK:   -2.86 KCAL/MOL
REMARK 924 INTRA-LIGAND FREE ENERGY PREDICTED BY IDOCK:   -0.19 KCAL/MOL
REMARK 927      BINDING AFFINITY PREDICTED BY RF-SCORE:    0.00 PKD
ROOT
HETATM    1  N   UNK     1      -7.389  12.229  66.760  1.00  0.00    -0.381 NA 
HETATM    2  C   UNK     1      -8.616  12.982  67.177  1.00  0.00    -0.195 C  
HETATM    3  H1  UNK     1      -6.760  12.767  66.165  1.00  0.00     0.000 HD 
HETATM    4  H2  UNK     1      -7.642  11.348  66.312  1.00  0.00     0.000 HD 
HETATM    5  C   UNK     1      -8.167  14.260  67.897  1.00  0.00    -0.156 C  
HETATM    6  O   UNK     1      -8.839  14.901  68.688  1.00  0.00    -0.167 OA 
HETATM    7  O   UNK     1      -6.912  14.617  67.513  1.00  0.00    -0.177 OA 
ENDROOT
BRANCH   2   8
HETATM    8  C   UNK     1      -9.563  12.172  68.073  1.00  0.00    -0.204 C  
BRANCH   8   9
HETATM    9  S   UNK     1     -11.194  11.961  67.261  1.00  0.00    -0.333 SA 
BRANCH   9  10
HETATM   10  C   UNK     1     -10.790  12.693  65.632  1.00  0.00    -0.274 C  
HETATM   11  C   UNK     1     -10.476  11.639  64.586  1.00  0.00    -0.302 C  
HETATM   12  O   UNK     1     -10.214  11.916  63.423  1.00  0.00    -0.413 OA 
HETATM   13  O   UNK     1     -10.502  10.360  65.026  1.00  0.00    -0.262 OA 
ENDBRANCH   9  10
ENDBRANCH   8   9
ENDBRANCH   2   8
TORSDOF 3
ENDMDL
MODEL      200
REMARK 921   NORMALIZED FREE ENERGY PREDICTED BY IDOCK:   -2.22 KCAL/MOL
REMARK 922        TOTAL FREE ENERGY PREDICTED BY IDOCK:   -3.04 KCAL/MOL
REMARK 923 INTER-LIGAND FREE ENERGY PREDICTED BY IDOCK:   -2.91 KCAL/MOL
REMARK 924 INTRA-LIGAND FREE ENERGY PREDICTED BY IDOCK:   -0.13 KCAL/MOL
REMARK 927      BINDING AFFINITY PREDICTED BY RF-SCORE:    0.00 PKD
ROOT
HETATM    1  N   UNK     1      -7.895  10.357  67.537  1.00  0.00    -0.105 NA 
HETATM    2  C   UNK     1      -9.330  10.771  67.654  1.00  0.00    -0.147 C  
HETATM    3  H1  UNK     1      -7.316  10.659  68.319  1.00  0.00     0.000 HD 
HETATM    4  H2  UNK     1      -7.499  10.675  66.652  1.00  0.00     0.000 HD 
HETATM    5  C   UNK     1      -9.881  10.209  68.970  1.00  0.00    -0.205 C  
HETATM    6  O   UNK     1     -11.058  10.009  69.218  1.00  0.00    -0.228 OA 
HETATM    7  O   UNK     1      -8.877   9.985  69.860  1.00  0.00    -0.205 OA 
ENDROOT
BRANCH   2   8
HETATM    8  C   UNK     1     -10.202  10.316  66.475  1.00  0.00    -0.226 C  
BRANCH   8   9
HETATM    9  S   UNK     1     -10.997  11.758  65.668  1.00  0.00    -0.274 SA 
BRANCH   9  10
HETATM   10  C   UNK     1     -10.800  12.977  67.020  1.00  0.00    -0.261 C  
HETATM   11  C   UNK     1     -11.839  14.081  66.958  1.00  0.00    -0.428 C  
HETATM   12  O   UNK     1     -11.904  14.977  67.789  1.00  0.00    -0.336 OA 
HETATM   13  O   UNK     1     -12.697  14.012  65.915  1.00  0.00    -0.495 OA 
ENDBRANCH   9  10
ENDBRANCH   8   9
ENDBRANCH   2   8
TORSDOF 3
ENDMDL
MODEL      201
REMARK 921   NORMALIZED FREE ENERGY PREDICTED BY IDOCK:   -2.20 KCAL/MOL
REMARK 922        TOTAL FREE ENERGY PREDICTED BY IDOCK:   -3.01 KCAL/MOL
REMARK 923 INTER-LIGAND FREE ENERGY PREDICTED BY IDOCK:   -2.86 KCAL/MOL
REMARK 924 INTRA-LIGAND FREE ENERGY PREDICTED BY IDOCK:   -0.15 KCAL/MOL
REMARK 927      BINDING AFFINITY PREDICTED BY RF-SCORE:    0.00 PKD
ROOT
HETATM    1  N   UNK     1     -10.756  10.297  68.661  1.00  0.00    -0.211 NA 
HETATM    2  C   UNK     1     -11.100  10.426  67.208  1.00  0.00    -0.179 C  
HETATM    3  H1  UNK     1     -10.725   9.333  68.991  1.00  0.00     0.000 HD 
HETATM    4  H2  UNK     1     -11.393  10.852  69.232  1.00  0.00     0.000 HD 
HETATM    5  C   UNK     1     -10.070   9.622  66.403  1.00  0.00    -0.247 C  
HETATM    6  O   UNK     1      -9.796   9.797  65.228  1.00  0.00    -0.313 OA 
HETATM    7  O   UNK     1      -9.510   8.647  67.169  1.00  0.00    -0.147 OA 
ENDROOT
BRANCH   2   8
HETATM    8  C   UNK     1     -11.146  11.877  66.711  1.00  0.00    -0.308 C  
BRANCH   8   9
HETATM    9  S   UNK     1      -9.710  12.823  67.349  1.00  0.00    -0.201 SA 
BRANCH   9  10
HETATM   10  C   UNK     1     -10.581  13.842  68.596  1.00  0.00    -0.253 C  
HETATM   11  C   UNK     1     -11.155  15.116  68.002  1.00  0.00    -0.308 C  
HETATM   12  O   UNK     1     -11.803  15.920  68.660  1.00  0.00    -0.388 OA 
HETATM   13  O   UNK     1     -10.900  15.309  66.689  1.00  0.00    -0.308 OA 
ENDBRANCH   9  10
ENDBRANCH   8   9
ENDBRANCH   2   8
TORSDOF 3
ENDMDL
MODEL      202
REMARK 921   NORMALIZED FREE ENERGY PREDICTED BY IDOCK:   -2.19 KCAL/MOL
REMARK 922        TOTAL FREE ENERGY PREDICTED BY IDOCK:   -3.01 KCAL/MOL
REMARK 923 INTER-LIGAND FREE ENERGY PREDICTED BY IDOCK:   -2.56 KCAL/MOL
REMARK 924 INTRA-LIGAND FREE ENERGY PREDICTED BY IDOCK:   -0.45 KCAL/MOL
REMARK 927      BINDING AFFINITY PREDICTED BY RF-SCORE:    0.00 PKD
ROOT
HETATM    1  N   UNK     1      -9.886   4.267  71.148  1.00  0.00    -0.185 NA 
HETATM    2  C   UNK     1     -10.180   4.109  72.608  1.00  0.00    -0.169 C  
HETATM    3  H1  UNK     1      -9.157   3.642  70.806  1.00  0.00     0.000 HD 
HETATM    4  H2  UNK     1      -9.659   5.237  70.929  1.00  0.00     0.000 HD 
HETATM    5  C   UNK     1     -10.574   2.648  72.858  1.00  0.00    -0.132 C  
HETATM    6  O   UNK     1     -11.231   2.242  73.802  1.00  0.00    -0.189 OA 
HETATM    7  O   UNK     1     -10.062   1.836  71.894  1.00  0.00    -0.149 OA 
ENDROOT
BRANCH   2   8
HETATM    8  C   UNK     1     -11.277   5.051  73.123  1.00  0.00    -0.335 C  
BRANCH   8   9
HETATM    9  S   UNK     1     -11.501   6.465  71.977  1.00  0.00    -0.317 SA 
BRANCH   9  10
HETATM   10  C   UNK     1     -10.559   7.729  72.908  1.00  0.00    -0.366 C  
HETATM   11  C   UNK     1      -9.171   7.953  72.336  1.00  0.00    -0.181 C  
HETATM   12  O   UNK     1      -8.392   8.780  72.791  1.00  0.00    -0.412 OA 
HETATM   13  O   UNK     1      -8.846   7.170  71.282  1.00  0.00    -0.129 OA 
ENDBRANCH   9  10
ENDBRANCH   8   9
ENDBRANCH   2   8
TORSDOF 3
ENDMDL
MODEL      203
REMARK 921   NORMALIZED FREE ENERGY PREDICTED BY IDOCK:   -2.19 KCAL/MOL
REMARK 922        TOTAL FREE ENERGY PREDICTED BY IDOCK:   -3.01 KCAL/MOL
REMARK 923 INTER-LIGAND FREE ENERGY PREDICTED BY IDOCK:   -2.92 KCAL/MOL
REMARK 924 INTRA-LIGAND FREE ENERGY PREDICTED BY IDOCK:   -0.08 KCAL/MOL
REMARK 927      BINDING AFFINITY PREDICTED BY RF-SCORE:    0.00 PKD
ROOT
HETATM    1  N   UNK     1     -12.714  10.518  69.576  1.00  0.00    -0.640 NA 
HETATM    2  C   UNK     1     -11.461   9.697  69.618  1.00  0.00    -0.001 C  
HETATM    3  H1  UNK     1     -13.465  10.150  70.159  1.00  0.00     0.000 HD 
HETATM    4  H2  UNK     1     -13.032  10.641  68.615  1.00  0.00     0.000 HD 
HETATM    5  C   UNK     1     -11.003   9.604  71.079  1.00  0.00    -0.361 C  
HETATM    6  O   UNK     1      -9.867   9.364  71.452  1.00  0.00    -0.260 OA 
HETATM    7  O   UNK     1     -12.048   9.794  71.928  1.00  0.00    -0.375 OA 
ENDROOT
BRANCH   2   8
HETATM    8  C   UNK     1     -10.330  10.251  68.741  1.00  0.00    -0.195 C  
BRANCH   8   9
HETATM    9  S   UNK     1     -10.872  10.372  66.993  1.00  0.00    -0.149 SA 
BRANCH   9  10
HETATM   10  C   UNK     1      -9.301   9.893  66.182  1.00  0.00    -0.181 C  
HETATM   11  C   UNK     1      -9.285  10.241  64.705  1.00  0.00    -0.244 C  
HETATM   12  O   UNK     1      -8.315  10.036  63.986  1.00  0.00    -0.151 OA 
HETATM   13  O   UNK     1     -10.422  10.795  64.227  1.00  0.00    -0.367 OA 
ENDBRANCH   9  10
ENDBRANCH   8   9
ENDBRANCH   2   8
TORSDOF 3
ENDMDL
MODEL      204
REMARK 921   NORMALIZED FREE ENERGY PREDICTED BY IDOCK:   -2.19 KCAL/MOL
REMARK 922        TOTAL FREE ENERGY PREDICTED BY IDOCK:   -3.00 KCAL/MOL
REMARK 923 INTER-LIGAND FREE ENERGY PREDICTED BY IDOCK:   -2.82 KCAL/MOL
REMARK 924 INTRA-LIGAND FREE ENERGY PREDICTED BY IDOCK:   -0.18 KCAL/MOL
REMARK 927      BINDING AFFINITY PREDICTED BY RF-SCORE:    0.00 PKD
ROOT
HETATM    1  N   UNK     1     -11.101   6.300  66.642  1.00  0.00    -0.748 NA 
HETATM    2  C   UNK     1     -10.250   7.360  67.273  1.00  0.00    -0.260 C  
HETATM    3  H1  UNK     1     -10.850   5.352  66.922  1.00  0.00     0.000 HD 
HETATM    4  H2  UNK     1     -11.092   6.389  65.625  1.00  0.00     0.000 HD 
HETATM    5  C   UNK     1     -10.357   7.210  68.796  1.00  0.00    -0.192 C  
HETATM    6  O   UNK     1     -10.135   8.089  69.612  1.00  0.00    -0.189 OA 
HETATM    7  O   UNK     1     -10.708   5.941  69.135  1.00  0.00    -0.271 OA 
ENDROOT
BRANCH   2   8
HETATM    8  C   UNK     1     -10.628   8.787  66.851  1.00  0.00    -0.193 C  
BRANCH   8   9
HETATM    9  S   UNK     1      -9.126   9.757  66.444  1.00  0.00    -0.161 SA 
BRANCH   9  10
HETATM   10  C   UNK     1      -8.584   8.822  64.966  1.00  0.00    -0.169 C  
HETATM   11  C   UNK     1      -8.864   9.570  63.675  1.00  0.00    -0.210 C  
HETATM   12  O   UNK     1      -8.548   9.134  62.575  1.00  0.00    -0.198 OA 
HETATM   13  O   UNK     1      -9.493  10.758  63.818  1.00  0.00    -0.233 OA 
ENDBRANCH   9  10
ENDBRANCH   8   9
ENDBRANCH   2   8
TORSDOF 3
ENDMDL
MODEL      205
REMARK 921   NORMALIZED FREE ENERGY PREDICTED BY IDOCK:   -2.18 KCAL/MOL
REMARK 922        TOTAL FREE ENERGY PREDICTED BY IDOCK:   -2.99 KCAL/MOL
REMARK 923 INTER-LIGAND FREE ENERGY PREDICTED BY IDOCK:   -2.88 KCAL/MOL
REMARK 924 INTRA-LIGAND FREE ENERGY PREDICTED BY IDOCK:   -0.11 KCAL/MOL
REMARK 927      BINDING AFFINITY PREDICTED BY RF-SCORE:    0.00 PKD
ROOT
HETATM    1  N   UNK     1     -11.909   7.610  72.896  1.00  0.00    -0.607 NA 
HETATM    2  C   UNK     1     -11.407   6.376  72.209  1.00  0.00    -0.290 C  
HETATM    3  H1  UNK     1     -12.186   7.455  73.865  1.00  0.00     0.000 HD 
HETATM    4  H2  UNK     1     -12.674   8.030  72.367  1.00  0.00     0.000 HD 
HETATM    5  C   UNK     1     -10.223   5.831  73.018  1.00  0.00    -0.187 C  
HETATM    6  O   UNK     1      -9.346   5.102  72.586  1.00  0.00    -0.137 OA 
HETATM    7  O   UNK     1     -10.291   6.242  74.312  1.00  0.00    -0.314 OA 
ENDROOT
BRANCH   2   8
HETATM    8  C   UNK     1     -10.992   6.608  70.749  1.00  0.00    -0.270 C  
BRANCH   8   9
HETATM    9  S   UNK     1     -10.502   8.356  70.490  1.00  0.00    -0.212 SA 
BRANCH   9  10
HETATM   10  C   UNK     1     -10.356   8.336  68.665  1.00  0.00    -0.200 C  
HETATM   11  C   UNK     1     -10.730   9.667  68.040  1.00  0.00    -0.232 C  
HETATM   12  O   UNK     1     -10.668   9.875  66.835  1.00  0.00    -0.203 OA 
HETATM   13  O   UNK     1     -11.144  10.619  68.907  1.00  0.00    -0.226 OA 
ENDBRANCH   9  10
ENDBRANCH   8   9
ENDBRANCH   2   8
TORSDOF 3
ENDMDL
MODEL      206
REMARK 921   NORMALIZED FREE ENERGY PREDICTED BY IDOCK:   -2.17 KCAL/MOL
REMARK 922        TOTAL FREE ENERGY PREDICTED BY IDOCK:   -2.99 KCAL/MOL
REMARK 923 INTER-LIGAND FREE ENERGY PREDICTED BY IDOCK:   -2.88 KCAL/MOL
REMARK 924 INTRA-LIGAND FREE ENERGY PREDICTED BY IDOCK:   -0.11 KCAL/MOL
REMARK 927      BINDING AFFINITY PREDICTED BY RF-SCORE:    0.00 PKD
ROOT
HETATM    1  N   UNK     1     -12.495  11.364  70.624  1.00  0.00    -0.340 NA 
HETATM    2  C   UNK     1     -11.470  10.279  70.754  1.00  0.00    -0.351 C  
HETATM    3  H1  UNK     1     -12.095  12.296  70.523  1.00  0.00     0.000 HD 
HETATM    4  H2  UNK     1     -13.150  11.337  71.406  1.00  0.00     0.000 HD 
HETATM    5  C   UNK     1     -10.560  10.335  69.521  1.00  0.00    -0.245 C  
HETATM    6  O   UNK     1      -9.888   9.411  69.094  1.00  0.00    -0.165 OA 
HETATM    7  O   UNK     1     -10.570  11.577  68.967  1.00  0.00    -0.210 OA 
ENDROOT
BRANCH   2   8
HETATM    8  C   UNK     1     -12.073   8.875  70.907  1.00  0.00    -0.177 C  
BRANCH   8   9
HETATM    9  S   UNK     1     -11.602   8.144  72.521  1.00  0.00    -0.371 SA 
BRANCH   9  10
HETATM   10  C   UNK     1     -11.911   6.383  72.129  1.00  0.00    -0.298 C  
HETATM   11  C   UNK     1     -11.240   5.445  73.116  1.00  0.00    -0.297 C  
HETATM   12  O   UNK     1     -11.349   4.227  73.053  1.00  0.00    -0.155 OA 
HETATM   13  O   UNK     1     -10.503   6.046  74.077  1.00  0.00    -0.271 OA 
ENDBRANCH   9  10
ENDBRANCH   8   9
ENDBRANCH   2   8
TORSDOF 3
ENDMDL
MODEL      207
REMARK 921   NORMALIZED FREE ENERGY PREDICTED BY IDOCK:   -2.17 KCAL/MOL
REMARK 922        TOTAL FREE ENERGY PREDICTED BY IDOCK:   -2.98 KCAL/MOL
REMARK 923 INTER-LIGAND FREE ENERGY PREDICTED BY IDOCK:   -2.59 KCAL/MOL
REMARK 924 INTRA-LIGAND FREE ENERGY PREDICTED BY IDOCK:   -0.39 KCAL/MOL
REMARK 927      BINDING AFFINITY PREDICTED BY RF-SCORE:    0.00 PKD
ROOT
HETATM    1  N   UNK     1     -10.062   4.941  69.544  1.00  0.00    -0.230 NA 
HETATM    2  C   UNK     1     -11.099   5.900  69.043  1.00  0.00    -0.225 C  
HETATM    3  H1  UNK     1     -10.067   4.043  69.062  1.00  0.00     0.000 HD 
HETATM    4  H2  UNK     1     -10.151   4.809  70.552  1.00  0.00     0.000 HD 
HETATM    5  C   UNK     1     -10.871   6.103  67.540  1.00  0.00    -0.332 C  
HETATM    6  O   UNK     1     -11.245   7.065  66.890  1.00  0.00    -0.302 OA 
HETATM    7  O   UNK     1     -10.213   5.042  67.001  1.00  0.00    -0.204 OA 
ENDROOT
BRANCH   2   8
HETATM    8  C   UNK     1     -11.091   7.252  69.769  1.00  0.00    -0.182 C  
BRANCH   8   9
HETATM    9  S   UNK     1      -9.448   7.572  70.518  1.00  0.00    -0.163 SA 
BRANCH   9  10
HETATM   10  C   UNK     1      -9.991   7.977  72.219  1.00  0.00    -0.239 C  
HETATM   11  C   UNK     1     -10.189   6.738  73.073  1.00  0.00    -0.214 C  
HETATM   12  O   UNK     1     -10.518   6.790  74.251  1.00  0.00    -0.338 OA 
HETATM   13  O   UNK     1      -9.979   5.561  72.443  1.00  0.00    -0.164 OA 
ENDBRANCH   9  10
ENDBRANCH   8   9
ENDBRANCH   2   8
TORSDOF 3
ENDMDL
MODEL      208
REMARK 921   NORMALIZED FREE ENERGY PREDICTED BY IDOCK:   -2.15 KCAL/MOL
REMARK 922        TOTAL FREE ENERGY PREDICTED BY IDOCK:   -2.96 KCAL/MOL
REMARK 923 INTER-LIGAND FREE ENERGY PREDICTED BY IDOCK:   -2.96 KCAL/MOL
REMARK 924 INTRA-LIGAND FREE ENERGY PREDICTED BY IDOCK:   -0.01 KCAL/MOL
REMARK 927      BINDING AFFINITY PREDICTED BY RF-SCORE:    0.00 PKD
ROOT
HETATM    1  N   UNK     1      -9.882   9.631  66.185  1.00  0.00    -0.247 NA 
HETATM    2  C   UNK     1     -10.490  10.988  66.369  1.00  0.00    -0.258 C  
HETATM    3  H1  UNK     1     -10.375   9.049  65.508  1.00  0.00     0.000 HD 
HETATM    4  H2  UNK     1      -9.799   9.149  67.080  1.00  0.00     0.000 HD 
HETATM    5  C   UNK     1     -10.528  11.682  65.001  1.00  0.00    -0.285 C  
HETATM    6  O   UNK     1     -10.586  12.886  64.818  1.00  0.00    -0.308 OA 
HETATM    7  O   UNK     1     -10.522  10.767  63.994  1.00  0.00    -0.358 OA 
ENDROOT
BRANCH   2   8
HETATM    8  C   UNK     1      -9.748  11.864  67.388  1.00  0.00    -0.184 C  
BRANCH   8   9
HETATM    9  S   UNK     1     -10.891  13.083  68.143  1.00  0.00    -0.257 SA 
BRANCH   9  10
HETATM   10  C   UNK     1      -9.663  14.348  68.636  1.00  0.00    -0.216 C  
HETATM   11  C   UNK     1     -10.256  15.744  68.676  1.00  0.00    -0.221 C  
HETATM   12  O   UNK     1      -9.611  16.729  69.015  1.00  0.00    -0.259 OA 
HETATM   13  O   UNK     1     -11.554  15.834  68.308  1.00  0.00    -0.361 OA 
ENDBRANCH   9  10
ENDBRANCH   8   9
ENDBRANCH   2   8
TORSDOF 3
ENDMDL
MODEL      209
REMARK 921   NORMALIZED FREE ENERGY PREDICTED BY IDOCK:   -2.14 KCAL/MOL
REMARK 922        TOTAL FREE ENERGY PREDICTED BY IDOCK:   -2.95 KCAL/MOL
REMARK 923 INTER-LIGAND FREE ENERGY PREDICTED BY IDOCK:   -2.79 KCAL/MOL
REMARK 924 INTRA-LIGAND FREE ENERGY PREDICTED BY IDOCK:   -0.16 KCAL/MOL
REMARK 927      BINDING AFFINITY PREDICTED BY RF-SCORE:    0.00 PKD
ROOT
HETATM    1  N   UNK     1     -10.646  10.643  69.969  1.00  0.00    -0.463 NA 
HETATM    2  C   UNK     1     -10.519  10.948  68.508  1.00  0.00    -0.188 C  
HETATM    3  H1  UNK     1     -10.568  11.464  70.568  1.00  0.00     0.000 HD 
HETATM    4  H2  UNK     1      -9.973   9.929  70.248  1.00  0.00     0.000 HD 
HETATM    5  C   UNK     1     -11.597  11.977  68.142  1.00  0.00    -0.340 C  
HETATM    6  O   UNK     1     -12.044  12.168  67.024  1.00  0.00    -0.591 OA 
HETATM    7  O   UNK     1     -11.979  12.688  69.236  1.00  0.00    -0.292 OA 
ENDROOT
BRANCH   2   8
HETATM    8  C   UNK     1     -10.636   9.712  67.606  1.00  0.00    -0.275 C  
BRANCH   8   9
HETATM    9  S   UNK     1      -9.195   9.598  66.478  1.00  0.00    -0.166 SA 
BRANCH   9  10
HETATM   10  C   UNK     1      -8.137   8.498  67.489  1.00  0.00    -0.107 C  
HETATM   11  C   UNK     1      -8.257   7.042  67.077  1.00  0.00    -0.117 C  
HETATM   12  O   UNK     1      -7.608   6.148  67.604  1.00  0.00    -0.093 OA 
HETATM   13  O   UNK     1      -9.137   6.793  66.081  1.00  0.00    -0.154 OA 
ENDBRANCH   9  10
ENDBRANCH   8   9
ENDBRANCH   2   8
TORSDOF 3
ENDMDL
MODEL      210
REMARK 921   NORMALIZED FREE ENERGY PREDICTED BY IDOCK:   -2.11 KCAL/MOL
REMARK 922        TOTAL FREE ENERGY PREDICTED BY IDOCK:   -2.91 KCAL/MOL
REMARK 923 INTER-LIGAND FREE ENERGY PREDICTED BY IDOCK:   -2.68 KCAL/MOL
REMARK 924 INTRA-LIGAND FREE ENERGY PREDICTED BY IDOCK:   -0.23 KCAL/MOL
REMARK 927      BINDING AFFINITY PREDICTED BY RF-SCORE:    0.00 PKD
ROOT
HETATM    1  N   UNK     1     -10.228   8.666  66.323  1.00  0.00    -0.408 NA 
HETATM    2  C   UNK     1      -9.923  10.028  66.868  1.00  0.00    -0.209 C  
HETATM    3  H1  UNK     1      -9.432   8.217  65.871  1.00  0.00     0.000 HD 
HETATM    4  H2  UNK     1     -11.027   8.702  65.690  1.00  0.00     0.000 HD 
HETATM    5  C   UNK     1      -8.757   9.894  67.857  1.00  0.00    -0.129 C  
HETATM    6  O   UNK     1      -8.495  10.678  68.754  1.00  0.00    -0.133 OA 
HETATM    7  O   UNK     1      -8.016   8.787  67.585  1.00  0.00    -0.105 OA 
ENDROOT
BRANCH   2   8
HETATM    8  C   UNK     1     -11.121  10.704  67.548  1.00  0.00    -0.300 C  
BRANCH   8   9
HETATM    9  S   UNK     1     -11.601  12.226  66.645  1.00  0.00    -0.350 SA 
BRANCH   9  10
HETATM   10  C   UNK     1     -11.742  13.363  68.072  1.00  0.00    -0.356 C  
HETATM   11  C   UNK     1     -10.461  14.137  68.324  1.00  0.00    -0.249 C  
HETATM   12  O   UNK     1     -10.355  14.974  69.211  1.00  0.00    -0.234 OA 
HETATM   13  O   UNK     1      -9.431  13.836  67.501  1.00  0.00    -0.208 OA 
ENDBRANCH   9  10
ENDBRANCH   8   9
ENDBRANCH   2   8
TORSDOF 3
ENDMDL
MODEL      211
REMARK 921   NORMALIZED FREE ENERGY PREDICTED BY IDOCK:   -2.10 KCAL/MOL
REMARK 922        TOTAL FREE ENERGY PREDICTED BY IDOCK:   -2.89 KCAL/MOL
REMARK 923 INTER-LIGAND FREE ENERGY PREDICTED BY IDOCK:   -2.45 KCAL/MOL
REMARK 924 INTRA-LIGAND FREE ENERGY PREDICTED BY IDOCK:   -0.44 KCAL/MOL
REMARK 927      BINDING AFFINITY PREDICTED BY RF-SCORE:    0.00 PKD
ROOT
HETATM    1  N   UNK     1      -9.898   8.619  69.242  1.00  0.00    -0.184 NA 
HETATM    2  C   UNK     1     -10.578   9.952  69.311  1.00  0.00    -0.224 C  
HETATM    3  H1  UNK     1      -9.455   8.338  70.117  1.00  0.00     0.000 HD 
HETATM    4  H2  UNK     1      -9.226   8.596  68.476  1.00  0.00     0.000 HD 
HETATM    5  C   UNK     1     -11.617   9.897  70.439  1.00  0.00    -0.282 C  
HETATM    6  O   UNK     1     -12.594  10.621  70.538  1.00  0.00    -0.332 OA 
HETATM    7  O   UNK     1     -11.291   8.944  71.352  1.00  0.00    -0.263 OA 
ENDROOT
BRANCH   2   8
HETATM    8  C   UNK     1     -11.245  10.373  67.995  1.00  0.00    -0.272 C  
BRANCH   8   9
HETATM    9  S   UNK     1     -10.011  11.106  66.853  1.00  0.00    -0.203 SA 
BRANCH   9  10
HETATM   10  C   UNK     1      -9.963   9.770  65.602  1.00  0.00    -0.282 C  
HETATM   11  C   UNK     1      -8.799   8.819  65.815  1.00  0.00    -0.195 C  
HETATM   12  O   UNK     1      -8.606   7.839  65.108  1.00  0.00    -0.109 OA 
HETATM   13  O   UNK     1      -7.979   9.129  66.844  1.00  0.00    -0.103 OA 
ENDBRANCH   9  10
ENDBRANCH   8   9
ENDBRANCH   2   8
TORSDOF 3
ENDMDL
MODEL      212
REMARK 921   NORMALIZED FREE ENERGY PREDICTED BY IDOCK:   -2.09 KCAL/MOL
REMARK 922        TOTAL FREE ENERGY PREDICTED BY IDOCK:   -2.89 KCAL/MOL
REMARK 923 INTER-LIGAND FREE ENERGY PREDICTED BY IDOCK:   -2.79 KCAL/MOL
REMARK 924 INTRA-LIGAND FREE ENERGY PREDICTED BY IDOCK:   -0.10 KCAL/MOL
REMARK 927      BINDING AFFINITY PREDICTED BY RF-SCORE:    0.00 PKD
ROOT
HETATM    1  N   UNK     1      -8.898  11.951  68.811  1.00  0.00    -0.378 NA 
HETATM    2  C   UNK     1      -8.926  10.642  68.083  1.00  0.00    -0.141 C  
HETATM    3  H1  UNK     1      -8.257  12.633  68.405  1.00  0.00     0.000 HD 
HETATM    4  H2  UNK     1      -8.691  11.809  69.800  1.00  0.00     0.000 HD 
HETATM    5  C   UNK     1      -9.302  10.920  66.622  1.00  0.00    -0.171 C  
HETATM    6  O   UNK     1      -9.788  10.110  65.849  1.00  0.00    -0.212 OA 
HETATM    7  O   UNK     1      -8.992  12.198  66.276  1.00  0.00    -0.184 OA 
ENDROOT
BRANCH   2   8
HETATM    8  C   UNK     1      -9.891   9.617  68.695  1.00  0.00    -0.161 C  
BRANCH   8   9
HETATM    9  S   UNK     1     -10.999  10.422  69.914  1.00  0.00    -0.311 SA 
BRANCH   9  10
HETATM   10  C   UNK     1     -11.358   8.967  70.966  1.00  0.00    -0.297 C  
HETATM   11  C   UNK     1     -12.752   9.019  71.566  1.00  0.00    -0.339 C  
HETATM   12  O   UNK     1     -13.203   8.127  72.273  1.00  0.00    -0.259 OA 
HETATM   13  O   UNK     1     -13.470  10.126  71.270  1.00  0.00    -0.334 OA 
ENDBRANCH   9  10
ENDBRANCH   8   9
ENDBRANCH   2   8
TORSDOF 3
ENDMDL
MODEL      213
REMARK 921   NORMALIZED FREE ENERGY PREDICTED BY IDOCK:   -2.09 KCAL/MOL
REMARK 922        TOTAL FREE ENERGY PREDICTED BY IDOCK:   -2.89 KCAL/MOL
REMARK 923 INTER-LIGAND FREE ENERGY PREDICTED BY IDOCK:   -2.65 KCAL/MOL
REMARK 924 INTRA-LIGAND FREE ENERGY PREDICTED BY IDOCK:   -0.24 KCAL/MOL
REMARK 927      BINDING AFFINITY PREDICTED BY RF-SCORE:    0.00 PKD
ROOT
HETATM    1  N   UNK     1      -9.668   5.657  71.162  1.00  0.00    -0.167 NA 
HETATM    2  C   UNK     1     -10.577   6.836  70.984  1.00  0.00    -0.222 C  
HETATM    3  H1  UNK     1      -9.534   5.387  72.136  1.00  0.00     0.000 HD 
HETATM    4  H2  UNK     1      -8.770   5.823  70.708  1.00  0.00     0.000 HD 
HETATM    5  C   UNK     1     -11.925   6.498  71.633  1.00  0.00    -0.335 C  
HETATM    6  O   UNK     1     -12.993   7.023  71.363  1.00  0.00    -0.382 OA 
HETATM    7  O   UNK     1     -11.777   5.543  72.590  1.00  0.00    -0.293 OA 
ENDROOT
BRANCH   2   8
HETATM    8  C   UNK     1     -10.779   7.243  69.518  1.00  0.00    -0.232 C  
BRANCH   8   9
HETATM    9  S   UNK     1     -10.279   8.988  69.259  1.00  0.00    -0.209 SA 
BRANCH   9  10
HETATM   10  C   UNK     1      -9.350   9.244  70.816  1.00  0.00    -0.258 C  
HETATM   11  C   UNK     1      -7.847   9.235  70.600  1.00  0.00    -0.158 C  
HETATM   12  O   UNK     1      -7.046   9.422  71.507  1.00  0.00    -0.319 OA 
HETATM   13  O   UNK     1      -7.446   9.001  69.330  1.00  0.00    -0.073 OA 
ENDBRANCH   9  10
ENDBRANCH   8   9
ENDBRANCH   2   8
TORSDOF 3
ENDMDL
MODEL      214
REMARK 921   NORMALIZED FREE ENERGY PREDICTED BY IDOCK:   -2.08 KCAL/MOL
REMARK 922        TOTAL FREE ENERGY PREDICTED BY IDOCK:   -2.87 KCAL/MOL
REMARK 923 INTER-LIGAND FREE ENERGY PREDICTED BY IDOCK:   -2.79 KCAL/MOL
REMARK 924 INTRA-LIGAND FREE ENERGY PREDICTED BY IDOCK:   -0.09 KCAL/MOL
REMARK 927      BINDING AFFINITY PREDICTED BY RF-SCORE:    0.00 PKD
ROOT
HETATM    1  N   UNK     1     -12.545  10.132  70.294  1.00  0.00    -0.530 NA 
HETATM    2  C   UNK     1     -11.650   9.018  70.747  1.00  0.00    -0.265 C  
HETATM    3  H1  UNK     1     -13.538   9.915  70.366  1.00  0.00     0.000 HD 
HETATM    4  H2  UNK     1     -12.308  10.420  69.344  1.00  0.00     0.000 HD 
HETATM    5  C   UNK     1     -12.015   8.676  72.197  1.00  0.00    -0.379 C  
HETATM    6  O   UNK     1     -11.283   8.121  73.000  1.00  0.00    -0.338 OA 
HETATM    7  O   UNK     1     -13.293   9.047  72.476  1.00  0.00    -0.453 OA 
ENDROOT
BRANCH   2   8
HETATM    8  C   UNK     1     -10.154   9.344  70.637  1.00  0.00    -0.291 C  
BRANCH   8   9
HETATM    9  S   UNK     1      -9.739   9.899  68.940  1.00  0.00    -0.185 SA 
BRANCH   9  10
HETATM   10  C   UNK     1      -8.040   9.224  68.835  1.00  0.00    -0.103 C  
HETATM   11  C   UNK     1      -7.130  10.081  67.975  1.00  0.00    -0.081 C  
HETATM   12  O   UNK     1      -5.945   9.825  67.803  1.00  0.00    -0.050 OA 
HETATM   13  O   UNK     1      -7.717  11.156  67.402  1.00  0.00    -0.111 OA 
ENDBRANCH   9  10
ENDBRANCH   8   9
ENDBRANCH   2   8
TORSDOF 3
ENDMDL
MODEL      215
REMARK 921   NORMALIZED FREE ENERGY PREDICTED BY IDOCK:   -2.07 KCAL/MOL
REMARK 922        TOTAL FREE ENERGY PREDICTED BY IDOCK:   -2.87 KCAL/MOL
REMARK 923 INTER-LIGAND FREE ENERGY PREDICTED BY IDOCK:   -2.24 KCAL/MOL
REMARK 924 INTRA-LIGAND FREE ENERGY PREDICTED BY IDOCK:   -0.63 KCAL/MOL
REMARK 927      BINDING AFFINITY PREDICTED BY RF-SCORE:    0.00 PKD
ROOT
HETATM    1  N   UNK     1     -10.430   5.292  69.982  1.00  0.00    -0.300 NA 
HETATM    2  C   UNK     1     -10.451   5.319  71.480  1.00  0.00    -0.210 C  
HETATM    3  H1  UNK     1     -11.358   5.292  69.559  1.00  0.00     0.000 HD 
HETATM    4  H2  UNK     1      -9.881   4.502  69.644  1.00  0.00     0.000 HD 
HETATM    5  C   UNK     1     -11.236   6.560  71.922  1.00  0.00    -0.272 C  
HETATM    6  O   UNK     1     -11.139   7.112  73.006  1.00  0.00    -0.302 OA 
HETATM    7  O   UNK     1     -12.096   6.962  70.948  1.00  0.00    -0.366 OA 
ENDROOT
BRANCH   2   8
HETATM    8  C   UNK     1      -9.055   5.318  72.117  1.00  0.00    -0.136 C  
BRANCH   8   9
HETATM    9  S   UNK     1      -7.797   5.890  70.911  1.00  0.00    -0.104 SA 
BRANCH   9  10
HETATM   10  C   UNK     1      -7.682   7.640  71.439  1.00  0.00    -0.081 C  
HETATM   11  C   UNK     1      -8.502   8.564  70.558  1.00  0.00    -0.137 C  
HETATM   12  O   UNK     1      -8.588   9.769  70.759  1.00  0.00    -0.183 OA 
HETATM   13  O   UNK     1      -9.136   7.967  69.523  1.00  0.00    -0.148 OA 
ENDBRANCH   9  10
ENDBRANCH   8   9
ENDBRANCH   2   8
TORSDOF 3
ENDMDL
MODEL      216
REMARK 921   NORMALIZED FREE ENERGY PREDICTED BY IDOCK:   -2.06 KCAL/MOL
REMARK 922        TOTAL FREE ENERGY PREDICTED BY IDOCK:   -2.85 KCAL/MOL
REMARK 923 INTER-LIGAND FREE ENERGY PREDICTED BY IDOCK:   -2.86 KCAL/MOL
REMARK 924 INTRA-LIGAND FREE ENERGY PREDICTED BY IDOCK:    0.01 KCAL/MOL
REMARK 927      BINDING AFFINITY PREDICTED BY RF-SCORE:    0.00 PKD
ROOT
HETATM    1  N   UNK     1     -11.688   9.915  69.047  1.00  0.00    -0.436 NA 
HETATM    2  C   UNK     1     -10.304  10.344  68.664  1.00  0.00    -0.184 C  
HETATM    3  H1  UNK     1     -11.801   8.904  69.108  1.00  0.00     0.000 HD 
HETATM    4  H2  UNK     1     -12.378  10.316  68.412  1.00  0.00     0.000 HD 
HETATM    5  C   UNK     1      -9.325   9.762  69.691  1.00  0.00    -0.219 C  
HETATM    6  O   UNK     1      -8.210  10.194  69.932  1.00  0.00    -0.177 OA 
HETATM    7  O   UNK     1      -9.851   8.661  70.292  1.00  0.00    -0.172 OA 
ENDROOT
BRANCH   2   8
HETATM    8  C   UNK     1     -10.133  11.867  68.572  1.00  0.00    -0.206 C  
BRANCH   8   9
HETATM    9  S   UNK     1     -11.768  12.695  68.499  1.00  0.00    -0.323 SA 
BRANCH   9  10
HETATM   10  C   UNK     1     -12.043  12.924  70.295  1.00  0.00    -0.302 C  
HETATM   11  C   UNK     1     -11.766  14.347  70.745  1.00  0.00    -0.236 C  
HETATM   12  O   UNK     1     -11.922  14.719  71.900  1.00  0.00    -0.351 OA 
HETATM   13  O   UNK     1     -11.330  15.186  69.778  1.00  0.00    -0.251 OA 
ENDBRANCH   9  10
ENDBRANCH   8   9
ENDBRANCH   2   8
TORSDOF 3
ENDMDL
MODEL      217
REMARK 921   NORMALIZED FREE ENERGY PREDICTED BY IDOCK:   -2.05 KCAL/MOL
REMARK 922        TOTAL FREE ENERGY PREDICTED BY IDOCK:   -2.84 KCAL/MOL
REMARK 923 INTER-LIGAND FREE ENERGY PREDICTED BY IDOCK:   -2.65 KCAL/MOL
REMARK 924 INTRA-LIGAND FREE ENERGY PREDICTED BY IDOCK:   -0.19 KCAL/MOL
REMARK 927      BINDING AFFINITY PREDICTED BY RF-SCORE:    0.00 PKD
ROOT
HETATM    1  N   UNK     1      -8.234  12.452  69.063  1.00  0.00    -0.327 NA 
HETATM    2  C   UNK     1      -7.753  11.076  68.715  1.00  0.00    -0.135 C  
HETATM    3  H1  UNK     1      -7.506  13.165  69.016  1.00  0.00     0.000 HD 
HETATM    4  H2  UNK     1      -8.681  12.456  69.980  1.00  0.00     0.000 HD 
HETATM    5  C   UNK     1      -7.150  11.127  67.305  1.00  0.00    -0.109 C  
HETATM    6  O   UNK     1      -7.019  10.173  66.556  1.00  0.00    -0.093 OA 
HETATM    7  O   UNK     1      -6.742  12.387  66.997  1.00  0.00    -0.121 OA 
ENDROOT
BRANCH   2   8
HETATM    8  C   UNK     1      -8.848  10.003  68.787  1.00  0.00    -0.137 C  
BRANCH   8   9
HETATM    9  S   UNK     1     -10.493  10.777  69.021  1.00  0.00    -0.225 SA 
BRANCH   9  10
HETATM   10  C   UNK     1     -11.053  10.773  67.278  1.00  0.00    -0.270 C  
HETATM   11  C   UNK     1     -11.760  12.060  66.895  1.00  0.00    -0.266 C  
HETATM   12  O   UNK     1     -12.183  12.275  65.766  1.00  0.00    -0.622 OA 
HETATM   13  O   UNK     1     -11.899  12.964  67.892  1.00  0.00    -0.346 OA 
ENDBRANCH   9  10
ENDBRANCH   8   9
ENDBRANCH   2   8
TORSDOF 3
ENDMDL
MODEL      218
REMARK 921   NORMALIZED FREE ENERGY PREDICTED BY IDOCK:   -2.05 KCAL/MOL
REMARK 922        TOTAL FREE ENERGY PREDICTED BY IDOCK:   -2.84 KCAL/MOL
REMARK 923 INTER-LIGAND FREE ENERGY PREDICTED BY IDOCK:   -2.75 KCAL/MOL
REMARK 924 INTRA-LIGAND FREE ENERGY PREDICTED BY IDOCK:   -0.09 KCAL/MOL
REMARK 927      BINDING AFFINITY PREDICTED BY RF-SCORE:    0.00 PKD
ROOT
HETATM    1  N   UNK     1      -8.727  10.033  68.853  1.00  0.00    -0.138 NA 
HETATM    2  C   UNK     1      -9.915  10.272  69.735  1.00  0.00    -0.181 C  
HETATM    3  H1  UNK     1      -7.895   9.731  69.359  1.00  0.00     0.000 HD 
HETATM    4  H2  UNK     1      -8.526  10.858  68.289  1.00  0.00     0.000 HD 
HETATM    5  C   UNK     1     -10.202   8.978  70.506  1.00  0.00    -0.219 C  
HETATM    6  O   UNK     1     -11.273   8.671  71.002  1.00  0.00    -0.253 OA 
HETATM    7  O   UNK     1      -9.083   8.211  70.600  1.00  0.00    -0.145 OA 
ENDROOT
BRANCH   2   8
HETATM    8  C   UNK     1     -11.168  10.727  68.974  1.00  0.00    -0.262 C  
BRANCH   8   9
HETATM    9  S   UNK     1     -12.114  11.948  69.962  1.00  0.00    -0.252 SA 
BRANCH   9  10
HETATM   10  C   UNK     1     -11.830  13.427  68.921  1.00  0.00    -0.334 C  
HETATM   11  C   UNK     1     -11.766  14.705  69.739  1.00  0.00    -0.313 C  
HETATM   12  O   UNK     1     -11.550  15.801  69.239  1.00  0.00    -0.333 OA 
HETATM   13  O   UNK     1     -11.968  14.553  71.067  1.00  0.00    -0.316 OA 
ENDBRANCH   9  10
ENDBRANCH   8   9
ENDBRANCH   2   8
TORSDOF 3
ENDMDL
MODEL      219
REMARK 921   NORMALIZED FREE ENERGY PREDICTED BY IDOCK:   -2.05 KCAL/MOL
REMARK 922        TOTAL FREE ENERGY PREDICTED BY IDOCK:   -2.83 KCAL/MOL
REMARK 923 INTER-LIGAND FREE ENERGY PREDICTED BY IDOCK:   -2.72 KCAL/MOL
REMARK 924 INTRA-LIGAND FREE ENERGY PREDICTED BY IDOCK:   -0.12 KCAL/MOL
REMARK 927      BINDING AFFINITY PREDICTED BY RF-SCORE:    0.00 PKD
ROOT
HETATM    1  N   UNK     1      -8.616   6.798  66.285  1.00  0.00    -0.133 NA 
HETATM    2  C   UNK     1      -9.491   7.348  67.369  1.00  0.00    -0.141 C  
HETATM    3  H1  UNK     1      -7.983   6.063  66.601  1.00  0.00     0.000 HD 
HETATM    4  H2  UNK     1      -8.096   7.547  65.827  1.00  0.00     0.000 HD 
HETATM    5  C   UNK     1     -10.289   6.184  67.972  1.00  0.00    -0.199 C  
HETATM    6  O   UNK     1     -11.342   6.285  68.578  1.00  0.00    -0.324 OA 
HETATM    7  O   UNK     1      -9.647   5.002  67.770  1.00  0.00    -0.133 OA 
ENDROOT
BRANCH   2   8
HETATM    8  C   UNK     1     -10.443   8.454  66.893  1.00  0.00    -0.289 C  
BRANCH   8   9
HETATM    9  S   UNK     1      -9.539  10.035  66.684  1.00  0.00    -0.195 SA 
BRANCH   9  10
HETATM   10  C   UNK     1      -9.751  10.239  64.876  1.00  0.00    -0.320 C  
HETATM   11  C   UNK     1     -10.036  11.678  64.487  1.00  0.00    -0.278 C  
HETATM   12  O   UNK     1     -10.177  12.035  63.324  1.00  0.00    -0.438 OA 
HETATM   13  O   UNK     1     -10.130  12.550  65.517  1.00  0.00    -0.267 OA 
ENDBRANCH   9  10
ENDBRANCH   8   9
ENDBRANCH   2   8
TORSDOF 3
ENDMDL
MODEL      220
REMARK 921   NORMALIZED FREE ENERGY PREDICTED BY IDOCK:   -2.04 KCAL/MOL
REMARK 922        TOTAL FREE ENERGY PREDICTED BY IDOCK:   -2.83 KCAL/MOL
REMARK 923 INTER-LIGAND FREE ENERGY PREDICTED BY IDOCK:   -2.69 KCAL/MOL
REMARK 924 INTRA-LIGAND FREE ENERGY PREDICTED BY IDOCK:   -0.14 KCAL/MOL
REMARK 927      BINDING AFFINITY PREDICTED BY RF-SCORE:    0.00 PKD
ROOT
HETATM    1  N   UNK     1     -10.859   5.972  69.969  1.00  0.00    -0.327 NA 
HETATM    2  C   UNK     1     -10.749   7.354  70.538  1.00  0.00    -0.233 C  
HETATM    3  H1  UNK     1     -10.957   5.244  70.676  1.00  0.00     0.000 HD 
HETATM    4  H2  UNK     1     -10.071   5.773  69.353  1.00  0.00     0.000 HD 
HETATM    5  C   UNK     1     -11.991   7.613  71.400  1.00  0.00    -0.310 C  
HETATM    6  O   UNK     1     -12.433   8.711  71.695  1.00  0.00    -0.308 OA 
HETATM    7  O   UNK     1     -12.534   6.443  71.832  1.00  0.00    -0.337 OA 
ENDROOT
BRANCH   2   8
HETATM    8  C   UNK     1     -10.602   8.450  69.474  1.00  0.00    -0.213 C  
BRANCH   8   9
HETATM    9  S   UNK     1      -9.362   9.695  69.999  1.00  0.00    -0.238 SA 
BRANCH   9  10
HETATM   10  C   UNK     1      -8.826  10.268  68.345  1.00  0.00    -0.129 C  
HETATM   11  C   UNK     1      -9.615  11.473  67.867  1.00  0.00    -0.177 C  
HETATM   12  O   UNK     1      -9.391  12.032  66.801  1.00  0.00    -0.193 OA 
HETATM   13  O   UNK     1     -10.593  11.893  68.701  1.00  0.00    -0.223 OA 
ENDBRANCH   9  10
ENDBRANCH   8   9
ENDBRANCH   2   8
TORSDOF 3
ENDMDL
MODEL      221
REMARK 921   NORMALIZED FREE ENERGY PREDICTED BY IDOCK:   -2.02 KCAL/MOL
REMARK 922        TOTAL FREE ENERGY PREDICTED BY IDOCK:   -2.81 KCAL/MOL
REMARK 923 INTER-LIGAND FREE ENERGY PREDICTED BY IDOCK:   -2.70 KCAL/MOL
REMARK 924 INTRA-LIGAND FREE ENERGY PREDICTED BY IDOCK:   -0.11 KCAL/MOL
REMARK 927      BINDING AFFINITY PREDICTED BY RF-SCORE:    0.00 PKD
ROOT
HETATM    1  N   UNK     1      -9.307   9.243  64.661  1.00  0.00    -0.435 NA 
HETATM    2  C   UNK     1     -10.268  10.059  65.472  1.00  0.00    -0.178 C  
HETATM    3  H1  UNK     1      -9.663   8.985  63.741  1.00  0.00     0.000 HD 
HETATM    4  H2  UNK     1      -9.012   8.415  65.178  1.00  0.00     0.000 HD 
HETATM    5  C   UNK     1     -10.621  11.316  64.667  1.00  0.00    -0.327 C  
HETATM    6  O   UNK     1     -11.043  12.361  65.133  1.00  0.00    -0.292 OA 
HETATM    7  O   UNK     1     -10.431  11.108  63.336  1.00  0.00    -0.364 OA 
ENDROOT
BRANCH   2   8
HETATM    8  C   UNK     1      -9.731  10.448  66.857  1.00  0.00    -0.181 C  
BRANCH   8   9
HETATM    9  S   UNK     1     -10.791   9.745  68.178  1.00  0.00    -0.174 SA 
BRANCH   9  10
HETATM   10  C   UNK     1      -9.484   9.339  69.395  1.00  0.00    -0.168 C  
HETATM   11  C   UNK     1      -9.847   8.140  70.253  1.00  0.00    -0.184 C  
HETATM   12  O   UNK     1      -9.096   7.683  71.105  1.00  0.00    -0.144 OA 
HETATM   13  O   UNK     1     -11.066   7.605  70.016  1.00  0.00    -0.254 OA 
ENDBRANCH   9  10
ENDBRANCH   8   9
ENDBRANCH   2   8
TORSDOF 3
ENDMDL
MODEL      222
REMARK 921   NORMALIZED FREE ENERGY PREDICTED BY IDOCK:   -2.02 KCAL/MOL
REMARK 922        TOTAL FREE ENERGY PREDICTED BY IDOCK:   -2.80 KCAL/MOL
REMARK 923 INTER-LIGAND FREE ENERGY PREDICTED BY IDOCK:   -2.44 KCAL/MOL
REMARK 924 INTRA-LIGAND FREE ENERGY PREDICTED BY IDOCK:   -0.36 KCAL/MOL
REMARK 927      BINDING AFFINITY PREDICTED BY RF-SCORE:    0.00 PKD
ROOT
HETATM    1  N   UNK     1     -11.670   6.934  69.781  1.00  0.00    -0.615 NA 
HETATM    2  C   UNK     1     -10.190   6.704  69.759  1.00  0.00    -0.187 C  
HETATM    3  H1  UNK     1     -11.983   7.516  70.558  1.00  0.00     0.000 HD 
HETATM    4  H2  UNK     1     -12.173   6.047  69.771  1.00  0.00     0.000 HD 
HETATM    5  C   UNK     1      -9.497   8.072  69.710  1.00  0.00    -0.159 C  
HETATM    6  O   UNK     1      -8.366   8.280  69.305  1.00  0.00    -0.119 OA 
HETATM    7  O   UNK     1     -10.305   9.043  70.216  1.00  0.00    -0.190 OA 
ENDROOT
BRANCH   2   8
HETATM    8  C   UNK     1      -9.718   5.829  68.589  1.00  0.00    -0.131 C  
BRANCH   8   9
HETATM    9  S   UNK     1     -10.574   6.309  67.040  1.00  0.00    -0.346 SA 
BRANCH   9  10
HETATM   10  C   UNK     1      -9.117   6.866  66.080  1.00  0.00    -0.113 C  
HETATM   11  C   UNK     1      -9.115   8.367  65.852  1.00  0.00    -0.171 C  
HETATM   12  O   UNK     1      -8.213   8.946  65.261  1.00  0.00    -0.121 OA 
HETATM   13  O   UNK     1     -10.186   9.029  66.344  1.00  0.00    -0.288 OA 
ENDBRANCH   9  10
ENDBRANCH   8   9
ENDBRANCH   2   8
TORSDOF 3
ENDMDL
MODEL      223
REMARK 921   NORMALIZED FREE ENERGY PREDICTED BY IDOCK:   -2.01 KCAL/MOL
REMARK 922        TOTAL FREE ENERGY PREDICTED BY IDOCK:   -2.80 KCAL/MOL
REMARK 923 INTER-LIGAND FREE ENERGY PREDICTED BY IDOCK:   -2.51 KCAL/MOL
REMARK 924 INTRA-LIGAND FREE ENERGY PREDICTED BY IDOCK:   -0.29 KCAL/MOL
REMARK 927      BINDING AFFINITY PREDICTED BY RF-SCORE:    0.00 PKD
ROOT
HETATM    1  N   UNK     1     -11.219   6.256  66.624  1.00  0.00    -0.753 NA 
HETATM    2  C   UNK     1     -10.443   7.271  67.405  1.00  0.00    -0.289 C  
HETATM    3  H1  UNK     1     -11.021   5.292  66.892  1.00  0.00     0.000 HD 
HETATM    4  H2  UNK     1     -11.076   6.386  65.622  1.00  0.00     0.000 HD 
HETATM    5  C   UNK     1     -10.750   7.061  68.893  1.00  0.00    -0.200 C  
HETATM    6  O   UNK     1     -10.623   7.901  69.769  1.00  0.00    -0.237 OA 
HETATM    7  O   UNK     1     -11.161   5.786  69.128  1.00  0.00    -0.316 OA 
ENDROOT
BRANCH   2   8
HETATM    8  C   UNK     1     -10.742   8.722  67.000  1.00  0.00    -0.116 C  
BRANCH   8   9
HETATM    9  S   UNK     1      -9.205   9.571  66.470  1.00  0.00    -0.170 SA 
BRANCH   9  10
HETATM   10  C   UNK     1      -8.946  10.623  67.946  1.00  0.00    -0.138 C  
HETATM   11  C   UNK     1      -7.782  10.149  68.796  1.00  0.00    -0.088 C  
HETATM   12  O   UNK     1      -7.420  10.733  69.810  1.00  0.00    -0.125 OA 
HETATM   13  O   UNK     1      -7.165   9.027  68.361  1.00  0.00    -0.075 OA 
ENDBRANCH   9  10
ENDBRANCH   8   9
ENDBRANCH   2   8
TORSDOF 3
ENDMDL
MODEL      224
REMARK 921   NORMALIZED FREE ENERGY PREDICTED BY IDOCK:   -2.01 KCAL/MOL
REMARK 922        TOTAL FREE ENERGY PREDICTED BY IDOCK:   -2.79 KCAL/MOL
REMARK 923 INTER-LIGAND FREE ENERGY PREDICTED BY IDOCK:   -2.64 KCAL/MOL
REMARK 924 INTRA-LIGAND FREE ENERGY PREDICTED BY IDOCK:   -0.15 KCAL/MOL
REMARK 927      BINDING AFFINITY PREDICTED BY RF-SCORE:    0.00 PKD
ROOT
HETATM    1  N   UNK     1     -12.155   7.012  71.181  1.00  0.00    -0.352 NA 
HETATM    2  C   UNK     1     -11.128   6.074  70.623  1.00  0.00    -0.301 C  
HETATM    3  H1  UNK     1     -12.849   6.555  71.774  1.00  0.00     0.000 HD 
HETATM    4  H2  UNK     1     -12.611   7.534  70.432  1.00  0.00     0.000 HD 
HETATM    5  C   UNK     1     -10.440   5.370  71.800  1.00  0.00    -0.226 C  
HETATM    6  O   UNK     1      -9.335   4.854  71.769  1.00  0.00    -0.138 OA 
HETATM    7  O   UNK     1     -11.243   5.363  72.897  1.00  0.00    -0.280 OA 
ENDROOT
BRANCH   2   8
HETATM    8  C   UNK     1     -10.085   6.761  69.731  1.00  0.00    -0.183 C  
BRANCH   8   9
HETATM    9  S   UNK     1     -10.039   5.978  68.074  1.00  0.00    -0.177 SA 
BRANCH   9  10
HETATM   10  C   UNK     1     -10.772   7.345  67.101  1.00  0.00    -0.330 C  
HETATM   11  C   UNK     1      -9.717   8.237  66.472  1.00  0.00    -0.253 C  
HETATM   12  O   UNK     1      -9.995   9.189  65.754  1.00  0.00    -0.277 OA 
HETATM   13  O   UNK     1      -8.436   7.911  66.760  1.00  0.00    -0.123 OA 
ENDBRANCH   9  10
ENDBRANCH   8   9
ENDBRANCH   2   8
TORSDOF 3
ENDMDL
MODEL      225
REMARK 921   NORMALIZED FREE ENERGY PREDICTED BY IDOCK:   -2.00 KCAL/MOL
REMARK 922        TOTAL FREE ENERGY PREDICTED BY IDOCK:   -2.78 KCAL/MOL
REMARK 923 INTER-LIGAND FREE ENERGY PREDICTED BY IDOCK:   -2.37 KCAL/MOL
REMARK 924 INTRA-LIGAND FREE ENERGY PREDICTED BY IDOCK:   -0.41 KCAL/MOL
REMARK 927      BINDING AFFINITY PREDICTED BY RF-SCORE:    0.00 PKD
ROOT
HETATM    1  N   UNK     1      -9.517   7.517  66.033  1.00  0.00    -0.409 NA 
HETATM    2  C   UNK     1     -10.486   8.216  66.937  1.00  0.00    -0.309 C  
HETATM    3  H1  UNK     1      -9.713   7.649  65.041  1.00  0.00     0.000 HD 
HETATM    4  H2  UNK     1      -9.465   6.524  66.260  1.00  0.00     0.000 HD 
HETATM    5  C   UNK     1     -10.469   9.710  66.588  1.00  0.00    -0.163 C  
HETATM    6  O   UNK     1     -10.812  10.615  67.329  1.00  0.00    -0.269 OA 
HETATM    7  O   UNK     1     -10.046   9.903  65.310  1.00  0.00    -0.313 OA 
ENDROOT
BRANCH   2   8
HETATM    8  C   UNK     1     -10.191   8.017  68.431  1.00  0.00    -0.207 C  
BRANCH   8   9
HETATM    9  S   UNK     1     -10.758   6.363  68.983  1.00  0.00    -0.319 SA 
BRANCH   9  10
HETATM   10  C   UNK     1      -9.209   5.788  69.773  1.00  0.00    -0.140 C  
HETATM   11  C   UNK     1      -8.282   5.095  68.790  1.00  0.00    -0.085 C  
HETATM   12  O   UNK     1      -7.180   4.666  69.107  1.00  0.00    -0.051 OA 
HETATM   13  O   UNK     1      -8.757   4.979  67.529  1.00  0.00    -0.105 OA 
ENDBRANCH   9  10
ENDBRANCH   8   9
ENDBRANCH   2   8
TORSDOF 3
ENDMDL
MODEL      226
REMARK 921   NORMALIZED FREE ENERGY PREDICTED BY IDOCK:   -1.99 KCAL/MOL
REMARK 922        TOTAL FREE ENERGY PREDICTED BY IDOCK:   -2.77 KCAL/MOL
REMARK 923 INTER-LIGAND FREE ENERGY PREDICTED BY IDOCK:   -2.66 KCAL/MOL
REMARK 924 INTRA-LIGAND FREE ENERGY PREDICTED BY IDOCK:   -0.11 KCAL/MOL
REMARK 927      BINDING AFFINITY PREDICTED BY RF-SCORE:    0.00 PKD
ROOT
HETATM    1  N   UNK     1     -11.346  13.081  69.943  1.00  0.00    -0.501 NA 
HETATM    2  C   UNK     1     -11.618  11.613  69.819  1.00  0.00    -0.315 C  
HETATM    3  H1  UNK     1     -12.180  13.639  70.122  1.00  0.00     0.000 HD 
HETATM    4  H2  UNK     1     -10.852  13.426  69.120  1.00  0.00     0.000 HD 
HETATM    5  C   UNK     1     -12.302  11.146  71.111  1.00  0.00    -0.346 C  
HETATM    6  O   UNK     1     -12.322  10.000  71.528  1.00  0.00    -0.369 OA 
HETATM    7  O   UNK     1     -12.925  12.183  71.731  1.00  0.00    -0.397 OA 
ENDROOT
BRANCH   2   8
HETATM    8  C   UNK     1     -10.363  10.772  69.549  1.00  0.00    -0.144 C  
BRANCH   8   9
HETATM    9  S   UNK     1     -10.628   9.660  68.115  1.00  0.00    -0.214 SA 
BRANCH   9  10
HETATM   10  C   UNK     1     -11.154   8.159  69.022  1.00  0.00     0.256 C  
HETATM   11  C   UNK     1     -10.687   6.883  68.346  1.00  0.00    -0.211 C  
HETATM   12  O   UNK     1     -10.904   5.770  68.808  1.00  0.00    -0.264 OA 
HETATM   13  O   UNK     1     -10.010   7.055  67.188  1.00  0.00    -0.159 OA 
ENDBRANCH   9  10
ENDBRANCH   8   9
ENDBRANCH   2   8
TORSDOF 3
ENDMDL
MODEL      227
REMARK 921   NORMALIZED FREE ENERGY PREDICTED BY IDOCK:   -1.98 KCAL/MOL
REMARK 922        TOTAL FREE ENERGY PREDICTED BY IDOCK:   -2.76 KCAL/MOL
REMARK 923 INTER-LIGAND FREE ENERGY PREDICTED BY IDOCK:   -2.58 KCAL/MOL
REMARK 924 INTRA-LIGAND FREE ENERGY PREDICTED BY IDOCK:   -0.18 KCAL/MOL
REMARK 927      BINDING AFFINITY PREDICTED BY RF-SCORE:    0.00 PKD
ROOT
HETATM    1  N   UNK     1      -9.052   7.466  69.795  1.00  0.00    -0.142 NA 
HETATM    2  C   UNK     1     -10.441   7.825  70.225  1.00  0.00    -0.225 C  
HETATM    3  H1  UNK     1      -8.451   8.274  69.633  1.00  0.00     0.000 HD 
HETATM    4  H2  UNK     1      -9.074   6.863  68.972  1.00  0.00     0.000 HD 
HETATM    5  C   UNK     1     -10.340   8.675  71.497  1.00  0.00    -0.271 C  
HETATM    6  O   UNK     1     -11.224   8.820  72.326  1.00  0.00    -0.354 OA 
HETATM    7  O   UNK     1      -9.129   9.288  71.576  1.00  0.00    -0.315 OA 
ENDROOT
BRANCH   2   8
HETATM    8  C   UNK     1     -11.346   6.609  70.469  1.00  0.00    -0.358 C  
BRANCH   8   9
HETATM    9  S   UNK     1     -10.339   5.126  70.858  1.00  0.00    -0.178 SA 
BRANCH   9  10
HETATM   10  C   UNK     1     -10.755   4.966  72.634  1.00  0.00    -0.213 C  
HETATM   11  C   UNK     1     -10.620   3.539  73.132  1.00  0.00    -0.179 C  
HETATM   12  O   UNK     1     -10.819   3.222  74.298  1.00  0.00    -0.188 OA 
HETATM   13  O   UNK     1     -10.266   2.629  72.197  1.00  0.00    -0.161 OA 
ENDBRANCH   9  10
ENDBRANCH   8   9
ENDBRANCH   2   8
TORSDOF 3
ENDMDL
MODEL      228
REMARK 921   NORMALIZED FREE ENERGY PREDICTED BY IDOCK:   -1.98 KCAL/MOL
REMARK 922        TOTAL FREE ENERGY PREDICTED BY IDOCK:   -2.76 KCAL/MOL
REMARK 923 INTER-LIGAND FREE ENERGY PREDICTED BY IDOCK:   -2.34 KCAL/MOL
REMARK 924 INTRA-LIGAND FREE ENERGY PREDICTED BY IDOCK:   -0.42 KCAL/MOL
REMARK 927      BINDING AFFINITY PREDICTED BY RF-SCORE:    0.00 PKD
ROOT
HETATM    1  N   UNK     1     -10.790  10.739  69.202  1.00  0.00    -0.220 NA 
HETATM    2  C   UNK     1      -9.938  11.648  68.369  1.00  0.00    -0.201 C  
HETATM    3  H1  UNK     1     -11.719  11.112  69.396  1.00  0.00     0.000 HD 
HETATM    4  H2  UNK     1     -10.313  10.493  70.069  1.00  0.00     0.000 HD 
HETATM    5  C   UNK     1     -10.682  11.928  67.058  1.00  0.00    -0.240 C  
HETATM    6  O   UNK     1     -10.167  12.287  66.012  1.00  0.00    -0.233 OA 
HETATM    7  O   UNK     1     -12.022  11.754  67.214  1.00  0.00    -0.618 OA 
ENDROOT
BRANCH   2   8
HETATM    8  C   UNK     1      -8.539  11.087  68.077  1.00  0.00    -0.134 C  
BRANCH   8   9
HETATM    9  S   UNK     1      -8.109   9.771  69.280  1.00  0.00    -0.128 SA 
BRANCH   9  10
HETATM   10  C   UNK     1      -8.067   8.347  68.130  1.00  0.00    -0.120 C  
HETATM   11  C   UNK     1      -9.263   7.428  68.305  1.00  0.00    -0.137 C  
HETATM   12  O   UNK     1      -9.443   6.436  67.611  1.00  0.00    -0.120 OA 
HETATM   13  O   UNK     1     -10.123   7.777  69.288  1.00  0.00    -0.188 OA 
ENDBRANCH   9  10
ENDBRANCH   8   9
ENDBRANCH   2   8
TORSDOF 3
ENDMDL
MODEL      229
REMARK 921   NORMALIZED FREE ENERGY PREDICTED BY IDOCK:   -1.97 KCAL/MOL
REMARK 922        TOTAL FREE ENERGY PREDICTED BY IDOCK:   -2.74 KCAL/MOL
REMARK 923 INTER-LIGAND FREE ENERGY PREDICTED BY IDOCK:   -2.56 KCAL/MOL
REMARK 924 INTRA-LIGAND FREE ENERGY PREDICTED BY IDOCK:   -0.18 KCAL/MOL
REMARK 927      BINDING AFFINITY PREDICTED BY RF-SCORE:    0.00 PKD
ROOT
HETATM    1  N   UNK     1      -9.736   9.203  65.636  1.00  0.00    -0.447 NA 
HETATM    2  C   UNK     1     -10.408  10.487  66.019  1.00  0.00    -0.211 C  
HETATM    3  H1  UNK     1     -10.148   8.752  64.820  1.00  0.00     0.000 HD 
HETATM    4  H2  UNK     1      -9.710   8.560  66.428  1.00  0.00     0.000 HD 
HETATM    5  C   UNK     1     -10.357  11.428  64.809  1.00  0.00    -0.294 C  
HETATM    6  O   UNK     1     -10.444  12.644  64.852  1.00  0.00    -0.290 OA 
HETATM    7  O   UNK     1     -10.232  10.724  63.652  1.00  0.00    -0.333 OA 
ENDROOT
BRANCH   2   8
HETATM    8  C   UNK     1      -9.787  11.166  67.247  1.00  0.00    -0.175 C  
BRANCH   8   9
HETATM    9  S   UNK     1      -7.960  11.226  67.095  1.00  0.00    -0.158 SA 
BRANCH   9  10
HETATM   10  C   UNK     1      -7.527  10.218  68.561  1.00  0.00    -0.084 C  
HETATM   11  C   UNK     1      -6.900  11.047  69.667  1.00  0.00    -0.129 C  
HETATM   12  O   UNK     1      -6.568  10.571  70.746  1.00  0.00    -0.343 OA 
HETATM   13  O   UNK     1      -6.727  12.358  69.383  1.00  0.00    -0.098 OA 
ENDBRANCH   9  10
ENDBRANCH   8   9
ENDBRANCH   2   8
TORSDOF 3
ENDMDL
MODEL      230
REMARK 921   NORMALIZED FREE ENERGY PREDICTED BY IDOCK:   -1.94 KCAL/MOL
REMARK 922        TOTAL FREE ENERGY PREDICTED BY IDOCK:   -2.71 KCAL/MOL
REMARK 923 INTER-LIGAND FREE ENERGY PREDICTED BY IDOCK:   -2.94 KCAL/MOL
REMARK 924 INTRA-LIGAND FREE ENERGY PREDICTED BY IDOCK:    0.23 KCAL/MOL
REMARK 927      BINDING AFFINITY PREDICTED BY RF-SCORE:    0.00 PKD
ROOT
HETATM    1  N   UNK     1      -8.819  11.309  64.964  1.00  0.00    -0.387 NA 
HETATM    2  C   UNK     1     -10.209  10.907  65.354  1.00  0.00    -0.277 C  
HETATM    3  H1  UNK     1      -8.766  11.777  64.060  1.00  0.00     0.000 HD 
HETATM    4  H2  UNK     1      -8.192  10.505  64.990  1.00  0.00     0.000 HD 
HETATM    5  C   UNK     1     -11.085  12.166  65.357  1.00  0.00    -0.317 C  
HETATM    6  O   UNK     1     -12.128  12.303  65.973  1.00  0.00    -0.623 OA 
HETATM    7  O   UNK     1     -10.560  13.123  64.545  1.00  0.00    -0.363 OA 
ENDROOT
BRANCH   2   8
HETATM    8  C   UNK     1     -10.289  10.201  66.714  1.00  0.00    -0.222 C  
BRANCH   8   9
HETATM    9  S   UNK     1     -10.346  11.430  68.075  1.00  0.00    -0.192 SA 
BRANCH   9  10
HETATM   10  C   UNK     1      -8.552  11.538  68.425  1.00  0.00    -0.159 C  
HETATM   11  C   UNK     1      -7.992  12.922  68.150  1.00  0.00    -0.153 C  
HETATM   12  O   UNK     1      -6.821  13.215  68.352  1.00  0.00    -0.081 OA 
HETATM   13  O   UNK     1      -8.878  13.818  67.660  1.00  0.00    -0.169 OA 
ENDBRANCH   9  10
ENDBRANCH   8   9
ENDBRANCH   2   8
TORSDOF 3
ENDMDL
MODEL      231
REMARK 921   NORMALIZED FREE ENERGY PREDICTED BY IDOCK:   -1.93 KCAL/MOL
REMARK 922        TOTAL FREE ENERGY PREDICTED BY IDOCK:   -2.70 KCAL/MOL
REMARK 923 INTER-LIGAND FREE ENERGY PREDICTED BY IDOCK:   -2.54 KCAL/MOL
REMARK 924 INTRA-LIGAND FREE ENERGY PREDICTED BY IDOCK:   -0.16 KCAL/MOL
REMARK 927      BINDING AFFINITY PREDICTED BY RF-SCORE:    0.00 PKD
ROOT
HETATM    1  N   UNK     1     -11.161  11.373  69.120  1.00  0.00    -0.242 NA 
HETATM    2  C   UNK     1     -11.564  11.801  67.742  1.00  0.00    -0.304 C  
HETATM    3  H1  UNK     1     -10.986  10.372  69.204  1.00  0.00     0.000 HD 
HETATM    4  H2  UNK     1     -11.850  11.677  69.807  1.00  0.00     0.000 HD 
HETATM    5  C   UNK     1     -10.459  11.371  66.768  1.00  0.00    -0.244 C  
HETATM    6  O   UNK     1     -10.248  11.863  65.673  1.00  0.00    -0.229 OA 
HETATM    7  O   UNK     1      -9.746  10.329  67.274  1.00  0.00    -0.159 OA 
ENDROOT
BRANCH   2   8
HETATM    8  C   UNK     1     -11.827  13.308  67.615  1.00  0.00    -0.357 C  
BRANCH   8   9
HETATM    9  S   UNK     1     -10.625  14.258  68.624  1.00  0.00    -0.254 SA 
BRANCH   9  10
HETATM   10  C   UNK     1     -10.083  15.458  67.352  1.00  0.00    -0.233 C  
HETATM   11  C   UNK     1      -8.590  15.728  67.412  1.00  0.00    -0.175 C  
HETATM   12  O   UNK     1      -8.019  16.474  66.627  1.00  0.00    -0.223 OA 
HETATM   13  O   UNK     1      -7.925  15.087  68.400  1.00  0.00    -0.122 OA 
ENDBRANCH   9  10
ENDBRANCH   8   9
ENDBRANCH   2   8
TORSDOF 3
ENDMDL
MODEL      232
REMARK 921   NORMALIZED FREE ENERGY PREDICTED BY IDOCK:   -1.93 KCAL/MOL
REMARK 922        TOTAL FREE ENERGY PREDICTED BY IDOCK:   -2.70 KCAL/MOL
REMARK 923 INTER-LIGAND FREE ENERGY PREDICTED BY IDOCK:   -2.55 KCAL/MOL
REMARK 924 INTRA-LIGAND FREE ENERGY PREDICTED BY IDOCK:   -0.15 KCAL/MOL
REMARK 927      BINDING AFFINITY PREDICTED BY RF-SCORE:    0.00 PKD
ROOT
HETATM    1  N   UNK     1      -9.863  11.374  66.322  1.00  0.00    -0.212 NA 
HETATM    2  C   UNK     1      -9.668  10.827  67.703  1.00  0.00    -0.166 C  
HETATM    3  H1  UNK     1     -10.652  10.961  65.825  1.00  0.00     0.000 HD 
HETATM    4  H2  UNK     1      -9.007  11.284  65.774  1.00  0.00     0.000 HD 
HETATM    5  C   UNK     1     -10.966  11.050  68.490  1.00  0.00    -0.228 C  
HETATM    6  O   UNK     1     -11.059  11.094  69.705  1.00  0.00    -0.251 OA 
HETATM    7  O   UNK     1     -12.029  11.161  67.649  1.00  0.00    -0.613 OA 
ENDROOT
BRANCH   2   8
HETATM    8  C   UNK     1      -8.480  11.449  68.451  1.00  0.00    -0.155 C  
BRANCH   8   9
HETATM    9  S   UNK     1      -7.767  12.836  67.486  1.00  0.00    -0.169 SA 
BRANCH   9  10
HETATM   10  C   UNK     1      -8.344  14.226  68.528  1.00  0.00    -0.156 C  
HETATM   11  C   UNK     1      -7.683  15.541  68.155  1.00  0.00    -0.123 C  
HETATM   12  O   UNK     1      -7.954  16.599  68.708  1.00  0.00    -0.218 OA 
HETATM   13  O   UNK     1      -6.764  15.467  67.166  1.00  0.00    -0.259 OA 
ENDBRANCH   9  10
ENDBRANCH   8   9
ENDBRANCH   2   8
TORSDOF 3
ENDMDL
MODEL      233
REMARK 921   NORMALIZED FREE ENERGY PREDICTED BY IDOCK:   -1.91 KCAL/MOL
REMARK 922        TOTAL FREE ENERGY PREDICTED BY IDOCK:   -2.67 KCAL/MOL
REMARK 923 INTER-LIGAND FREE ENERGY PREDICTED BY IDOCK:   -2.52 KCAL/MOL
REMARK 924 INTRA-LIGAND FREE ENERGY PREDICTED BY IDOCK:   -0.15 KCAL/MOL
REMARK 927      BINDING AFFINITY PREDICTED BY RF-SCORE:    0.00 PKD
ROOT
HETATM    1  N   UNK     1      -9.867   9.558  71.155  1.00  0.00    -0.263 NA 
HETATM    2  C   UNK     1     -10.044   8.081  71.334  1.00  0.00    -0.185 C  
HETATM    3  H1  UNK     1     -10.113  10.103  71.980  1.00  0.00     0.000 HD 
HETATM    4  H2  UNK     1     -10.384   9.886  70.339  1.00  0.00     0.000 HD 
HETATM    5  C   UNK     1      -9.193   7.642  72.533  1.00  0.00    -0.157 C  
HETATM    6  O   UNK     1      -8.786   6.511  72.738  1.00  0.00    -0.125 OA 
HETATM    7  O   UNK     1      -8.969   8.686  73.376  1.00  0.00    -0.252 OA 
ENDROOT
BRANCH   2   8
HETATM    8  C   UNK     1      -9.673   7.259  70.091  1.00  0.00    -0.172 C  
BRANCH   8   9
HETATM    9  S   UNK     1     -11.002   6.060  69.693  1.00  0.00    -0.393 SA 
BRANCH   9  10
HETATM   10  C   UNK     1     -10.146   5.125  68.372  1.00  0.00    -0.138 C  
HETATM   11  C   UNK     1     -10.429   5.687  66.990  1.00  0.00    -0.281 C  
HETATM   12  O   UNK     1      -9.927   5.228  65.972  1.00  0.00    -0.164 OA 
HETATM   13  O   UNK     1     -11.283   6.735  66.955  1.00  0.00    -0.393 OA 
ENDBRANCH   9  10
ENDBRANCH   8   9
ENDBRANCH   2   8
TORSDOF 3
ENDMDL
MODEL      234
REMARK 921   NORMALIZED FREE ENERGY PREDICTED BY IDOCK:   -1.89 KCAL/MOL
REMARK 922        TOTAL FREE ENERGY PREDICTED BY IDOCK:   -2.65 KCAL/MOL
REMARK 923 INTER-LIGAND FREE ENERGY PREDICTED BY IDOCK:   -2.51 KCAL/MOL
REMARK 924 INTRA-LIGAND FREE ENERGY PREDICTED BY IDOCK:   -0.14 KCAL/MOL
REMARK 927      BINDING AFFINITY PREDICTED BY RF-SCORE:    0.00 PKD
ROOT
HETATM    1  N   UNK     1      -7.348   8.310  65.512  1.00  0.00    -0.071 NA 
HETATM    2  C   UNK     1      -8.584   9.034  65.953  1.00  0.00    -0.154 C  
HETATM    3  H1  UNK     1      -7.293   8.170  64.504  1.00  0.00     0.000 HD 
HETATM    4  H2  UNK     1      -7.257   7.421  66.004  1.00  0.00     0.000 HD 
HETATM    5  C   UNK     1      -8.628  10.384  65.227  1.00  0.00    -0.176 C  
HETATM    6  O   UNK     1      -9.241  11.370  65.600  1.00  0.00    -0.215 OA 
HETATM    7  O   UNK     1      -7.910  10.337  64.073  1.00  0.00    -0.156 OA 
ENDROOT
BRANCH   2   8
HETATM    8  C   UNK     1      -8.668   9.244  67.471  1.00  0.00    -0.115 C  
BRANCH   8   9
HETATM    9  S   UNK     1     -10.372   8.928  68.072  1.00  0.00    -0.208 SA 
BRANCH   9  10
HETATM   10  C   UNK     1     -10.405  10.126  69.456  1.00  0.00    -0.240 C  
HETATM   11  C   UNK     1     -11.526  11.139  69.317  1.00  0.00    -0.294 C  
HETATM   12  O   UNK     1     -11.744  12.006  70.154  1.00  0.00    -0.308 OA 
HETATM   13  O   UNK     1     -12.276  11.024  68.198  1.00  0.00    -0.578 OA 
ENDBRANCH   9  10
ENDBRANCH   8   9
ENDBRANCH   2   8
TORSDOF 3
ENDMDL
MODEL      235
REMARK 921   NORMALIZED FREE ENERGY PREDICTED BY IDOCK:   -1.89 KCAL/MOL
REMARK 922        TOTAL FREE ENERGY PREDICTED BY IDOCK:   -2.65 KCAL/MOL
REMARK 923 INTER-LIGAND FREE ENERGY PREDICTED BY IDOCK:   -2.49 KCAL/MOL
REMARK 924 INTRA-LIGAND FREE ENERGY PREDICTED BY IDOCK:   -0.16 KCAL/MOL
REMARK 927      BINDING AFFINITY PREDICTED BY RF-SCORE:    0.00 PKD
ROOT
HETATM    1  N   UNK     1      -9.343   9.777  70.693  1.00  0.00    -0.322 NA 
HETATM    2  C   UNK     1      -9.197   9.313  69.276  1.00  0.00    -0.152 C  
HETATM    3  H1  UNK     1     -10.183   9.428  71.154  1.00  0.00     0.000 HD 
HETATM    4  H2  UNK     1      -9.301  10.795  70.745  1.00  0.00     0.000 HD 
HETATM    5  C   UNK     1      -9.206   7.779  69.275  1.00  0.00    -0.145 C  
HETATM    6  O   UNK     1      -8.737   7.068  68.402  1.00  0.00    -0.125 OA 
HETATM    7  O   UNK     1      -9.842   7.297  70.377  1.00  0.00    -0.183 OA 
ENDROOT
BRANCH   2   8
HETATM    8  C   UNK     1      -7.933   9.837  68.582  1.00  0.00    -0.089 C  
BRANCH   8   9
HETATM    9  S   UNK     1      -8.373  10.816  67.095  1.00  0.00    -0.129 SA 
BRANCH   9  10
HETATM   10  C   UNK     1      -9.929  11.563  67.705  1.00  0.00    -0.183 C  
HETATM   11  C   UNK     1     -11.017  11.580  66.646  1.00  0.00    -0.296 C  
HETATM   12  O   UNK     1     -12.144  12.006  66.860  1.00  0.00    -0.608 OA 
HETATM   13  O   UNK     1     -10.656  11.091  65.438  1.00  0.00    -0.258 OA 
ENDBRANCH   9  10
ENDBRANCH   8   9
ENDBRANCH   2   8
TORSDOF 3
ENDMDL
MODEL      236
REMARK 921   NORMALIZED FREE ENERGY PREDICTED BY IDOCK:   -1.88 KCAL/MOL
REMARK 922        TOTAL FREE ENERGY PREDICTED BY IDOCK:   -2.64 KCAL/MOL
REMARK 923 INTER-LIGAND FREE ENERGY PREDICTED BY IDOCK:   -2.76 KCAL/MOL
REMARK 924 INTRA-LIGAND FREE ENERGY PREDICTED BY IDOCK:    0.12 KCAL/MOL
REMARK 927      BINDING AFFINITY PREDICTED BY RF-SCORE:    0.00 PKD
ROOT
HETATM    1  N   UNK     1      -7.594   9.404  66.431  1.00  0.00    -0.096 NA 
HETATM    2  C   UNK     1      -7.750  10.792  66.973  1.00  0.00    -0.121 C  
HETATM    3  H1  UNK     1      -6.623   9.108  66.337  1.00  0.00     0.000 HD 
HETATM    4  H2  UNK     1      -8.087   9.306  65.544  1.00  0.00     0.000 HD 
HETATM    5  C   UNK     1      -7.042  10.855  68.332  1.00  0.00    -0.073 C  
HETATM    6  O   UNK     1      -7.275  11.662  69.216  1.00  0.00    -0.099 OA 
HETATM    7  O   UNK     1      -6.079   9.898  68.421  1.00  0.00    -0.046 OA 
ENDROOT
BRANCH   2   8
HETATM    8  C   UNK     1      -9.212  11.239  67.114  1.00  0.00    -0.163 C  
BRANCH   8   9
HETATM    9  S   UNK     1      -9.380  13.024  66.733  1.00  0.00    -0.233 SA 
BRANCH   9  10
HETATM   10  C   UNK     1     -10.382  12.889  65.206  1.00  0.00    -0.300 C  
HETATM   11  C   UNK     1     -11.817  12.485  65.491  1.00  0.00    -0.439 C  
HETATM   12  O   UNK     1     -12.661  12.372  64.612  1.00  0.00    -0.599 OA 
HETATM   13  O   UNK     1     -12.106  12.253  66.792  1.00  0.00    -0.593 OA 
ENDBRANCH   9  10
ENDBRANCH   8   9
ENDBRANCH   2   8
TORSDOF 3
ENDMDL
MODEL      237
REMARK 921   NORMALIZED FREE ENERGY PREDICTED BY IDOCK:   -1.87 KCAL/MOL
REMARK 922        TOTAL FREE ENERGY PREDICTED BY IDOCK:   -2.63 KCAL/MOL
REMARK 923 INTER-LIGAND FREE ENERGY PREDICTED BY IDOCK:   -2.51 KCAL/MOL
REMARK 924 INTRA-LIGAND FREE ENERGY PREDICTED BY IDOCK:   -0.12 KCAL/MOL
REMARK 927      BINDING AFFINITY PREDICTED BY RF-SCORE:    0.00 PKD
ROOT
HETATM    1  N   UNK     1      -9.439   5.290  64.855  1.00  0.00    -0.353 NA 
HETATM    2  C   UNK     1      -9.380   5.523  66.334  1.00  0.00    -0.152 C  
HETATM    3  H1  UNK     1      -8.597   4.859  64.474  1.00  0.00     0.000 HD 
HETATM    4  H2  UNK     1      -9.654   6.157  64.363  1.00  0.00     0.000 HD 
HETATM    5  C   UNK     1      -9.118   4.174  67.017  1.00  0.00    -0.143 C  
HETATM    6  O   UNK     1      -9.383   3.903  68.176  1.00  0.00    -0.147 OA 
HETATM    7  O   UNK     1      -8.511   3.308  66.162  1.00  0.00    -0.104 OA 
ENDROOT
BRANCH   2   8
HETATM    8  C   UNK     1     -10.648   6.171  66.908  1.00  0.00    -0.312 C  
BRANCH   8   9
HETATM    9  S   UNK     1     -10.211   7.475  68.121  1.00  0.00    -0.194 SA 
BRANCH   9  10
HETATM   10  C   UNK     1     -10.618   8.945  67.109  1.00  0.00    -0.231 C  
HETATM   11  C   UNK     1     -11.152  10.093  67.946  1.00  0.00    -0.238 C  
HETATM   12  O   UNK     1     -11.452  11.179  67.467  1.00  0.00    -0.447 OA 
HETATM   13  O   UNK     1     -11.278   9.837  69.267  1.00  0.00    -0.190 OA 
ENDBRANCH   9  10
ENDBRANCH   8   9
ENDBRANCH   2   8
TORSDOF 3
ENDMDL
MODEL      238
REMARK 921   NORMALIZED FREE ENERGY PREDICTED BY IDOCK:   -1.87 KCAL/MOL
REMARK 922        TOTAL FREE ENERGY PREDICTED BY IDOCK:   -2.62 KCAL/MOL
REMARK 923 INTER-LIGAND FREE ENERGY PREDICTED BY IDOCK:   -2.38 KCAL/MOL
REMARK 924 INTRA-LIGAND FREE ENERGY PREDICTED BY IDOCK:   -0.24 KCAL/MOL
REMARK 927      BINDING AFFINITY PREDICTED BY RF-SCORE:    0.00 PKD
ROOT
HETATM    1  N   UNK     1      -9.243   9.544  62.422  1.00  0.00    -0.485 NA 
HETATM    2  C   UNK     1      -9.266   9.667  63.915  1.00  0.00    -0.132 C  
HETATM    3  H1  UNK     1     -10.149   9.710  61.983  1.00  0.00     0.000 HD 
HETATM    4  H2  UNK     1      -8.868   8.638  62.141  1.00  0.00     0.000 HD 
HETATM    5  C   UNK     1      -9.779  11.070  64.268  1.00  0.00    -0.284 C  
HETATM    6  O   UNK     1      -9.575  11.655  65.319  1.00  0.00    -0.232 OA 
HETATM    7  O   UNK     1     -10.531  11.579  63.257  1.00  0.00    -0.372 OA 
ENDROOT
BRANCH   2   8
HETATM    8  C   UNK     1      -7.904   9.417  64.576  1.00  0.00    -0.121 C  
BRANCH   8   9
HETATM    9  S   UNK     1      -7.919   7.836  65.505  1.00  0.00    -0.128 SA 
BRANCH   9  10
HETATM   10  C   UNK     1      -9.587   7.968  66.249  1.00  0.00    -0.152 C  
HETATM   11  C   UNK     1      -9.543   8.480  67.677  1.00  0.00    -0.153 C  
HETATM   12  O   UNK     1     -10.552   8.672  68.344  1.00  0.00    -0.197 OA 
HETATM   13  O   UNK     1      -8.306   8.710  68.173  1.00  0.00    -0.124 OA 
ENDBRANCH   9  10
ENDBRANCH   8   9
ENDBRANCH   2   8
TORSDOF 3
ENDMDL
MODEL      239
REMARK 921   NORMALIZED FREE ENERGY PREDICTED BY IDOCK:   -1.86 KCAL/MOL
REMARK 922        TOTAL FREE ENERGY PREDICTED BY IDOCK:   -2.61 KCAL/MOL
REMARK 923 INTER-LIGAND FREE ENERGY PREDICTED BY IDOCK:   -2.51 KCAL/MOL
REMARK 924 INTRA-LIGAND FREE ENERGY PREDICTED BY IDOCK:   -0.10 KCAL/MOL
REMARK 927      BINDING AFFINITY PREDICTED BY RF-SCORE:    0.00 PKD
ROOT
HETATM    1  N   UNK     1     -10.557  10.400  67.766  1.00  0.00    -0.230 NA 
HETATM    2  C   UNK     1      -9.755   9.144  67.613  1.00  0.00    -0.159 C  
HETATM    3  H1  UNK     1     -10.043  11.247  67.522  1.00  0.00     0.000 HD 
HETATM    4  H2  UNK     1     -10.940  10.471  68.708  1.00  0.00     0.000 HD 
HETATM    5  C   UNK     1      -9.262   9.067  66.163  1.00  0.00    -0.216 C  
HETATM    6  O   UNK     1      -8.928   8.049  65.580  1.00  0.00    -0.146 OA 
HETATM    7  O   UNK     1      -9.212  10.305  65.602  1.00  0.00    -0.165 OA 
ENDROOT
BRANCH   2   8
HETATM    8  C   UNK     1     -10.529   7.870  67.980  1.00  0.00    -0.185 C  
BRANCH   8   9
HETATM    9  S   UNK     1      -9.963   7.215  69.596  1.00  0.00    -0.177 SA 
BRANCH   9  10
HETATM   10  C   UNK     1     -10.548   8.579  70.668  1.00  0.00    -0.209 C  
HETATM   11  C   UNK     1     -11.881   8.268  71.324  1.00  0.00    -0.288 C  
HETATM   12  O   UNK     1     -12.431   9.034  72.105  1.00  0.00    -0.364 OA 
HETATM   13  O   UNK     1     -12.430   7.080  70.984  1.00  0.00    -0.376 OA 
ENDBRANCH   9  10
ENDBRANCH   8   9
ENDBRANCH   2   8
TORSDOF 3
ENDMDL
MODEL      240
REMARK 921   NORMALIZED FREE ENERGY PREDICTED BY IDOCK:   -1.85 KCAL/MOL
REMARK 922        TOTAL FREE ENERGY PREDICTED BY IDOCK:   -2.61 KCAL/MOL
REMARK 923 INTER-LIGAND FREE ENERGY PREDICTED BY IDOCK:   -2.47 KCAL/MOL
REMARK 924 INTRA-LIGAND FREE ENERGY PREDICTED BY IDOCK:   -0.13 KCAL/MOL
REMARK 927      BINDING AFFINITY PREDICTED BY RF-SCORE:    0.00 PKD
ROOT
HETATM    1  N   UNK     1      -8.833   6.707  70.380  1.00  0.00    -0.151 NA 
HETATM    2  C   UNK     1     -10.201   6.856  69.787  1.00  0.00    -0.196 C  
HETATM    3  H1  UNK     1      -8.546   7.500  70.954  1.00  0.00     0.000 HD 
HETATM    4  H2  UNK     1      -8.143   6.522  69.652  1.00  0.00     0.000 HD 
HETATM    5  C   UNK     1     -11.196   7.068  70.935  1.00  0.00    -0.282 C  
HETATM    6  O   UNK     1     -12.394   6.846  70.884  1.00  0.00    -0.386 OA 
HETATM    7  O   UNK     1     -10.570   7.576  72.031  1.00  0.00    -0.204 OA 
ENDROOT
BRANCH   2   8
HETATM    8  C   UNK     1     -10.632   5.663  68.924  1.00  0.00    -0.233 C  
BRANCH   8   9
HETATM    9  S   UNK     1     -10.879   6.183  67.183  1.00  0.00    -0.343 SA 
BRANCH   9  10
HETATM   10  C   UNK     1      -9.322   5.530  66.474  1.00  0.00    -0.147 C  
HETATM   11  C   UNK     1      -9.570   4.538  65.352  1.00  0.00    -0.179 C  
HETATM   12  O   UNK     1      -8.663   4.009  64.722  1.00  0.00    -0.113 OA 
HETATM   13  O   UNK     1     -10.869   4.269  65.092  1.00  0.00    -0.242 OA 
ENDBRANCH   9  10
ENDBRANCH   8   9
ENDBRANCH   2   8
TORSDOF 3
ENDMDL
MODEL      241
REMARK 921   NORMALIZED FREE ENERGY PREDICTED BY IDOCK:   -1.85 KCAL/MOL
REMARK 922        TOTAL FREE ENERGY PREDICTED BY IDOCK:   -2.60 KCAL/MOL
REMARK 923 INTER-LIGAND FREE ENERGY PREDICTED BY IDOCK:   -2.46 KCAL/MOL
REMARK 924 INTRA-LIGAND FREE ENERGY PREDICTED BY IDOCK:   -0.14 KCAL/MOL
REMARK 927      BINDING AFFINITY PREDICTED BY RF-SCORE:    0.00 PKD
ROOT
HETATM    1  N   UNK     1     -11.605   6.400  70.499  1.00  0.00    -0.382 NA 
HETATM    2  C   UNK     1     -11.108   6.031  69.134  1.00  0.00    -0.335 C  
HETATM    3  H1  UNK     1     -11.910   5.601  71.054  1.00  0.00     0.000 HD 
HETATM    4  H2  UNK     1     -12.345   7.098  70.436  1.00  0.00     0.000 HD 
HETATM    5  C   UNK     1      -9.958   5.030  69.302  1.00  0.00    -0.207 C  
HETATM    6  O   UNK     1      -9.083   4.812  68.481  1.00  0.00    -0.107 OA 
HETATM    7  O   UNK     1     -10.052   4.378  70.492  1.00  0.00    -0.213 OA 
ENDROOT
BRANCH   2   8
HETATM    8  C   UNK     1     -10.648   7.234  68.299  1.00  0.00    -0.172 C  
BRANCH   8   9
HETATM    9  S   UNK     1     -10.059   8.587  69.389  1.00  0.00    -0.209 SA 
BRANCH   9  10
HETATM   10  C   UNK     1      -9.559   9.785  68.098  1.00  0.00    -0.143 C  
HETATM   11  C   UNK     1     -10.552  10.924  67.951  1.00  0.00    -0.207 C  
HETATM   12  O   UNK     1     -10.389  11.850  67.167  1.00  0.00    -0.206 OA 
HETATM   13  O   UNK     1     -11.643  10.848  68.747  1.00  0.00    -0.279 OA 
ENDBRANCH   9  10
ENDBRANCH   8   9
ENDBRANCH   2   8
TORSDOF 3
ENDMDL
MODEL      242
REMARK 921   NORMALIZED FREE ENERGY PREDICTED BY IDOCK:   -1.83 KCAL/MOL
REMARK 922        TOTAL FREE ENERGY PREDICTED BY IDOCK:   -2.58 KCAL/MOL
REMARK 923 INTER-LIGAND FREE ENERGY PREDICTED BY IDOCK:   -2.15 KCAL/MOL
REMARK 924 INTRA-LIGAND FREE ENERGY PREDICTED BY IDOCK:   -0.44 KCAL/MOL
REMARK 927      BINDING AFFINITY PREDICTED BY RF-SCORE:    0.00 PKD
ROOT
HETATM    1  N   UNK     1     -11.118   6.328  70.024  1.00  0.00    -0.355 NA 
HETATM    2  C   UNK     1     -10.748   6.027  71.445  1.00  0.00    -0.259 C  
HETATM    3  H1  UNK     1     -12.118   6.467  69.882  1.00  0.00     0.000 HD 
HETATM    4  H2  UNK     1     -10.763   5.604  69.399  1.00  0.00     0.000 HD 
HETATM    5  C   UNK     1     -11.253   7.180  72.322  1.00  0.00    -0.261 C  
HETATM    6  O   UNK     1     -10.820   7.476  73.423  1.00  0.00    -0.394 OA 
HETATM    7  O   UNK     1     -12.287   7.828  71.721  1.00  0.00    -0.297 OA 
ENDROOT
BRANCH   2   8
HETATM    8  C   UNK     1      -9.242   5.817  71.659  1.00  0.00    -0.146 C  
BRANCH   8   9
HETATM    9  S   UNK     1      -8.702   4.229  70.917  1.00  0.00    -0.091 SA 
BRANCH   9  10
HETATM   10  C   UNK     1      -7.485   4.884  69.716  1.00  0.00    -0.056 C  
HETATM   11  C   UNK     1      -8.068   5.023  68.321  1.00  0.00    -0.086 C  
HETATM   12  O   UNK     1      -7.431   5.474  67.378  1.00  0.00    -0.082 OA 
HETATM   13  O   UNK     1      -9.348   4.609  68.184  1.00  0.00    -0.122 OA 
ENDBRANCH   9  10
ENDBRANCH   8   9
ENDBRANCH   2   8
TORSDOF 3
ENDMDL
MODEL      243
REMARK 921   NORMALIZED FREE ENERGY PREDICTED BY IDOCK:   -1.83 KCAL/MOL
REMARK 922        TOTAL FREE ENERGY PREDICTED BY IDOCK:   -2.58 KCAL/MOL
REMARK 923 INTER-LIGAND FREE ENERGY PREDICTED BY IDOCK:   -2.18 KCAL/MOL
REMARK 924 INTRA-LIGAND FREE ENERGY PREDICTED BY IDOCK:   -0.40 KCAL/MOL
REMARK 927      BINDING AFFINITY PREDICTED BY RF-SCORE:    0.00 PKD
ROOT
HETATM    1  N   UNK     1      -9.095   6.250  65.230  1.00  0.00    -0.362 NA 
HETATM    2  C   UNK     1      -8.796   6.052  66.685  1.00  0.00    -0.125 C  
HETATM    3  H1  UNK     1      -8.984   5.405  64.670  1.00  0.00     0.000 HD 
HETATM    4  H2  UNK     1      -8.533   7.011  64.848  1.00  0.00     0.000 HD 
HETATM    5  C   UNK     1      -9.715   4.943  67.212  1.00  0.00    -0.170 C  
HETATM    6  O   UNK     1     -10.031   4.778  68.378  1.00  0.00    -0.146 OA 
HETATM    7  O   UNK     1     -10.119   4.128  66.201  1.00  0.00    -0.206 OA 
ENDROOT
BRANCH   2   8
HETATM    8  C   UNK     1      -8.963   7.325  67.528  1.00  0.00    -0.122 C  
BRANCH   8   9
HETATM    9  S   UNK     1     -10.520   8.188  67.090  1.00  0.00    -0.289 SA 
BRANCH   9  10
HETATM   10  C   UNK     1      -9.895   9.909  67.098  1.00  0.00    -0.186 C  
HETATM   11  C   UNK     1      -9.375  10.341  65.739  1.00  0.00    -0.186 C  
HETATM   12  O   UNK     1      -8.944  11.466  65.521  1.00  0.00    -0.183 OA 
HETATM   13  O   UNK     1      -9.416   9.394  64.775  1.00  0.00    -0.201 OA 
ENDBRANCH   9  10
ENDBRANCH   8   9
ENDBRANCH   2   8
TORSDOF 3
ENDMDL
MODEL      244
REMARK 921   NORMALIZED FREE ENERGY PREDICTED BY IDOCK:   -1.81 KCAL/MOL
REMARK 922        TOTAL FREE ENERGY PREDICTED BY IDOCK:   -2.56 KCAL/MOL
REMARK 923 INTER-LIGAND FREE ENERGY PREDICTED BY IDOCK:   -2.39 KCAL/MOL
REMARK 924 INTRA-LIGAND FREE ENERGY PREDICTED BY IDOCK:   -0.17 KCAL/MOL
REMARK 927      BINDING AFFINITY PREDICTED BY RF-SCORE:    0.00 PKD
ROOT
HETATM    1  N   UNK     1      -9.392   4.990  64.313  1.00  0.00    -0.353 NA 
HETATM    2  C   UNK     1      -9.209   4.752  65.781  1.00  0.00    -0.149 C  
HETATM    3  H1  UNK     1      -8.720   4.492  63.730  1.00  0.00     0.000 HD 
HETATM    4  H2  UNK     1      -9.379   5.988  64.105  1.00  0.00     0.000 HD 
HETATM    5  C   UNK     1      -9.302   3.242  66.034  1.00  0.00    -0.117 C  
HETATM    6  O   UNK     1      -9.583   2.718  67.098  1.00  0.00    -0.084 OA 
HETATM    7  O   UNK     1      -8.996   2.543  64.908  1.00  0.00    -0.117 OA 
ENDROOT
BRANCH   2   8
HETATM    8  C   UNK     1     -10.221   5.501  66.659  1.00  0.00    -0.235 C  
BRANCH   8   9
HETATM    9  S   UNK     1      -9.406   6.158  68.164  1.00  0.00    -0.114 SA 
BRANCH   9  10
HETATM   10  C   UNK     1     -10.633   5.607  69.407  1.00  0.00    -0.304 C  
HETATM   11  C   UNK     1     -11.376   6.770  70.041  1.00  0.00    -0.342 C  
HETATM   12  O   UNK     1     -12.262   6.617  70.872  1.00  0.00    -0.368 OA 
HETATM   13  O   UNK     1     -10.990   7.998  69.627  1.00  0.00    -0.210 OA 
ENDBRANCH   9  10
ENDBRANCH   8   9
ENDBRANCH   2   8
TORSDOF 3
ENDMDL
MODEL      245
REMARK 921   NORMALIZED FREE ENERGY PREDICTED BY IDOCK:   -1.80 KCAL/MOL
REMARK 922        TOTAL FREE ENERGY PREDICTED BY IDOCK:   -2.55 KCAL/MOL
REMARK 923 INTER-LIGAND FREE ENERGY PREDICTED BY IDOCK:   -2.40 KCAL/MOL
REMARK 924 INTRA-LIGAND FREE ENERGY PREDICTED BY IDOCK:   -0.15 KCAL/MOL
REMARK 927      BINDING AFFINITY PREDICTED BY RF-SCORE:    0.00 PKD
ROOT
HETATM    1  N   UNK     1      -8.478   9.119  68.895  1.00  0.00    -0.127 NA 
HETATM    2  C   UNK     1      -9.893   9.160  69.385  1.00  0.00    -0.172 C  
HETATM    3  H1  UNK     1      -7.807   8.821  69.603  1.00  0.00     0.000 HD 
HETATM    4  H2  UNK     1      -8.207  10.021  68.501  1.00  0.00     0.000 HD 
HETATM    5  C   UNK     1     -10.256   7.763  69.905  1.00  0.00    -0.213 C  
HETATM    6  O   UNK     1     -11.387   7.319  70.014  1.00  0.00    -0.247 OA 
HETATM    7  O   UNK     1      -9.140   7.076  70.267  1.00  0.00    -0.155 OA 
ENDROOT
BRANCH   2   8
HETATM    8  C   UNK     1     -10.903   9.610  68.320  1.00  0.00    -0.182 C  
BRANCH   8   9
HETATM    9  S   UNK     1     -11.470  11.321  68.653  1.00  0.00    -0.324 SA 
BRANCH   9  10
HETATM   10  C   UNK     1     -11.592  11.914  66.925  1.00  0.00    -0.285 C  
HETATM   11  C   UNK     1     -10.270  12.445  66.401  1.00  0.00    -0.234 C  
HETATM   12  O   UNK     1     -10.127  12.858  65.258  1.00  0.00    -0.284 OA 
HETATM   13  O   UNK     1      -9.249  12.434  67.288  1.00  0.00    -0.176 OA 
ENDBRANCH   9  10
ENDBRANCH   8   9
ENDBRANCH   2   8
TORSDOF 3
ENDMDL
MODEL      246
REMARK 921   NORMALIZED FREE ENERGY PREDICTED BY IDOCK:   -1.80 KCAL/MOL
REMARK 922        TOTAL FREE ENERGY PREDICTED BY IDOCK:   -2.54 KCAL/MOL
REMARK 923 INTER-LIGAND FREE ENERGY PREDICTED BY IDOCK:   -2.43 KCAL/MOL
REMARK 924 INTRA-LIGAND FREE ENERGY PREDICTED BY IDOCK:   -0.11 KCAL/MOL
REMARK 927      BINDING AFFINITY PREDICTED BY RF-SCORE:    0.00 PKD
ROOT
HETATM    1  N   UNK     1     -12.066  11.283  69.635  1.00  0.00    -0.326 NA 
HETATM    2  C   UNK     1     -10.817  10.739  69.012  1.00  0.00    -0.235 C  
HETATM    3  H1  UNK     1     -12.328  12.206  69.290  1.00  0.00     0.000 HD 
HETATM    4  H2  UNK     1     -11.988  11.288  70.653  1.00  0.00     0.000 HD 
HETATM    5  C   UNK     1     -11.023  10.699  67.492  1.00  0.00    -0.310 C  
HETATM    6  O   UNK     1     -10.413   9.987  66.712  1.00  0.00    -0.232 OA 
HETATM    7  O   UNK     1     -11.969  11.598  67.108  1.00  0.00    -0.614 OA 
ENDROOT
BRANCH   2   8
HETATM    8  C   UNK     1     -10.421   9.350  69.531  1.00  0.00    -0.218 C  
BRANCH   8   9
HETATM    9  S   UNK     1      -8.740   9.390  70.261  1.00  0.00    -0.240 SA 
BRANCH   9  10
HETATM   10  C   UNK     1      -8.299   7.627  70.041  1.00  0.00    -0.134 C  
HETATM   11  C   UNK     1      -6.808   7.382  70.183  1.00  0.00    -0.055 C  
HETATM   12  O   UNK     1      -6.308   6.267  70.104  1.00  0.00    -0.036 OA 
HETATM   13  O   UNK     1      -6.057   8.486  70.400  1.00  0.00    -0.031 OA 
ENDBRANCH   9  10
ENDBRANCH   8   9
ENDBRANCH   2   8
TORSDOF 3
ENDMDL
MODEL      247
REMARK 921   NORMALIZED FREE ENERGY PREDICTED BY IDOCK:   -1.79 KCAL/MOL
REMARK 922        TOTAL FREE ENERGY PREDICTED BY IDOCK:   -2.53 KCAL/MOL
REMARK 923 INTER-LIGAND FREE ENERGY PREDICTED BY IDOCK:   -2.44 KCAL/MOL
REMARK 924 INTRA-LIGAND FREE ENERGY PREDICTED BY IDOCK:   -0.09 KCAL/MOL
REMARK 927      BINDING AFFINITY PREDICTED BY RF-SCORE:    0.00 PKD
ROOT
HETATM    1  N   UNK     1      -8.143   8.529  66.135  1.00  0.00    -0.101 NA 
HETATM    2  C   UNK     1      -8.454   9.979  65.918  1.00  0.00    -0.133 C  
HETATM    3  H1  UNK     1      -7.206   8.261  65.836  1.00  0.00     0.000 HD 
HETATM    4  H2  UNK     1      -8.846   7.939  65.689  1.00  0.00     0.000 HD 
HETATM    5  C   UNK     1      -7.401  10.807  66.664  1.00  0.00    -0.134 C  
HETATM    6  O   UNK     1      -7.538  11.962  67.033  1.00  0.00    -0.151 OA 
HETATM    7  O   UNK     1      -6.257  10.093  66.841  1.00  0.00    -0.061 OA 
ENDROOT
BRANCH   2   8
HETATM    8  C   UNK     1      -9.865  10.382  66.369  1.00  0.00    -0.213 C  
BRANCH   8   9
HETATM    9  S   UNK     1     -10.537  11.696  65.281  1.00  0.00    -0.288 SA 
BRANCH   9  10
HETATM   10  C   UNK     1     -11.584  12.563  66.508  1.00  0.00    -0.388 C  
HETATM   11  C   UNK     1     -11.417  14.071  66.447  1.00  0.00    -0.352 C  
HETATM   12  O   UNK     1     -12.052  14.838  67.160  1.00  0.00    -0.308 OA 
HETATM   13  O   UNK     1     -10.512  14.518  65.547  1.00  0.00    -0.313 OA 
ENDBRANCH   9  10
ENDBRANCH   8   9
ENDBRANCH   2   8
TORSDOF 3
ENDMDL
MODEL      248
REMARK 921   NORMALIZED FREE ENERGY PREDICTED BY IDOCK:   -1.78 KCAL/MOL
REMARK 922        TOTAL FREE ENERGY PREDICTED BY IDOCK:   -2.53 KCAL/MOL
REMARK 923 INTER-LIGAND FREE ENERGY PREDICTED BY IDOCK:   -2.34 KCAL/MOL
REMARK 924 INTRA-LIGAND FREE ENERGY PREDICTED BY IDOCK:   -0.19 KCAL/MOL
REMARK 927      BINDING AFFINITY PREDICTED BY RF-SCORE:    0.00 PKD
ROOT
HETATM    1  N   UNK     1      -8.265   8.940  68.308  1.00  0.00    -0.120 NA 
HETATM    2  C   UNK     1      -8.658   9.103  69.745  1.00  0.00    -0.142 C  
HETATM    3  H1  UNK     1      -7.801   9.758  67.914  1.00  0.00     0.000 HD 
HETATM    4  H2  UNK     1      -9.072   8.678  67.742  1.00  0.00     0.000 HD 
HETATM    5  C   UNK     1      -7.393   9.434  70.548  1.00  0.00    -0.133 C  
HETATM    6  O   UNK     1      -7.248   9.258  71.746  1.00  0.00    -0.328 OA 
HETATM    7  O   UNK     1      -6.443   9.989  69.749  1.00  0.00    -0.049 OA 
ENDROOT
BRANCH   2   8
HETATM    8  C   UNK     1      -9.357   7.872  70.337  1.00  0.00    -0.159 C  
BRANCH   8   9
HETATM    9  S   UNK     1     -11.179   8.048  70.220  1.00  0.00    -0.130 SA 
BRANCH   9  10
HETATM   10  C   UNK     1     -11.379   9.554  71.242  1.00  0.00    -0.376 C  
HETATM   11  C   UNK     1     -11.863  10.742  70.431  1.00  0.00    -0.358 C  
HETATM   12  O   UNK     1     -12.093  11.836  70.931  1.00  0.00    -0.330 OA 
HETATM   13  O   UNK     1     -12.023  10.515  69.108  1.00  0.00    -0.214 OA 
ENDBRANCH   9  10
ENDBRANCH   8   9
ENDBRANCH   2   8
TORSDOF 3
ENDMDL
MODEL      249
REMARK 921   NORMALIZED FREE ENERGY PREDICTED BY IDOCK:   -1.78 KCAL/MOL
REMARK 922        TOTAL FREE ENERGY PREDICTED BY IDOCK:   -2.52 KCAL/MOL
REMARK 923 INTER-LIGAND FREE ENERGY PREDICTED BY IDOCK:   -2.40 KCAL/MOL
REMARK 924 INTRA-LIGAND FREE ENERGY PREDICTED BY IDOCK:   -0.12 KCAL/MOL
REMARK 927      BINDING AFFINITY PREDICTED BY RF-SCORE:    0.00 PKD
ROOT
HETATM    1  N   UNK     1      -6.632   9.318  67.699  1.00  0.00    -0.063 NA 
HETATM    2  C   UNK     1      -8.046   9.418  68.185  1.00  0.00    -0.110 C  
HETATM    3  H1  UNK     1      -5.936   9.493  68.423  1.00  0.00     0.000 HD 
HETATM    4  H2  UNK     1      -6.482   9.933  66.900  1.00  0.00     0.000 HD 
HETATM    5  C   UNK     1      -8.222   8.425  69.341  1.00  0.00    -0.116 C  
HETATM    6  O   UNK     1      -9.283   7.956  69.717  1.00  0.00    -0.150 OA 
HETATM    7  O   UNK     1      -7.028   8.151  69.931  1.00  0.00    -0.046 OA 
ENDROOT
BRANCH   2   8
HETATM    8  C   UNK     1      -9.093   9.154  67.094  1.00  0.00    -0.126 C  
BRANCH   8   9
HETATM    9  S   UNK     1     -10.454  10.380  67.198  1.00  0.00    -0.261 SA 
BRANCH   9  10
HETATM   10  C   UNK     1      -9.948  11.473  65.819  1.00  0.00    -0.233 C  
HETATM   11  C   UNK     1     -11.063  12.405  65.382  1.00  0.00    -0.306 C  
HETATM   12  O   UNK     1     -10.922  13.239  64.497  1.00  0.00    -0.343 OA 
HETATM   13  O   UNK     1     -12.237  12.251  66.036  1.00  0.00    -0.646 OA 
ENDBRANCH   9  10
ENDBRANCH   8   9
ENDBRANCH   2   8
TORSDOF 3
ENDMDL
MODEL      250
REMARK 921   NORMALIZED FREE ENERGY PREDICTED BY IDOCK:   -1.77 KCAL/MOL
REMARK 922        TOTAL FREE ENERGY PREDICTED BY IDOCK:   -2.51 KCAL/MOL
REMARK 923 INTER-LIGAND FREE ENERGY PREDICTED BY IDOCK:   -2.11 KCAL/MOL
REMARK 924 INTRA-LIGAND FREE ENERGY PREDICTED BY IDOCK:   -0.40 KCAL/MOL
REMARK 927      BINDING AFFINITY PREDICTED BY RF-SCORE:    0.00 PKD
ROOT
HETATM    1  N   UNK     1     -10.017   8.037  66.239  1.00  0.00    -0.476 NA 
HETATM    2  C   UNK     1      -9.533   8.549  67.561  1.00  0.00    -0.149 C  
HETATM    3  H1  UNK     1     -10.471   8.747  65.665  1.00  0.00     0.000 HD 
HETATM    4  H2  UNK     1     -10.630   7.232  66.367  1.00  0.00     0.000 HD 
HETATM    5  C   UNK     1      -8.570   9.714  67.296  1.00  0.00    -0.132 C  
HETATM    6  O   UNK     1      -7.711  10.112  68.065  1.00  0.00    -0.088 OA 
HETATM    7  O   UNK     1      -8.818  10.282  66.086  1.00  0.00    -0.145 OA 
ENDROOT
BRANCH   2   8
HETATM    8  C   UNK     1      -8.849   7.480  68.424  1.00  0.00    -0.126 C  
BRANCH   8   9
HETATM    9  S   UNK     1     -10.043   6.167  68.889  1.00  0.00    -0.189 SA 
BRANCH   9  10
HETATM   10  C   UNK     1      -9.260   4.760  68.017  1.00  0.00    -0.123 C  
HETATM   11  C   UNK     1      -9.874   4.513  66.651  1.00  0.00    -0.225 C  
HETATM   12  O   UNK     1      -9.473   3.640  65.892  1.00  0.00    -0.168 OA 
HETATM   13  O   UNK     1     -10.904   5.325  66.323  1.00  0.00    -0.285 OA 
ENDBRANCH   9  10
ENDBRANCH   8   9
ENDBRANCH   2   8
TORSDOF 3
ENDMDL
MODEL      251
REMARK 921   NORMALIZED FREE ENERGY PREDICTED BY IDOCK:   -1.77 KCAL/MOL
REMARK 922        TOTAL FREE ENERGY PREDICTED BY IDOCK:   -2.51 KCAL/MOL
REMARK 923 INTER-LIGAND FREE ENERGY PREDICTED BY IDOCK:   -2.35 KCAL/MOL
REMARK 924 INTRA-LIGAND FREE ENERGY PREDICTED BY IDOCK:   -0.15 KCAL/MOL
REMARK 927      BINDING AFFINITY PREDICTED BY RF-SCORE:    0.00 PKD
ROOT
HETATM    1  N   UNK     1     -11.665   6.927  69.785  1.00  0.00    -0.615 NA 
HETATM    2  C   UNK     1     -10.186   6.699  69.854  1.00  0.00    -0.187 C  
HETATM    3  H1  UNK     1     -12.023   7.532  70.524  1.00  0.00     0.000 HD 
HETATM    4  H2  UNK     1     -12.167   6.039  69.773  1.00  0.00     0.000 HD 
HETATM    5  C   UNK     1      -9.492   8.066  69.804  1.00  0.00    -0.159 C  
HETATM    6  O   UNK     1      -8.339   8.263  69.458  1.00  0.00    -0.118 OA 
HETATM    7  O   UNK     1     -10.327   9.050  70.233  1.00  0.00    -0.190 OA 
ENDROOT
BRANCH   2   8
HETATM    8  C   UNK     1      -9.649   5.789  68.741  1.00  0.00    -0.127 C  
BRANCH   8   9
HETATM    9  S   UNK     1     -10.391   6.240  67.126  1.00  0.00    -0.266 SA 
BRANCH   9  10
HETATM   10  C   UNK     1     -10.280   4.608  66.304  1.00  0.00    -0.275 C  
HETATM   11  C   UNK     1      -9.243   4.589  65.196  1.00  0.00    -0.157 C  
HETATM   12  O   UNK     1      -8.988   3.585  64.543  1.00  0.00    -0.114 OA 
HETATM   13  O   UNK     1      -8.614   5.765  64.971  1.00  0.00    -0.148 OA 
ENDBRANCH   9  10
ENDBRANCH   8   9
ENDBRANCH   2   8
TORSDOF 3
ENDMDL
MODEL      252
REMARK 921   NORMALIZED FREE ENERGY PREDICTED BY IDOCK:   -1.77 KCAL/MOL
REMARK 922        TOTAL FREE ENERGY PREDICTED BY IDOCK:   -2.51 KCAL/MOL
REMARK 923 INTER-LIGAND FREE ENERGY PREDICTED BY IDOCK:   -2.36 KCAL/MOL
REMARK 924 INTRA-LIGAND FREE ENERGY PREDICTED BY IDOCK:   -0.15 KCAL/MOL
REMARK 927      BINDING AFFINITY PREDICTED BY RF-SCORE:    0.00 PKD
ROOT
HETATM    1  N   UNK     1      -9.226   7.550  65.539  1.00  0.00    -0.370 NA 
HETATM    2  C   UNK     1      -9.649   7.490  66.975  1.00  0.00    -0.170 C  
HETATM    3  H1  UNK     1      -8.769   6.700  65.210  1.00  0.00     0.000 HD 
HETATM    4  H2  UNK     1      -8.634   8.364  65.371  1.00  0.00     0.000 HD 
HETATM    5  C   UNK     1     -10.583   6.285  67.145  1.00  0.00    -0.311 C  
HETATM    6  O   UNK     1     -11.403   6.144  68.036  1.00  0.00    -0.221 OA 
HETATM    7  O   UNK     1     -10.359   5.357  66.176  1.00  0.00    -0.191 OA 
ENDROOT
BRANCH   2   8
HETATM    8  C   UNK     1     -10.336   8.769  67.470  1.00  0.00    -0.268 C  
BRANCH   8   9
HETATM    9  S   UNK     1      -9.244   9.680  68.628  1.00  0.00    -0.138 SA 
BRANCH   9  10
HETATM   10  C   UNK     1      -9.683  11.389  68.138  1.00  0.00    -0.192 C  
HETATM   11  C   UNK     1      -8.709  11.969  67.129  1.00  0.00    -0.183 C  
HETATM   12  O   UNK     1      -8.841  13.087  66.647  1.00  0.00    -0.178 OA 
HETATM   13  O   UNK     1      -7.673  11.166  66.796  1.00  0.00    -0.140 OA 
ENDBRANCH   9  10
ENDBRANCH   8   9
ENDBRANCH   2   8
TORSDOF 3
ENDMDL
MODEL      253
REMARK 921   NORMALIZED FREE ENERGY PREDICTED BY IDOCK:   -1.74 KCAL/MOL
REMARK 922        TOTAL FREE ENERGY PREDICTED BY IDOCK:   -2.48 KCAL/MOL
REMARK 923 INTER-LIGAND FREE ENERGY PREDICTED BY IDOCK:   -2.32 KCAL/MOL
REMARK 924 INTRA-LIGAND FREE ENERGY PREDICTED BY IDOCK:   -0.16 KCAL/MOL
REMARK 927      BINDING AFFINITY PREDICTED BY RF-SCORE:    0.00 PKD
ROOT
HETATM    1  N   UNK     1     -11.074   6.328  72.299  1.00  0.00    -0.257 NA 
HETATM    2  C   UNK     1     -11.282   6.394  70.816  1.00  0.00    -0.327 C  
HETATM    3  H1  UNK     1     -11.278   5.414  72.701  1.00  0.00     0.000 HD 
HETATM    4  H2  UNK     1     -11.610   7.057  72.770  1.00  0.00     0.000 HD 
HETATM    5  C   UNK     1     -10.403   5.319  70.165  1.00  0.00    -0.284 C  
HETATM    6  O   UNK     1     -10.018   5.323  69.008  1.00  0.00    -0.159 OA 
HETATM    7  O   UNK     1     -10.125   4.321  71.046  1.00  0.00    -0.178 OA 
ENDROOT
BRANCH   2   8
HETATM    8  C   UNK     1     -10.973   7.771  70.211  1.00  0.00    -0.247 C  
BRANCH   8   9
HETATM    9  S   UNK     1     -10.263   8.888  71.479  1.00  0.00    -0.346 SA 
BRANCH   9  10
HETATM   10  C   UNK     1      -8.488   8.560  71.176  1.00  0.00    -0.156 C  
HETATM   11  C   UNK     1      -7.900   9.488  70.128  1.00  0.00    -0.160 C  
HETATM   12  O   UNK     1      -6.720   9.457  69.802  1.00  0.00    -0.047 OA 
HETATM   13  O   UNK     1      -8.771  10.358  69.570  1.00  0.00    -0.157 OA 
ENDBRANCH   9  10
ENDBRANCH   8   9
ENDBRANCH   2   8
TORSDOF 3
ENDMDL
MODEL      254
REMARK 921   NORMALIZED FREE ENERGY PREDICTED BY IDOCK:   -1.73 KCAL/MOL
REMARK 922        TOTAL FREE ENERGY PREDICTED BY IDOCK:   -2.46 KCAL/MOL
REMARK 923 INTER-LIGAND FREE ENERGY PREDICTED BY IDOCK:   -2.32 KCAL/MOL
REMARK 924 INTRA-LIGAND FREE ENERGY PREDICTED BY IDOCK:   -0.15 KCAL/MOL
REMARK 927      BINDING AFFINITY PREDICTED BY RF-SCORE:    0.00 PKD
ROOT
HETATM    1  N   UNK     1      -9.717   7.671  65.985  1.00  0.00    -0.435 NA 
HETATM    2  C   UNK     1     -10.669   7.450  67.121  1.00  0.00    -0.330 C  
HETATM    3  H1  UNK     1      -9.787   8.598  65.565  1.00  0.00     0.000 HD 
HETATM    4  H2  UNK     1      -9.827   6.946  65.276  1.00  0.00     0.000 HD 
HETATM    5  C   UNK     1     -10.408   8.531  68.177  1.00  0.00    -0.206 C  
HETATM    6  O   UNK     1     -10.698   8.452  69.359  1.00  0.00    -0.221 OA 
HETATM    7  O   UNK     1      -9.830   9.627  67.616  1.00  0.00    -0.152 OA 
ENDROOT
BRANCH   2   8
HETATM    8  C   UNK     1     -10.563   6.054  67.752  1.00  0.00    -0.267 C  
BRANCH   8   9
HETATM    9  S   UNK     1     -10.154   4.801  66.477  1.00  0.00    -0.260 SA 
BRANCH   9  10
HETATM   10  C   UNK     1      -8.430   4.445  66.980  1.00  0.00    -0.104 C  
HETATM   11  C   UNK     1      -8.322   3.190  67.828  1.00  0.00    -0.081 C  
HETATM   12  O   UNK     1      -7.253   2.758  68.239  1.00  0.00    -0.048 OA 
HETATM   13  O   UNK     1      -9.494   2.576  68.105  1.00  0.00    -0.211 OA 
ENDBRANCH   9  10
ENDBRANCH   8   9
ENDBRANCH   2   8
TORSDOF 3
ENDMDL
MODEL      255
REMARK 921   NORMALIZED FREE ENERGY PREDICTED BY IDOCK:   -1.72 KCAL/MOL
REMARK 922        TOTAL FREE ENERGY PREDICTED BY IDOCK:   -2.45 KCAL/MOL
REMARK 923 INTER-LIGAND FREE ENERGY PREDICTED BY IDOCK:   -2.33 KCAL/MOL
REMARK 924 INTRA-LIGAND FREE ENERGY PREDICTED BY IDOCK:   -0.13 KCAL/MOL
REMARK 927      BINDING AFFINITY PREDICTED BY RF-SCORE:    0.00 PKD
ROOT
HETATM    1  N   UNK     1      -7.152   8.447  65.755  1.00  0.00    -0.071 NA 
HETATM    2  C   UNK     1      -8.555   8.508  66.276  1.00  0.00    -0.129 C  
HETATM    3  H1  UNK     1      -7.094   8.306  64.747  1.00  0.00     0.000 HD 
HETATM    4  H2  UNK     1      -6.614   7.734  66.249  1.00  0.00     0.000 HD 
HETATM    5  C   UNK     1      -9.287   9.637  65.540  1.00  0.00    -0.248 C  
HETATM    6  O   UNK     1     -10.276  10.223  65.946  1.00  0.00    -0.254 OA 
HETATM    7  O   UNK     1      -8.704   9.889  64.337  1.00  0.00    -0.169 OA 
ENDROOT
BRANCH   2   8
HETATM    8  C   UNK     1      -8.641   8.720  67.794  1.00  0.00    -0.129 C  
BRANCH   8   9
HETATM    9  S   UNK     1      -9.927   7.636  68.524  1.00  0.00    -0.185 SA 
BRANCH   9  10
HETATM   10  C   UNK     1     -10.424   8.701  69.928  1.00  0.00    -0.218 C  
HETATM   11  C   UNK     1     -11.264   7.956  70.949  1.00  0.00    -0.270 C  
HETATM   12  O   UNK     1     -11.671   8.477  71.980  1.00  0.00    -0.312 OA 
HETATM   13  O   UNK     1     -11.540   6.668  70.644  1.00  0.00    -0.338 OA 
ENDBRANCH   9  10
ENDBRANCH   8   9
ENDBRANCH   2   8
TORSDOF 3
ENDMDL
MODEL      256
REMARK 921   NORMALIZED FREE ENERGY PREDICTED BY IDOCK:   -1.72 KCAL/MOL
REMARK 922        TOTAL FREE ENERGY PREDICTED BY IDOCK:   -2.45 KCAL/MOL
REMARK 923 INTER-LIGAND FREE ENERGY PREDICTED BY IDOCK:   -2.34 KCAL/MOL
REMARK 924 INTRA-LIGAND FREE ENERGY PREDICTED BY IDOCK:   -0.11 KCAL/MOL
REMARK 927      BINDING AFFINITY PREDICTED BY RF-SCORE:    0.00 PKD
ROOT
HETATM    1  N   UNK     1     -11.392  11.788  70.048  1.00  0.00    -0.501 NA 
HETATM    2  C   UNK     1     -11.103  11.537  68.599  1.00  0.00    -0.238 C  
HETATM    3  H1  UNK     1     -11.034  12.679  70.389  1.00  0.00     0.000 HD 
HETATM    4  H2  UNK     1     -11.047  11.018  70.623  1.00  0.00     0.000 HD 
HETATM    5  C   UNK     1     -11.701  12.694  67.789  1.00  0.00    -0.356 C  
HETATM    6  O   UNK     1     -12.000  12.651  66.607  1.00  0.00    -0.470 OA 
HETATM    7  O   UNK     1     -11.829  13.808  68.557  1.00  0.00    -0.336 OA 
ENDROOT
BRANCH   2   8
HETATM    8  C   UNK     1     -11.643  10.194  68.086  1.00  0.00     0.234 C  
BRANCH   8   9
HETATM    9  S   UNK     1     -10.306   8.940  68.038  1.00  0.00    -0.208 SA 
BRANCH   9  10
HETATM   10  C   UNK     1     -10.286   8.625  66.235  1.00  0.00    -0.050 C  
HETATM   11  C   UNK     1      -8.926   8.896  65.616  1.00  0.00    -0.201 C  
HETATM   12  O   UNK     1      -8.690   8.716  64.428  1.00  0.00    -0.109 OA 
HETATM   13  O   UNK     1      -7.984   9.358  66.468  1.00  0.00    -0.106 OA 
ENDBRANCH   9  10
ENDBRANCH   8   9
ENDBRANCH   2   8
TORSDOF 3
ENDMDL
MODEL      257
REMARK 921   NORMALIZED FREE ENERGY PREDICTED BY IDOCK:   -1.71 KCAL/MOL
REMARK 922        TOTAL FREE ENERGY PREDICTED BY IDOCK:   -2.44 KCAL/MOL
REMARK 923 INTER-LIGAND FREE ENERGY PREDICTED BY IDOCK:   -2.36 KCAL/MOL
REMARK 924 INTRA-LIGAND FREE ENERGY PREDICTED BY IDOCK:   -0.08 KCAL/MOL
REMARK 927      BINDING AFFINITY PREDICTED BY RF-SCORE:    0.00 PKD
ROOT
HETATM    1  N   UNK     1     -10.279  10.411  67.678  1.00  0.00    -0.190 NA 
HETATM    2  C   UNK     1      -8.994  11.176  67.574  1.00  0.00    -0.139 C  
HETATM    3  H1  UNK     1     -10.176   9.411  67.510  1.00  0.00     0.000 HD 
HETATM    4  H2  UNK     1     -10.986  10.808  67.059  1.00  0.00     0.000 HD 
HETATM    5  C   UNK     1      -7.999  10.570  68.571  1.00  0.00    -0.118 C  
HETATM    6  O   UNK     1      -7.027  11.140  69.037  1.00  0.00    -0.082 OA 
HETATM    7  O   UNK     1      -8.321   9.279  68.855  1.00  0.00    -0.116 OA 
ENDROOT
BRANCH   2   8
HETATM    8  C   UNK     1      -9.150  12.682  67.826  1.00  0.00    -0.192 C  
BRANCH   8   9
HETATM    9  S   UNK     1      -9.853  13.513  66.350  1.00  0.00    -0.295 SA 
BRANCH   9  10
HETATM   10  C   UNK     1      -9.677  15.250  66.900  1.00  0.00    -0.233 C  
HETATM   11  C   UNK     1     -10.837  15.702  67.768  1.00  0.00    -0.307 C  
HETATM   12  O   UNK     1     -10.897  16.818  68.267  1.00  0.00    -0.353 OA 
HETATM   13  O   UNK     1     -11.812  14.784  67.956  1.00  0.00    -0.336 OA 
ENDBRANCH   9  10
ENDBRANCH   8   9
ENDBRANCH   2   8
TORSDOF 3
ENDMDL
MODEL      258
REMARK 921   NORMALIZED FREE ENERGY PREDICTED BY IDOCK:   -1.71 KCAL/MOL
REMARK 922        TOTAL FREE ENERGY PREDICTED BY IDOCK:   -2.44 KCAL/MOL
REMARK 923 INTER-LIGAND FREE ENERGY PREDICTED BY IDOCK:   -2.32 KCAL/MOL
REMARK 924 INTRA-LIGAND FREE ENERGY PREDICTED BY IDOCK:   -0.11 KCAL/MOL
REMARK 927      BINDING AFFINITY PREDICTED BY RF-SCORE:    0.00 PKD
ROOT
HETATM    1  N   UNK     1      -8.833   3.074  66.747  1.00  0.00    -0.138 NA 
HETATM    2  C   UNK     1      -9.593   4.108  67.520  1.00  0.00    -0.171 C  
HETATM    3  H1  UNK     1      -9.357   2.678  65.967  1.00  0.00     0.000 HD 
HETATM    4  H2  UNK     1      -8.498   2.335  67.366  1.00  0.00     0.000 HD 
HETATM    5  C   UNK     1     -10.012   5.216  66.546  1.00  0.00    -0.212 C  
HETATM    6  O   UNK     1     -10.291   6.363  66.854  1.00  0.00    -0.198 OA 
HETATM    7  O   UNK     1     -10.068   4.745  65.271  1.00  0.00    -0.127 OA 
ENDROOT
BRANCH   2   8
HETATM    8  C   UNK     1      -8.805   4.703  68.695  1.00  0.00    -0.101 C  
BRANCH   8   9
HETATM    9  S   UNK     1      -9.756   4.545  70.255  1.00  0.00    -0.227 SA 
BRANCH   9  10
HETATM   10  C   UNK     1     -10.706   6.107  70.161  1.00  0.00    -0.302 C  
HETATM   11  C   UNK     1     -11.514   6.368  71.419  1.00  0.00    -0.308 C  
HETATM   12  O   UNK     1     -12.192   7.376  71.574  1.00  0.00    -0.305 OA 
HETATM   13  O   UNK     1     -11.438   5.407  72.367  1.00  0.00    -0.235 OA 
ENDBRANCH   9  10
ENDBRANCH   8   9
ENDBRANCH   2   8
TORSDOF 3
ENDMDL
MODEL      259
REMARK 921   NORMALIZED FREE ENERGY PREDICTED BY IDOCK:   -1.70 KCAL/MOL
REMARK 922        TOTAL FREE ENERGY PREDICTED BY IDOCK:   -2.43 KCAL/MOL
REMARK 923 INTER-LIGAND FREE ENERGY PREDICTED BY IDOCK:   -2.14 KCAL/MOL
REMARK 924 INTRA-LIGAND FREE ENERGY PREDICTED BY IDOCK:   -0.28 KCAL/MOL
REMARK 927      BINDING AFFINITY PREDICTED BY RF-SCORE:    0.00 PKD
ROOT
HETATM    1  N   UNK     1      -9.831   4.937  64.847  1.00  0.00    -0.368 NA 
HETATM    2  C   UNK     1      -8.719   5.665  65.539  1.00  0.00    -0.150 C  
HETATM    3  H1  UNK     1      -9.513   4.170  64.256  1.00  0.00     0.000 HD 
HETATM    4  H2  UNK     1     -10.409   5.587  64.313  1.00  0.00     0.000 HD 
HETATM    5  C   UNK     1      -7.930   4.646  66.371  1.00  0.00    -0.103 C  
HETATM    6  O   UNK     1      -7.231   4.908  67.335  1.00  0.00    -0.071 OA 
HETATM    7  O   UNK     1      -8.084   3.390  65.872  1.00  0.00    -0.091 OA 
ENDROOT
BRANCH   2   8
HETATM    8  C   UNK     1      -9.198   6.820  66.429  1.00  0.00    -0.153 C  
BRANCH   8   9
HETATM    9  S   UNK     1     -10.870   6.469  67.097  1.00  0.00    -0.405 SA 
BRANCH   9  10
HETATM   10  C   UNK     1     -10.583   6.961  68.837  1.00  0.00    -0.221 C  
HETATM   11  C   UNK     1     -10.161   5.790  69.706  1.00  0.00    -0.236 C  
HETATM   12  O   UNK     1      -9.888   5.911  70.893  1.00  0.00    -0.172 OA 
HETATM   13  O   UNK     1     -10.109   4.593  69.080  1.00  0.00    -0.174 OA 
ENDBRANCH   9  10
ENDBRANCH   8   9
ENDBRANCH   2   8
TORSDOF 3
ENDMDL
MODEL      260
REMARK 921   NORMALIZED FREE ENERGY PREDICTED BY IDOCK:   -1.66 KCAL/MOL
REMARK 922        TOTAL FREE ENERGY PREDICTED BY IDOCK:   -2.38 KCAL/MOL
REMARK 923 INTER-LIGAND FREE ENERGY PREDICTED BY IDOCK:   -2.29 KCAL/MOL
REMARK 924 INTRA-LIGAND FREE ENERGY PREDICTED BY IDOCK:   -0.09 KCAL/MOL
REMARK 927      BINDING AFFINITY PREDICTED BY RF-SCORE:    0.00 PKD
ROOT
HETATM    1  N   UNK     1      -8.400   9.790  64.521  1.00  0.00    -0.152 NA 
HETATM    2  C   UNK     1      -9.691  10.394  64.982  1.00  0.00    -0.300 C  
HETATM    3  H1  UNK     1      -8.504   9.152  63.732  1.00  0.00     0.000 HD 
HETATM    4  H2  UNK     1      -7.921   9.329  65.295  1.00  0.00     0.000 HD 
HETATM    5  C   UNK     1     -10.327  11.122  63.790  1.00  0.00    -0.386 C  
HETATM    6  O   UNK     1     -11.145  12.023  63.865  1.00  0.00    -0.336 OA 
HETATM    7  O   UNK     1      -9.880  10.607  62.614  1.00  0.00    -0.263 OA 
ENDROOT
BRANCH   2   8
HETATM    8  C   UNK     1      -9.534  11.354  66.169  1.00  0.00    -0.216 C  
BRANCH   8   9
HETATM    9  S   UNK     1      -7.806  11.342  66.783  1.00  0.00    -0.151 SA 
BRANCH   9  10
HETATM   10  C   UNK     1      -7.849  12.887  67.764  1.00  0.00    -0.158 C  
HETATM   11  C   UNK     1      -6.461  13.437  68.036  1.00  0.00    -0.131 C  
HETATM   12  O   UNK     1      -6.269  14.481  68.647  1.00  0.00    -0.077 OA 
HETATM   13  O   UNK     1      -5.438  12.692  67.559  1.00  0.00    -0.118 OA 
ENDBRANCH   9  10
ENDBRANCH   8   9
ENDBRANCH   2   8
TORSDOF 3
ENDMDL
MODEL      261
REMARK 921   NORMALIZED FREE ENERGY PREDICTED BY IDOCK:   -1.64 KCAL/MOL
REMARK 922        TOTAL FREE ENERGY PREDICTED BY IDOCK:   -2.36 KCAL/MOL
REMARK 923 INTER-LIGAND FREE ENERGY PREDICTED BY IDOCK:   -2.23 KCAL/MOL
REMARK 924 INTRA-LIGAND FREE ENERGY PREDICTED BY IDOCK:   -0.13 KCAL/MOL
REMARK 927      BINDING AFFINITY PREDICTED BY RF-SCORE:    0.00 PKD
ROOT
HETATM    1  N   UNK     1      -7.279   7.041  71.096  1.00  0.00    -0.074 NA 
HETATM    2  C   UNK     1      -7.701   6.977  72.532  1.00  0.00    -0.093 C  
HETATM    3  H1  UNK     1      -6.379   6.597  70.913  1.00  0.00     0.000 HD 
HETATM    4  H2  UNK     1      -7.279   8.005  70.763  1.00  0.00     0.000 HD 
HETATM    5  C   UNK     1      -7.741   5.502  72.951  1.00  0.00    -0.098 C  
HETATM    6  O   UNK     1      -8.386   5.047  73.880  1.00  0.00    -0.104 OA 
HETATM    7  O   UNK     1      -6.927   4.752  72.161  1.00  0.00    -0.056 OA 
ENDROOT
BRANCH   2   8
HETATM    8  C   UNK     1      -9.055   7.645  72.808  1.00  0.00    -0.165 C  
BRANCH   8   9
HETATM    9  S   UNK     1     -10.139   7.536  71.333  1.00  0.00    -0.185 SA 
BRANCH   9  10
HETATM   10  C   UNK     1     -11.152   9.034  71.622  1.00  0.00    -0.363 C  
HETATM   11  C   UNK     1     -12.636   8.723  71.687  1.00  0.00    -0.345 C  
HETATM   12  O   UNK     1     -13.484   9.579  71.905  1.00  0.00    -0.393 OA 
HETATM   13  O   UNK     1     -12.967   7.428  71.482  1.00  0.00    -0.355 OA 
ENDBRANCH   9  10
ENDBRANCH   8   9
ENDBRANCH   2   8
TORSDOF 3
ENDMDL
MODEL      262
REMARK 921   NORMALIZED FREE ENERGY PREDICTED BY IDOCK:   -1.63 KCAL/MOL
REMARK 922        TOTAL FREE ENERGY PREDICTED BY IDOCK:   -2.34 KCAL/MOL
REMARK 923 INTER-LIGAND FREE ENERGY PREDICTED BY IDOCK:   -2.23 KCAL/MOL
REMARK 924 INTRA-LIGAND FREE ENERGY PREDICTED BY IDOCK:   -0.11 KCAL/MOL
REMARK 927      BINDING AFFINITY PREDICTED BY RF-SCORE:    0.00 PKD
ROOT
HETATM    1  N   UNK     1     -11.308   6.474  68.970  1.00  0.00    -0.585 NA 
HETATM    2  C   UNK     1      -9.909   6.953  69.207  1.00  0.00    -0.157 C  
HETATM    3  H1  UNK     1     -11.415   5.463  69.051  1.00  0.00     0.000 HD 
HETATM    4  H2  UNK     1     -11.652   6.800  68.066  1.00  0.00     0.000 HD 
HETATM    5  C   UNK     1      -9.476   6.484  70.602  1.00  0.00    -0.166 C  
HETATM    6  O   UNK     1      -8.594   6.988  71.277  1.00  0.00    -0.119 OA 
HETATM    7  O   UNK     1     -10.191   5.394  70.990  1.00  0.00    -0.206 OA 
ENDROOT
BRANCH   2   8
HETATM    8  C   UNK     1      -9.747   8.474  69.084  1.00  0.00    -0.170 C  
BRANCH   8   9
HETATM    9  S   UNK     1      -9.592   8.965  67.324  1.00  0.00    -0.175 SA 
BRANCH   9  10
HETATM   10  C   UNK     1      -8.393  10.334  67.522  1.00  0.00    -0.114 C  
HETATM   11  C   UNK     1      -9.042  11.698  67.368  1.00  0.00    -0.169 C  
HETATM   12  O   UNK     1      -8.422  12.745  67.497  1.00  0.00    -0.159 OA 
HETATM   13  O   UNK     1     -10.361  11.681  67.074  1.00  0.00    -0.208 OA 
ENDBRANCH   9  10
ENDBRANCH   8   9
ENDBRANCH   2   8
TORSDOF 3
ENDMDL
MODEL      263
REMARK 921   NORMALIZED FREE ENERGY PREDICTED BY IDOCK:   -1.62 KCAL/MOL
REMARK 922        TOTAL FREE ENERGY PREDICTED BY IDOCK:   -2.34 KCAL/MOL
REMARK 923 INTER-LIGAND FREE ENERGY PREDICTED BY IDOCK:   -2.23 KCAL/MOL
REMARK 924 INTRA-LIGAND FREE ENERGY PREDICTED BY IDOCK:   -0.10 KCAL/MOL
REMARK 927      BINDING AFFINITY PREDICTED BY RF-SCORE:    0.00 PKD
ROOT
HETATM    1  N   UNK     1      -7.429  11.615  67.459  1.00  0.00    -0.115 NA 
HETATM    2  C   UNK     1      -8.802  11.169  67.861  1.00  0.00    -0.136 C  
HETATM    3  H1  UNK     1      -7.410  12.152  66.592  1.00  0.00     0.000 HD 
HETATM    4  H2  UNK     1      -6.794  10.819  67.402  1.00  0.00     0.000 HD 
HETATM    5  C   UNK     1      -9.687  12.416  67.990  1.00  0.00    -0.210 C  
HETATM    6  O   UNK     1     -10.711  12.493  68.648  1.00  0.00    -0.232 OA 
HETATM    7  O   UNK     1      -9.198  13.437  67.237  1.00  0.00    -0.204 OA 
ENDROOT
BRANCH   2   8
HETATM    8  C   UNK     1      -8.831  10.360  69.165  1.00  0.00    -0.172 C  
BRANCH   8   9
HETATM    9  S   UNK     1      -8.748   8.563  68.810  1.00  0.00    -0.139 SA 
BRANCH   9  10
HETATM   10  C   UNK     1     -10.523   8.159  69.007  1.00  0.00    -0.198 C  
HETATM   11  C   UNK     1     -10.744   6.944  69.890  1.00  0.00    -0.246 C  
HETATM   12  O   UNK     1     -11.858   6.526  70.176  1.00  0.00    -0.416 OA 
HETATM   13  O   UNK     1      -9.620   6.343  70.341  1.00  0.00    -0.164 OA 
ENDBRANCH   9  10
ENDBRANCH   8   9
ENDBRANCH   2   8
TORSDOF 3
ENDMDL
MODEL      264
REMARK 921   NORMALIZED FREE ENERGY PREDICTED BY IDOCK:   -1.62 KCAL/MOL
REMARK 922        TOTAL FREE ENERGY PREDICTED BY IDOCK:   -2.33 KCAL/MOL
REMARK 923 INTER-LIGAND FREE ENERGY PREDICTED BY IDOCK:   -2.18 KCAL/MOL
REMARK 924 INTRA-LIGAND FREE ENERGY PREDICTED BY IDOCK:   -0.16 KCAL/MOL
REMARK 927      BINDING AFFINITY PREDICTED BY RF-SCORE:    0.00 PKD
ROOT
HETATM    1  N   UNK     1      -8.935   7.605  69.875  1.00  0.00    -0.144 NA 
HETATM    2  C   UNK     1     -10.345   7.577  70.380  1.00  0.00    -0.214 C  
HETATM    3  H1  UNK     1      -8.542   8.544  69.808  1.00  0.00     0.000 HD 
HETATM    4  H2  UNK     1      -8.863   7.121  68.980  1.00  0.00     0.000 HD 
HETATM    5  C   UNK     1     -10.372   8.262  71.752  1.00  0.00    -0.254 C  
HETATM    6  O   UNK     1     -11.221   8.094  72.612  1.00  0.00    -0.370 OA 
HETATM    7  O   UNK     1      -9.328   9.124  71.884  1.00  0.00    -0.349 OA 
ENDROOT
BRANCH   2   8
HETATM    8  C   UNK     1     -10.936   6.164  70.480  1.00  0.00    -0.318 C  
BRANCH   8   9
HETATM    9  S   UNK     1      -9.604   4.922  70.695  1.00  0.00    -0.202 SA 
BRANCH   9  10
HETATM   10  C   UNK     1      -9.697   4.127  69.049  1.00  0.00    -0.118 C  
HETATM   11  C   UNK     1      -8.350   3.604  68.583  1.00  0.00    -0.077 C  
HETATM   12  O   UNK     1      -8.201   3.008  67.524  1.00  0.00    -0.079 OA 
HETATM   13  O   UNK     1      -7.315   3.843  69.419  1.00  0.00    -0.052 OA 
ENDBRANCH   9  10
ENDBRANCH   8   9
ENDBRANCH   2   8
TORSDOF 3
ENDMDL
MODEL      265
REMARK 921   NORMALIZED FREE ENERGY PREDICTED BY IDOCK:   -1.61 KCAL/MOL
REMARK 922        TOTAL FREE ENERGY PREDICTED BY IDOCK:   -2.33 KCAL/MOL
REMARK 923 INTER-LIGAND FREE ENERGY PREDICTED BY IDOCK:   -2.17 KCAL/MOL
REMARK 924 INTRA-LIGAND FREE ENERGY PREDICTED BY IDOCK:   -0.15 KCAL/MOL
REMARK 927      BINDING AFFINITY PREDICTED BY RF-SCORE:    0.00 PKD
ROOT
HETATM    1  N   UNK     1      -7.403   8.499  65.384  1.00  0.00    -0.083 NA 
HETATM    2  C   UNK     1      -8.689   9.268  65.362  1.00  0.00    -0.178 C  
HETATM    3  H1  UNK     1      -7.422   7.652  64.815  1.00  0.00     0.000 HD 
HETATM    4  H2  UNK     1      -7.130   8.282  66.342  1.00  0.00     0.000 HD 
HETATM    5  C   UNK     1      -9.010   9.615  63.902  1.00  0.00    -0.218 C  
HETATM    6  O   UNK     1      -9.730  10.528  63.533  1.00  0.00    -0.300 OA 
HETATM    7  O   UNK     1      -8.404   8.743  63.052  1.00  0.00    -0.186 OA 
ENDROOT
BRANCH   2   8
HETATM    8  C   UNK     1      -8.661  10.541  66.218  1.00  0.00    -0.151 C  
BRANCH   8   9
HETATM    9  S   UNK     1     -10.177  10.661  67.243  1.00  0.00    -0.220 SA 
BRANCH   9  10
HETATM   10  C   UNK     1      -9.943   9.157  68.260  1.00  0.00    -0.175 C  
HETATM   11  C   UNK     1     -10.852   9.134  69.476  1.00  0.00    -0.180 C  
HETATM   12  O   UNK     1     -10.878   8.201  70.268  1.00  0.00    -0.240 OA 
HETATM   13  O   UNK     1     -11.638  10.223  69.632  1.00  0.00    -0.243 OA 
ENDBRANCH   9  10
ENDBRANCH   8   9
ENDBRANCH   2   8
TORSDOF 3
ENDMDL
MODEL      266
REMARK 921   NORMALIZED FREE ENERGY PREDICTED BY IDOCK:   -1.60 KCAL/MOL
REMARK 922        TOTAL FREE ENERGY PREDICTED BY IDOCK:   -2.31 KCAL/MOL
REMARK 923 INTER-LIGAND FREE ENERGY PREDICTED BY IDOCK:   -2.20 KCAL/MOL
REMARK 924 INTRA-LIGAND FREE ENERGY PREDICTED BY IDOCK:   -0.11 KCAL/MOL
REMARK 927      BINDING AFFINITY PREDICTED BY RF-SCORE:    0.00 PKD
ROOT
HETATM    1  N   UNK     1      -7.573   7.176  70.979  1.00  0.00    -0.084 NA 
HETATM    2  C   UNK     1      -8.302   7.084  72.285  1.00  0.00    -0.110 C  
HETATM    3  H1  UNK     1      -6.736   6.596  70.934  1.00  0.00     0.000 HD 
HETATM    4  H2  UNK     1      -7.350   8.147  70.759  1.00  0.00     0.000 HD 
HETATM    5  C   UNK     1      -8.663   5.612  72.524  1.00  0.00    -0.124 C  
HETATM    6  O   UNK     1      -9.558   5.210  73.249  1.00  0.00    -0.140 OA 
HETATM    7  O   UNK     1      -7.824   4.790  71.839  1.00  0.00    -0.094 OA 
ENDROOT
BRANCH   2   8
HETATM    8  C   UNK     1      -9.562   7.957  72.352  1.00  0.00    -0.210 C  
BRANCH   8   9
HETATM    9  S   UNK     1     -10.177   8.330  70.665  1.00  0.00    -0.196 SA 
BRANCH   9  10
HETATM   10  C   UNK     1     -11.407   9.616  71.096  1.00  0.00    -0.386 C  
HETATM   11  C   UNK     1     -11.317  10.829  70.188  1.00  0.00    -0.309 C  
HETATM   12  O   UNK     1     -12.073  11.788  70.285  1.00  0.00    -0.338 OA 
HETATM   13  O   UNK     1     -10.338  10.784  69.256  1.00  0.00    -0.213 OA 
ENDBRANCH   9  10
ENDBRANCH   8   9
ENDBRANCH   2   8
TORSDOF 3
ENDMDL
MODEL      267
REMARK 921   NORMALIZED FREE ENERGY PREDICTED BY IDOCK:   -1.58 KCAL/MOL
REMARK 922        TOTAL FREE ENERGY PREDICTED BY IDOCK:   -2.29 KCAL/MOL
REMARK 923 INTER-LIGAND FREE ENERGY PREDICTED BY IDOCK:   -2.12 KCAL/MOL
REMARK 924 INTRA-LIGAND FREE ENERGY PREDICTED BY IDOCK:   -0.17 KCAL/MOL
REMARK 927      BINDING AFFINITY PREDICTED BY RF-SCORE:    0.00 PKD
ROOT
HETATM    1  N   UNK     1      -7.226  12.630  67.611  1.00  0.00    -0.128 NA 
HETATM    2  C   UNK     1      -8.582  13.232  67.402  1.00  0.00    -0.204 C  
HETATM    3  H1  UNK     1      -6.546  12.893  66.898  1.00  0.00     0.000 HD 
HETATM    4  H2  UNK     1      -7.291  11.615  67.688  1.00  0.00     0.000 HD 
HETATM    5  C   UNK     1      -8.422  14.757  67.359  1.00  0.00    -0.201 C  
HETATM    6  O   UNK     1      -9.303  15.569  67.587  1.00  0.00    -0.201 OA 
HETATM    7  O   UNK     1      -7.158  15.102  66.994  1.00  0.00    -0.199 OA 
ENDROOT
BRANCH   2   8
HETATM    8  C   UNK     1      -9.605  12.836  68.475  1.00  0.00    -0.110 C  
BRANCH   8   9
HETATM    9  S   UNK     1     -10.957  11.839  67.738  1.00  0.00    -0.242 SA 
BRANCH   9  10
HETATM   10  C   UNK     1     -10.154  10.194  67.800  1.00  0.00    -0.180 C  
HETATM   11  C   UNK     1     -10.575   9.391  69.017  1.00  0.00    -0.213 C  
HETATM   12  O   UNK     1     -10.180   8.252  69.229  1.00  0.00    -0.196 OA 
HETATM   13  O   UNK     1     -11.422  10.022  69.863  1.00  0.00    -0.244 OA 
ENDBRANCH   9  10
ENDBRANCH   8   9
ENDBRANCH   2   8
TORSDOF 3
ENDMDL
MODEL      268
REMARK 921   NORMALIZED FREE ENERGY PREDICTED BY IDOCK:   -1.56 KCAL/MOL
REMARK 922        TOTAL FREE ENERGY PREDICTED BY IDOCK:   -2.27 KCAL/MOL
REMARK 923 INTER-LIGAND FREE ENERGY PREDICTED BY IDOCK:   -2.11 KCAL/MOL
REMARK 924 INTRA-LIGAND FREE ENERGY PREDICTED BY IDOCK:   -0.16 KCAL/MOL
REMARK 927      BINDING AFFINITY PREDICTED BY RF-SCORE:    0.00 PKD
ROOT
HETATM    1  N   UNK     1      -9.392   5.287  69.493  1.00  0.00    -0.123 NA 
HETATM    2  C   UNK     1      -8.911   6.490  70.245  1.00  0.00    -0.151 C  
HETATM    3  H1  UNK     1      -9.524   5.453  68.495  1.00  0.00     0.000 HD 
HETATM    4  H2  UNK     1     -10.245   4.918  69.912  1.00  0.00     0.000 HD 
HETATM    5  C   UNK     1      -7.597   6.956  69.606  1.00  0.00    -0.101 C  
HETATM    6  O   UNK     1      -6.742   7.631  70.155  1.00  0.00    -0.047 OA 
HETATM    7  O   UNK     1      -7.514   6.544  68.313  1.00  0.00    -0.091 OA 
ENDROOT
BRANCH   2   8
HETATM    8  C   UNK     1      -8.712   6.240  71.747  1.00  0.00    -0.133 C  
BRANCH   8   9
HETATM    9  S   UNK     1      -9.783   7.355  72.733  1.00  0.00    -0.191 SA 
BRANCH   9  10
HETATM   10  C   UNK     1     -10.099   8.634  71.460  1.00  0.00    -0.274 C  
HETATM   11  C   UNK     1     -11.544   9.098  71.454  1.00  0.00    -0.341 C  
HETATM   12  O   UNK     1     -11.956   9.972  70.702  1.00  0.00    -0.285 OA 
HETATM   13  O   UNK     1     -12.356   8.476  72.339  1.00  0.00    -0.374 OA 
ENDBRANCH   9  10
ENDBRANCH   8   9
ENDBRANCH   2   8
TORSDOF 3
ENDMDL
MODEL      269
REMARK 921   NORMALIZED FREE ENERGY PREDICTED BY IDOCK:   -1.55 KCAL/MOL
REMARK 922        TOTAL FREE ENERGY PREDICTED BY IDOCK:   -2.25 KCAL/MOL
REMARK 923 INTER-LIGAND FREE ENERGY PREDICTED BY IDOCK:   -2.57 KCAL/MOL
REMARK 924 INTRA-LIGAND FREE ENERGY PREDICTED BY IDOCK:    0.32 KCAL/MOL
REMARK 927      BINDING AFFINITY PREDICTED BY RF-SCORE:    0.00 PKD
ROOT
HETATM    1  N   UNK     1      -9.562   5.610  65.913  1.00  0.00    -0.328 NA 
HETATM    2  C   UNK     1      -9.568   5.681  67.410  1.00  0.00    -0.118 C  
HETATM    3  H1  UNK     1      -8.692   5.247  65.524  1.00  0.00     0.000 HD 
HETATM    4  H2  UNK     1      -9.785   6.519  65.508  1.00  0.00     0.000 HD 
HETATM    5  C   UNK     1      -9.288   4.274  67.954  1.00  0.00    -0.156 C  
HETATM    6  O   UNK     1      -9.590   3.871  69.065  1.00  0.00    -0.175 OA 
HETATM    7  O   UNK     1      -8.620   3.524  67.037  1.00  0.00    -0.103 OA 
ENDROOT
BRANCH   2   8
HETATM    8  C   UNK     1     -10.877   6.227  67.996  1.00  0.00    -0.326 C  
BRANCH   8   9
HETATM    9  S   UNK     1     -10.688   6.566  69.788  1.00  0.00    -0.300 SA 
BRANCH   9  10
HETATM   10  C   UNK     1     -10.566   8.392  69.714  1.00  0.00    -0.221 C  
HETATM   11  C   UNK     1     -11.170   9.061  70.936  1.00  0.00    -0.287 C  
HETATM   12  O   UNK     1     -11.161  10.275  71.099  1.00  0.00    -0.277 OA 
HETATM   13  O   UNK     1     -11.726   8.224  71.840  1.00  0.00    -0.283 OA 
ENDBRANCH   9  10
ENDBRANCH   8   9
ENDBRANCH   2   8
TORSDOF 3
ENDMDL
MODEL      270
REMARK 921   NORMALIZED FREE ENERGY PREDICTED BY IDOCK:   -1.54 KCAL/MOL
REMARK 922        TOTAL FREE ENERGY PREDICTED BY IDOCK:   -2.24 KCAL/MOL
REMARK 923 INTER-LIGAND FREE ENERGY PREDICTED BY IDOCK:   -1.62 KCAL/MOL
REMARK 924 INTRA-LIGAND FREE ENERGY PREDICTED BY IDOCK:   -0.62 KCAL/MOL
REMARK 927      BINDING AFFINITY PREDICTED BY RF-SCORE:    0.00 PKD
ROOT
HETATM    1  N   UNK     1      -9.662   3.292  66.191  1.00  0.00    -0.406 NA 
HETATM    2  C   UNK     1      -9.079   4.279  67.155  1.00  0.00    -0.137 C  
HETATM    3  H1  UNK     1     -10.674   3.194  66.266  1.00  0.00     0.000 HD 
HETATM    4  H2  UNK     1      -9.205   2.385  66.283  1.00  0.00     0.000 HD 
HETATM    5  C   UNK     1      -9.762   5.632  66.922  1.00  0.00    -0.148 C  
HETATM    6  O   UNK     1      -9.303   6.720  67.227  1.00  0.00    -0.129 OA 
HETATM    7  O   UNK     1     -10.984   5.465  66.349  1.00  0.00    -0.243 OA 
ENDROOT
BRANCH   2   8
HETATM    8  C   UNK     1      -7.555   4.427  67.041  1.00  0.00    -0.085 C  
BRANCH   8   9
HETATM    9  S   UNK     1      -6.972   3.844  65.403  1.00  0.00    -0.063 SA 
BRANCH   9  10
HETATM   10  C   UNK     1      -6.837   5.466  64.564  1.00  0.00    -0.048 C  
HETATM   11  C   UNK     1      -7.988   5.719  63.608  1.00  0.00    -0.120 C  
HETATM   12  O   UNK     1      -8.105   6.759  62.972  1.00  0.00    -0.105 OA 
HETATM   13  O   UNK     1      -8.884   4.713  63.500  1.00  0.00    -0.137 OA 
ENDBRANCH   9  10
ENDBRANCH   8   9
ENDBRANCH   2   8
TORSDOF 3
ENDMDL
MODEL      271
REMARK 921   NORMALIZED FREE ENERGY PREDICTED BY IDOCK:   -1.53 KCAL/MOL
REMARK 922        TOTAL FREE ENERGY PREDICTED BY IDOCK:   -2.23 KCAL/MOL
REMARK 923 INTER-LIGAND FREE ENERGY PREDICTED BY IDOCK:   -2.10 KCAL/MOL
REMARK 924 INTRA-LIGAND FREE ENERGY PREDICTED BY IDOCK:   -0.13 KCAL/MOL
REMARK 927      BINDING AFFINITY PREDICTED BY RF-SCORE:    0.00 PKD
ROOT
HETATM    1  N   UNK     1     -10.448  12.232  68.978  1.00  0.00    -0.419 NA 
HETATM    2  C   UNK     1     -10.938  10.989  68.300  1.00  0.00    -0.235 C  
HETATM    3  H1  UNK     1     -10.856  12.385  69.900  1.00  0.00     0.000 HD 
HETATM    4  H2  UNK     1     -10.590  13.048  68.382  1.00  0.00     0.000 HD 
HETATM    5  C   UNK     1     -10.638   9.797  69.218  1.00  0.00    -0.221 C  
HETATM    6  O   UNK     1     -10.536   8.636  68.861  1.00  0.00    -0.215 OA 
HETATM    7  O   UNK     1     -10.528  10.198  70.513  1.00  0.00    -0.261 OA 
ENDROOT
BRANCH   2   8
HETATM    8  C   UNK     1     -10.324  10.759  66.913  1.00  0.00    -0.241 C  
BRANCH   8   9
HETATM    9  S   UNK     1      -8.544  11.201  66.916  1.00  0.00    -0.153 SA 
BRANCH   9  10
HETATM   10  C   UNK     1      -8.011  10.216  65.467  1.00  0.00    -0.146 C  
HETATM   11  C   UNK     1      -6.873   9.268  65.800  1.00  0.00    -0.084 C  
HETATM   12  O   UNK     1      -6.392   8.496  64.980  1.00  0.00    -0.059 OA 
HETATM   13  O   UNK     1      -6.417   9.334  67.071  1.00  0.00    -0.065 OA 
ENDBRANCH   9  10
ENDBRANCH   8   9
ENDBRANCH   2   8
TORSDOF 3
ENDMDL
MODEL      272
REMARK 921   NORMALIZED FREE ENERGY PREDICTED BY IDOCK:   -1.51 KCAL/MOL
REMARK 922        TOTAL FREE ENERGY PREDICTED BY IDOCK:   -2.21 KCAL/MOL
REMARK 923 INTER-LIGAND FREE ENERGY PREDICTED BY IDOCK:   -2.07 KCAL/MOL
REMARK 924 INTRA-LIGAND FREE ENERGY PREDICTED BY IDOCK:   -0.14 KCAL/MOL
REMARK 927      BINDING AFFINITY PREDICTED BY RF-SCORE:    0.00 PKD
ROOT
HETATM    1  N   UNK     1      -9.107   6.293  65.225  1.00  0.00    -0.362 NA 
HETATM    2  C   UNK     1      -8.976   6.267  66.718  1.00  0.00    -0.125 C  
HETATM    3  H1  UNK     1      -8.928   5.392  64.782  1.00  0.00     0.000 HD 
HETATM    4  H2  UNK     1      -8.511   7.016  64.824  1.00  0.00     0.000 HD 
HETATM    5  C   UNK     1      -9.942   5.206  67.261  1.00  0.00    -0.186 C  
HETATM    6  O   UNK     1     -10.387   5.168  68.396  1.00  0.00    -0.147 OA 
HETATM    7  O   UNK     1     -10.222   4.274  66.311  1.00  0.00    -0.219 OA 
ENDROOT
BRANCH   2   8
HETATM    8  C   UNK     1      -9.246   7.623  67.385  1.00  0.00    -0.132 C  
BRANCH   8   9
HETATM    9  S   UNK     1      -7.824   8.119  68.432  1.00  0.00    -0.120 SA 
BRANCH   9  10
HETATM   10  C   UNK     1      -8.723   9.150  69.649  1.00  0.00    -0.145 C  
HETATM   11  C   UNK     1      -8.774   8.508  71.024  1.00  0.00    -0.173 C  
HETATM   12  O   UNK     1      -9.299   9.049  71.989  1.00  0.00    -0.358 OA 
HETATM   13  O   UNK     1      -8.199   7.288  71.116  1.00  0.00    -0.106 OA 
ENDBRANCH   9  10
ENDBRANCH   8   9
ENDBRANCH   2   8
TORSDOF 3
ENDMDL
MODEL      273
REMARK 921   NORMALIZED FREE ENERGY PREDICTED BY IDOCK:   -1.51 KCAL/MOL
REMARK 922        TOTAL FREE ENERGY PREDICTED BY IDOCK:   -2.21 KCAL/MOL
REMARK 923 INTER-LIGAND FREE ENERGY PREDICTED BY IDOCK:   -1.95 KCAL/MOL
REMARK 924 INTRA-LIGAND FREE ENERGY PREDICTED BY IDOCK:   -0.26 KCAL/MOL
REMARK 927      BINDING AFFINITY PREDICTED BY RF-SCORE:    0.00 PKD
ROOT
HETATM    1  N   UNK     1     -11.198   6.276  70.044  1.00  0.00    -0.385 NA 
HETATM    2  C   UNK     1     -11.160   5.627  71.394  1.00  0.00    -0.151 C  
HETATM    3  H1  UNK     1     -12.058   6.793  69.861  1.00  0.00     0.000 HD 
HETATM    4  H2  UNK     1     -11.030   5.588  69.309  1.00  0.00     0.000 HD 
HETATM    5  C   UNK     1     -11.356   6.721  72.452  1.00  0.00    -0.268 C  
HETATM    6  O   UNK     1     -11.008   6.648  73.618  1.00  0.00    -0.204 OA 
HETATM    7  O   UNK     1     -12.007   7.792  71.926  1.00  0.00    -0.280 OA 
ENDROOT
BRANCH   2   8
HETATM    8  C   UNK     1      -9.865   4.849  71.668  1.00  0.00    -0.184 C  
BRANCH   8   9
HETATM    9  S   UNK     1      -8.434   5.681  70.880  1.00  0.00    -0.126 SA 
BRANCH   9  10
HETATM   10  C   UNK     1      -7.286   5.670  72.306  1.00  0.00    -0.095 C  
HETATM   11  C   UNK     1      -7.141   7.041  72.941  1.00  0.00    -0.073 C  
HETATM   12  O   UNK     1      -6.446   7.244  73.929  1.00  0.00    -0.075 OA 
HETATM   13  O   UNK     1      -7.832   8.035  72.339  1.00  0.00    -0.106 OA 
ENDBRANCH   9  10
ENDBRANCH   8   9
ENDBRANCH   2   8
TORSDOF 3
ENDMDL
MODEL      274
REMARK 921   NORMALIZED FREE ENERGY PREDICTED BY IDOCK:   -1.51 KCAL/MOL
REMARK 922        TOTAL FREE ENERGY PREDICTED BY IDOCK:   -2.21 KCAL/MOL
REMARK 923 INTER-LIGAND FREE ENERGY PREDICTED BY IDOCK:   -1.98 KCAL/MOL
REMARK 924 INTRA-LIGAND FREE ENERGY PREDICTED BY IDOCK:   -0.22 KCAL/MOL
REMARK 927      BINDING AFFINITY PREDICTED BY RF-SCORE:    0.00 PKD
ROOT
HETATM    1  N   UNK     1     -10.837   8.818  68.648  1.00  0.00    -0.435 NA 
HETATM    2  C   UNK     1     -10.755   8.224  67.275  1.00  0.00    -0.171 C  
HETATM    3  H1  UNK     1     -11.590   8.432  69.218  1.00  0.00     0.000 HD 
HETATM    4  H2  UNK     1     -10.910   9.834  68.597  1.00  0.00     0.000 HD 
HETATM    5  C   UNK     1     -10.583   6.707  67.424  1.00  0.00    -0.301 C  
HETATM    6  O   UNK     1     -10.108   5.962  66.583  1.00  0.00    -0.166 OA 
HETATM    7  O   UNK     1     -11.066   6.279  68.621  1.00  0.00    -0.334 OA 
ENDROOT
BRANCH   2   8
HETATM    8  C   UNK     1      -9.622   8.805  66.418  1.00  0.00    -0.249 C  
BRANCH   8   9
HETATM    9  S   UNK     1      -8.164   9.199  67.459  1.00  0.00    -0.108 SA 
BRANCH   9  10
HETATM   10  C   UNK     1      -6.999   7.956  66.788  1.00  0.00    -0.073 C  
HETATM   11  C   UNK     1      -6.054   8.548  65.758  1.00  0.00    -0.048 C  
HETATM   12  O   UNK     1      -5.175   7.894  65.212  1.00  0.00    -0.028 OA 
HETATM   13  O   UNK     1      -6.248   9.856  65.478  1.00  0.00    -0.072 OA 
ENDBRANCH   9  10
ENDBRANCH   8   9
ENDBRANCH   2   8
TORSDOF 3
ENDMDL
MODEL      275
REMARK 921   NORMALIZED FREE ENERGY PREDICTED BY IDOCK:   -1.48 KCAL/MOL
REMARK 922        TOTAL FREE ENERGY PREDICTED BY IDOCK:   -2.17 KCAL/MOL
REMARK 923 INTER-LIGAND FREE ENERGY PREDICTED BY IDOCK:   -1.99 KCAL/MOL
REMARK 924 INTRA-LIGAND FREE ENERGY PREDICTED BY IDOCK:   -0.18 KCAL/MOL
REMARK 927      BINDING AFFINITY PREDICTED BY RF-SCORE:    0.00 PKD
ROOT
HETATM    1  N   UNK     1      -9.214   9.291  64.514  1.00  0.00    -0.434 NA 
HETATM    2  C   UNK     1      -8.830  10.094  65.719  1.00  0.00    -0.158 C  
HETATM    3  H1  UNK     1     -10.215   9.106  64.447  1.00  0.00     0.000 HD 
HETATM    4  H2  UNK     1      -8.684   8.420  64.478  1.00  0.00     0.000 HD 
HETATM    5  C   UNK     1      -9.612  11.413  65.680  1.00  0.00    -0.231 C  
HETATM    6  O   UNK     1      -9.292  12.444  66.249  1.00  0.00    -0.230 OA 
HETATM    7  O   UNK     1     -10.747  11.282  64.944  1.00  0.00    -0.303 OA 
ENDROOT
BRANCH   2   8
HETATM    8  C   UNK     1      -7.323  10.372  65.821  1.00  0.00    -0.147 C  
BRANCH   8   9
HETATM    9  S   UNK     1      -6.668   9.790  67.432  1.00  0.00    -0.074 SA 
BRANCH   9  10
HETATM   10  C   UNK     1      -7.648   8.251  67.590  1.00  0.00    -0.098 C  
HETATM   11  C   UNK     1      -8.042   7.962  69.027  1.00  0.00    -0.124 C  
HETATM   12  O   UNK     1      -8.728   6.999  69.346  1.00  0.00    -0.133 OA 
HETATM   13  O   UNK     1      -7.580   8.843  69.943  1.00  0.00    -0.057 OA 
ENDBRANCH   9  10
ENDBRANCH   8   9
ENDBRANCH   2   8
TORSDOF 3
ENDMDL
MODEL      276
REMARK 921   NORMALIZED FREE ENERGY PREDICTED BY IDOCK:   -1.47 KCAL/MOL
REMARK 922        TOTAL FREE ENERGY PREDICTED BY IDOCK:   -2.16 KCAL/MOL
REMARK 923 INTER-LIGAND FREE ENERGY PREDICTED BY IDOCK:   -2.03 KCAL/MOL
REMARK 924 INTRA-LIGAND FREE ENERGY PREDICTED BY IDOCK:   -0.13 KCAL/MOL
REMARK 927      BINDING AFFINITY PREDICTED BY RF-SCORE:    0.00 PKD
ROOT
HETATM    1  N   UNK     1      -7.179   8.637  65.267  1.00  0.00    -0.082 NA 
HETATM    2  C   UNK     1      -8.511   9.262  64.985  1.00  0.00    -0.163 C  
HETATM    3  H1  UNK     1      -7.104   7.671  64.951  1.00  0.00     0.000 HD 
HETATM    4  H2  UNK     1      -6.951   8.709  66.259  1.00  0.00     0.000 HD 
HETATM    5  C   UNK     1      -8.765   9.178  63.474  1.00  0.00    -0.128 C  
HETATM    6  O   UNK     1      -9.522   9.894  62.841  1.00  0.00    -0.276 OA 
HETATM    7  O   UNK     1      -8.049   8.163  62.919  1.00  0.00    -0.158 OA 
ENDROOT
BRANCH   2   8
HETATM    8  C   UNK     1      -8.625  10.717  65.462  1.00  0.00    -0.185 C  
BRANCH   8   9
HETATM    9  S   UNK     1      -9.732  10.832  66.919  1.00  0.00    -0.182 SA 
BRANCH   9  10
HETATM   10  C   UNK     1      -8.909  12.220  67.784  1.00  0.00    -0.174 C  
HETATM   11  C   UNK     1      -9.656  13.530  67.614  1.00  0.00    -0.222 C  
HETATM   12  O   UNK     1      -9.292  14.574  68.140  1.00  0.00    -0.185 OA 
HETATM   13  O   UNK     1     -10.759  13.472  66.833  1.00  0.00    -0.272 OA 
ENDBRANCH   9  10
ENDBRANCH   8   9
ENDBRANCH   2   8
TORSDOF 3
ENDMDL
MODEL      277
REMARK 921   NORMALIZED FREE ENERGY PREDICTED BY IDOCK:   -1.45 KCAL/MOL
REMARK 922        TOTAL FREE ENERGY PREDICTED BY IDOCK:   -2.13 KCAL/MOL
REMARK 923 INTER-LIGAND FREE ENERGY PREDICTED BY IDOCK:   -1.96 KCAL/MOL
REMARK 924 INTRA-LIGAND FREE ENERGY PREDICTED BY IDOCK:   -0.17 KCAL/MOL
REMARK 927      BINDING AFFINITY PREDICTED BY RF-SCORE:    0.00 PKD
ROOT
HETATM    1  N   UNK     1     -11.135   9.186  68.796  1.00  0.00    -0.447 NA 
HETATM    2  C   UNK     1     -10.324   9.156  67.537  1.00  0.00    -0.261 C  
HETATM    3  H1  UNK     1     -11.984   8.623  68.751  1.00  0.00     0.000 HD 
HETATM    4  H2  UNK     1     -11.355  10.146  69.061  1.00  0.00     0.000 HD 
HETATM    5  C   UNK     1      -9.975   7.694  67.231  1.00  0.00    -0.208 C  
HETATM    6  O   UNK     1      -9.042   7.317  66.542  1.00  0.00    -0.144 OA 
HETATM    7  O   UNK     1     -10.872   6.850  67.809  1.00  0.00    -0.242 OA 
ENDROOT
BRANCH   2   8
HETATM    8  C   UNK     1      -9.046  10.004  67.605  1.00  0.00    -0.134 C  
BRANCH   8   9
HETATM    9  S   UNK     1      -8.725  10.546  69.327  1.00  0.00    -0.074 SA 
BRANCH   9  10
HETATM   10  C   UNK     1      -7.490   9.277  69.792  1.00  0.00    -0.075 C  
HETATM   11  C   UNK     1      -6.388   9.838  70.673  1.00  0.00    -0.105 C  
HETATM   12  O   UNK     1      -5.482   9.148  71.122  1.00  0.00    -0.035 OA 
HETATM   13  O   UNK     1      -6.471  11.163  70.931  1.00  0.00    -0.231 OA 
ENDBRANCH   9  10
ENDBRANCH   8   9
ENDBRANCH   2   8
TORSDOF 3
ENDMDL
MODEL      278
REMARK 921   NORMALIZED FREE ENERGY PREDICTED BY IDOCK:   -1.44 KCAL/MOL
REMARK 922        TOTAL FREE ENERGY PREDICTED BY IDOCK:   -2.13 KCAL/MOL
REMARK 923 INTER-LIGAND FREE ENERGY PREDICTED BY IDOCK:   -1.94 KCAL/MOL
REMARK 924 INTRA-LIGAND FREE ENERGY PREDICTED BY IDOCK:   -0.19 KCAL/MOL
REMARK 927      BINDING AFFINITY PREDICTED BY RF-SCORE:    0.00 PKD
ROOT
HETATM    1  N   UNK     1      -8.044   8.636  65.693  1.00  0.00    -0.104 NA 
HETATM    2  C   UNK     1      -7.724   9.029  67.103  1.00  0.00    -0.099 C  
HETATM    3  H1  UNK     1      -7.384   9.001  65.006  1.00  0.00     0.000 HD 
HETATM    4  H2  UNK     1      -8.998   8.904  65.453  1.00  0.00     0.000 HD 
HETATM    5  C   UNK     1      -6.304   8.543  67.421  1.00  0.00    -0.057 C  
HETATM    6  O   UNK     1      -5.858   8.337  68.538  1.00  0.00    -0.038 OA 
HETATM    7  O   UNK     1      -5.575   8.398  66.282  1.00  0.00    -0.037 OA 
ENDROOT
BRANCH   2   8
HETATM    8  C   UNK     1      -8.717   8.480  68.137  1.00  0.00    -0.142 C  
BRANCH   8   9
HETATM    9  S   UNK     1      -9.353   9.832  69.200  1.00  0.00    -0.194 SA 
BRANCH   9  10
HETATM   10  C   UNK     1      -9.853  11.005  67.886  1.00  0.00    -0.171 C  
HETATM   11  C   UNK     1     -11.358  11.190  67.818  1.00  0.00    -0.293 C  
HETATM   12  O   UNK     1     -11.897  11.957  67.031  1.00  0.00    -0.585 OA 
HETATM   13  O   UNK     1     -12.073  10.443  68.689  1.00  0.00    -0.219 OA 
ENDBRANCH   9  10
ENDBRANCH   8   9
ENDBRANCH   2   8
TORSDOF 3
ENDMDL
MODEL      279
REMARK 921   NORMALIZED FREE ENERGY PREDICTED BY IDOCK:   -1.43 KCAL/MOL
REMARK 922        TOTAL FREE ENERGY PREDICTED BY IDOCK:   -2.12 KCAL/MOL
REMARK 923 INTER-LIGAND FREE ENERGY PREDICTED BY IDOCK:   -2.00 KCAL/MOL
REMARK 924 INTRA-LIGAND FREE ENERGY PREDICTED BY IDOCK:   -0.12 KCAL/MOL
REMARK 927      BINDING AFFINITY PREDICTED BY RF-SCORE:    0.00 PKD
ROOT
HETATM    1  N   UNK     1      -9.190   4.921  72.112  1.00  0.00    -0.134 NA 
HETATM    2  C   UNK     1      -9.829   6.184  71.618  1.00  0.00    -0.169 C  
HETATM    3  H1  UNK     1      -9.235   4.807  73.124  1.00  0.00     0.000 HD 
HETATM    4  H2  UNK     1      -8.226   4.854  71.785  1.00  0.00     0.000 HD 
HETATM    5  C   UNK     1     -11.289   6.193  72.089  1.00  0.00    -0.299 C  
HETATM    6  O   UNK     1     -12.194   6.831  71.579  1.00  0.00    -0.338 OA 
HETATM    7  O   UNK     1     -11.448   5.410  73.189  1.00  0.00    -0.292 OA 
ENDROOT
BRANCH   2   8
HETATM    8  C   UNK     1      -9.761   6.355  70.094  1.00  0.00    -0.166 C  
BRANCH   8   9
HETATM    9  S   UNK     1      -8.039   6.687  69.560  1.00  0.00    -0.127 SA 
BRANCH   9  10
HETATM   10  C   UNK     1      -8.155   6.061  67.844  1.00  0.00    -0.106 C  
HETATM   11  C   UNK     1      -8.296   7.180  66.828  1.00  0.00    -0.116 C  
HETATM   12  O   UNK     1      -8.355   6.978  65.622  1.00  0.00    -0.129 OA 
HETATM   13  O   UNK     1      -8.355   8.428  67.346  1.00  0.00    -0.122 OA 
ENDBRANCH   9  10
ENDBRANCH   8   9
ENDBRANCH   2   8
TORSDOF 3
ENDMDL
MODEL      280
REMARK 921   NORMALIZED FREE ENERGY PREDICTED BY IDOCK:   -1.43 KCAL/MOL
REMARK 922        TOTAL FREE ENERGY PREDICTED BY IDOCK:   -2.11 KCAL/MOL
REMARK 923 INTER-LIGAND FREE ENERGY PREDICTED BY IDOCK:   -2.52 KCAL/MOL
REMARK 924 INTRA-LIGAND FREE ENERGY PREDICTED BY IDOCK:    0.41 KCAL/MOL
REMARK 927      BINDING AFFINITY PREDICTED BY RF-SCORE:    0.00 PKD
ROOT
HETATM    1  N   UNK     1      -8.286  17.002  65.831  1.00  0.00    -0.492 NA 
HETATM    2  C   UNK     1      -9.467  16.134  66.144  1.00  0.00    -0.327 C  
HETATM    3  H1  UNK     1      -8.466  17.693  65.103  1.00  0.00     0.000 HD 
HETATM    4  H2  UNK     1      -7.474  16.432  65.593  1.00  0.00     0.000 HD 
HETATM    5  C   UNK     1     -10.631  17.046  66.554  1.00  0.00    -0.172 C  
HETATM    6  O   UNK     1     -11.591  16.710  67.226  1.00  0.00     0.361 OA 
HETATM    7  O   UNK     1     -10.473  18.294  66.037  1.00  0.00    -0.450 OA 
ENDROOT
BRANCH   2   8
HETATM    8  C   UNK     1      -9.195  15.094  67.240  1.00  0.00    -0.198 C  
BRANCH   8   9
HETATM    9  S   UNK     1     -10.626  13.962  67.421  1.00  0.00    -0.268 SA 
BRANCH   9  10
HETATM   10  C   UNK     1     -10.144  12.705  66.179  1.00  0.00    -0.257 C  
HETATM   11  C   UNK     1     -10.443  11.291  66.643  1.00  0.00    -0.247 C  
HETATM   12  O   UNK     1     -10.228  10.306  65.948  1.00  0.00    -0.254 OA 
HETATM   13  O   UNK     1     -10.965  11.186  67.886  1.00  0.00    -0.215 OA 
ENDBRANCH   9  10
ENDBRANCH   8   9
ENDBRANCH   2   8
TORSDOF 3
ENDMDL
MODEL      281
REMARK 921   NORMALIZED FREE ENERGY PREDICTED BY IDOCK:   -1.42 KCAL/MOL
REMARK 922        TOTAL FREE ENERGY PREDICTED BY IDOCK:   -2.10 KCAL/MOL
REMARK 923 INTER-LIGAND FREE ENERGY PREDICTED BY IDOCK:   -2.02 KCAL/MOL
REMARK 924 INTRA-LIGAND FREE ENERGY PREDICTED BY IDOCK:   -0.08 KCAL/MOL
REMARK 927      BINDING AFFINITY PREDICTED BY RF-SCORE:    0.00 PKD
ROOT
HETATM    1  N   UNK     1      -9.360   7.490  65.952  1.00  0.00    -0.400 NA 
HETATM    2  C   UNK     1     -10.174   7.985  67.109  1.00  0.00    -0.292 C  
HETATM    3  H1  UNK     1      -9.780   7.685  65.043  1.00  0.00     0.000 HD 
HETATM    4  H2  UNK     1      -9.162   6.495  66.050  1.00  0.00     0.000 HD 
HETATM    5  C   UNK     1     -10.383   9.494  66.932  1.00  0.00    -0.237 C  
HETATM    6  O   UNK     1     -10.644  10.283  67.825  1.00  0.00    -0.211 OA 
HETATM    7  O   UNK     1     -10.269   9.849  65.624  1.00  0.00    -0.269 OA 
ENDROOT
BRANCH   2   8
HETATM    8  C   UNK     1      -9.542   7.692  68.477  1.00  0.00    -0.148 C  
BRANCH   8   9
HETATM    9  S   UNK     1      -8.394   6.267  68.364  1.00  0.00    -0.115 SA 
BRANCH   9  10
HETATM   10  C   UNK     1      -8.496   5.690  70.099  1.00  0.00    -0.119 C  
HETATM   11  C   UNK     1      -7.538   6.432  71.012  1.00  0.00    -0.090 C  
HETATM   12  O   UNK     1      -7.473   6.222  72.217  1.00  0.00    -0.091 OA 
HETATM   13  O   UNK     1      -6.750   7.348  70.405  1.00  0.00    -0.046 OA 
ENDBRANCH   9  10
ENDBRANCH   8   9
ENDBRANCH   2   8
TORSDOF 3
ENDMDL
MODEL      282
REMARK 921   NORMALIZED FREE ENERGY PREDICTED BY IDOCK:   -1.34 KCAL/MOL
REMARK 922        TOTAL FREE ENERGY PREDICTED BY IDOCK:   -2.01 KCAL/MOL
REMARK 923 INTER-LIGAND FREE ENERGY PREDICTED BY IDOCK:   -1.82 KCAL/MOL
REMARK 924 INTRA-LIGAND FREE ENERGY PREDICTED BY IDOCK:   -0.18 KCAL/MOL
REMARK 927      BINDING AFFINITY PREDICTED BY RF-SCORE:    0.00 PKD
ROOT
HETATM    1  N   UNK     1     -10.040   3.893  73.514  1.00  0.00    -0.126 NA 
HETATM    2  C   UNK     1      -9.630   5.146  72.802  1.00  0.00    -0.145 C  
HETATM    3  H1  UNK     1     -10.709   4.050  74.268  1.00  0.00     0.000 HD 
HETATM    4  H2  UNK     1      -9.222   3.390  73.859  1.00  0.00     0.000 HD 
HETATM    5  C   UNK     1     -10.896   5.818  72.256  1.00  0.00    -0.248 C  
HETATM    6  O   UNK     1     -10.935   6.609  71.328  1.00  0.00    -0.237 OA 
HETATM    7  O   UNK     1     -11.991   5.441  72.969  1.00  0.00    -0.193 OA 
ENDROOT
BRANCH   2   8
HETATM    8  C   UNK     1      -8.624   4.909  71.667  1.00  0.00    -0.126 C  
BRANCH   8   9
HETATM    9  S   UNK     1      -7.035   5.750  72.030  1.00  0.00    -0.079 SA 
BRANCH   9  10
HETATM   10  C   UNK     1      -7.676   7.439  72.327  1.00  0.00    -0.092 C  
HETATM   11  C   UNK     1      -7.397   7.924  73.738  1.00  0.00    -0.138 C  
HETATM   12  O   UNK     1      -7.713   9.039  74.131  1.00  0.00    -0.347 OA 
HETATM   13  O   UNK     1      -6.772   7.034  74.543  1.00  0.00    -0.089 OA 
ENDBRANCH   9  10
ENDBRANCH   8   9
ENDBRANCH   2   8
TORSDOF 3
ENDMDL
MODEL      283
REMARK 921   NORMALIZED FREE ENERGY PREDICTED BY IDOCK:   -1.33 KCAL/MOL
REMARK 922        TOTAL FREE ENERGY PREDICTED BY IDOCK:   -1.99 KCAL/MOL
REMARK 923 INTER-LIGAND FREE ENERGY PREDICTED BY IDOCK:   -1.80 KCAL/MOL
REMARK 924 INTRA-LIGAND FREE ENERGY PREDICTED BY IDOCK:   -0.19 KCAL/MOL
REMARK 927      BINDING AFFINITY PREDICTED BY RF-SCORE:    0.00 PKD
ROOT
HETATM    1  N   UNK     1      -9.569  10.250  68.205  1.00  0.00    -0.139 NA 
HETATM    2  C   UNK     1      -9.917   8.812  68.441  1.00  0.00    -0.179 C  
HETATM    3  H1  UNK     1     -10.134  10.903  68.747  1.00  0.00     0.000 HD 
HETATM    4  H2  UNK     1      -9.616  10.474  67.210  1.00  0.00     0.000 HD 
HETATM    5  C   UNK     1      -9.766   8.527  69.940  1.00  0.00    -0.179 C  
HETATM    6  O   UNK     1      -9.588   7.428  70.438  1.00  0.00    -0.166 OA 
HETATM    7  O   UNK     1      -9.890   9.670  70.666  1.00  0.00    -0.265 OA 
ENDROOT
BRANCH   2   8
HETATM    8  C   UNK     1      -9.066   7.829  67.624  1.00  0.00    -0.133 C  
BRANCH   8   9
HETATM    9  S   UNK     1      -7.889   8.736  66.549  1.00  0.00    -0.104 SA 
BRANCH   9  10
HETATM   10  C   UNK     1      -8.836   8.671  64.984  1.00  0.00    -0.070 C  
HETATM   11  C   UNK     1      -8.957  10.033  64.325  1.00  0.00    -0.236 C  
HETATM   12  O   UNK     1      -9.523  10.204  63.253  1.00  0.00    -0.292 OA 
HETATM   13  O   UNK     1      -8.397  11.058  65.006  1.00  0.00    -0.036 OA 
ENDBRANCH   9  10
ENDBRANCH   8   9
ENDBRANCH   2   8
TORSDOF 3
ENDMDL
MODEL      284
REMARK 921   NORMALIZED FREE ENERGY PREDICTED BY IDOCK:   -1.30 KCAL/MOL
REMARK 922        TOTAL FREE ENERGY PREDICTED BY IDOCK:   -1.95 KCAL/MOL
REMARK 923 INTER-LIGAND FREE ENERGY PREDICTED BY IDOCK:   -1.82 KCAL/MOL
REMARK 924 INTRA-LIGAND FREE ENERGY PREDICTED BY IDOCK:   -0.14 KCAL/MOL
REMARK 927      BINDING AFFINITY PREDICTED BY RF-SCORE:    0.00 PKD
ROOT
HETATM    1  N   UNK     1     -10.396  10.770  67.794  1.00  0.00    -0.184 NA 
HETATM    2  C   UNK     1      -8.946  10.856  67.426  1.00  0.00    -0.136 C  
HETATM    3  H1  UNK     1     -10.976  10.333  67.078  1.00  0.00     0.000 HD 
HETATM    4  H2  UNK     1     -10.761  11.691  68.038  1.00  0.00     0.000 HD 
HETATM    5  C   UNK     1      -8.446   9.435  67.133  1.00  0.00    -0.128 C  
HETATM    6  O   UNK     1      -7.284   9.069  67.182  1.00  0.00    -0.081 OA 
HETATM    7  O   UNK     1      -9.476   8.624  66.772  1.00  0.00    -0.162 OA 
ENDROOT
BRANCH   2   8
HETATM    8  C   UNK     1      -8.074  11.514  68.503  1.00  0.00    -0.146 C  
BRANCH   8   9
HETATM    9  S   UNK     1      -7.407  13.114  67.903  1.00  0.00    -0.150 SA 
BRANCH   9  10
HETATM   10  C   UNK     1      -8.983  14.034  67.756  1.00  0.00    -0.186 C  
HETATM   11  C   UNK     1      -9.091  15.161  68.767  1.00  0.00    -0.200 C  
HETATM   12  O   UNK     1     -10.051  15.919  68.816  1.00  0.00    -0.207 OA 
HETATM   13  O   UNK     1      -8.049  15.273  69.622  1.00  0.00    -0.233 OA 
ENDBRANCH   9  10
ENDBRANCH   8   9
ENDBRANCH   2   8
TORSDOF 3
ENDMDL
MODEL      285
REMARK 921   NORMALIZED FREE ENERGY PREDICTED BY IDOCK:   -1.26 KCAL/MOL
REMARK 922        TOTAL FREE ENERGY PREDICTED BY IDOCK:   -1.92 KCAL/MOL
REMARK 923 INTER-LIGAND FREE ENERGY PREDICTED BY IDOCK:   -1.71 KCAL/MOL
REMARK 924 INTRA-LIGAND FREE ENERGY PREDICTED BY IDOCK:   -0.20 KCAL/MOL
REMARK 927      BINDING AFFINITY PREDICTED BY RF-SCORE:    0.00 PKD
ROOT
HETATM    1  N   UNK     1      -9.312  10.425  68.648  1.00  0.00    -0.159 NA 
HETATM    2  C   UNK     1     -10.274   9.442  69.243  1.00  0.00    -0.202 C  
HETATM    3  H1  UNK     1      -9.764  11.215  68.189  1.00  0.00     0.000 HD 
HETATM    4  H2  UNK     1      -8.670   9.958  68.008  1.00  0.00     0.000 HD 
HETATM    5  C   UNK     1     -11.166  10.194  70.239  1.00  0.00    -0.318 C  
HETATM    6  O   UNK     1     -11.776   9.689  71.166  1.00  0.00    -0.312 OA 
HETATM    7  O   UNK     1     -11.220  11.519  69.937  1.00  0.00    -0.216 OA 
ENDROOT
BRANCH   2   8
HETATM    8  C   UNK     1      -9.593   8.252  69.933  1.00  0.00    -0.171 C  
BRANCH   8   9
HETATM    9  S   UNK     1      -8.183   8.823  70.958  1.00  0.00    -0.172 SA 
BRANCH   9  10
HETATM   10  C   UNK     1      -7.106   7.352  70.793  1.00  0.00    -0.063 C  
HETATM   11  C   UNK     1      -6.303   7.366  69.504  1.00  0.00    -0.035 C  
HETATM   12  O   UNK     1      -5.497   6.491  69.216  1.00  0.00    -0.012 OA 
HETATM   13  O   UNK     1      -6.540   8.416  68.685  1.00  0.00    -0.052 OA 
ENDBRANCH   9  10
ENDBRANCH   8   9
ENDBRANCH   2   8
TORSDOF 3
ENDMDL
MODEL      286
REMARK 921   NORMALIZED FREE ENERGY PREDICTED BY IDOCK:   -1.22 KCAL/MOL
REMARK 922        TOTAL FREE ENERGY PREDICTED BY IDOCK:   -1.86 KCAL/MOL
REMARK 923 INTER-LIGAND FREE ENERGY PREDICTED BY IDOCK:   -1.72 KCAL/MOL
REMARK 924 INTRA-LIGAND FREE ENERGY PREDICTED BY IDOCK:   -0.13 KCAL/MOL
REMARK 927      BINDING AFFINITY PREDICTED BY RF-SCORE:    0.00 PKD
ROOT
HETATM    1  N   UNK     1     -10.296   8.693  70.904  1.00  0.00    -0.201 NA 
HETATM    2  C   UNK     1     -10.203   7.267  71.356  1.00  0.00    -0.188 C  
HETATM    3  H1  UNK     1     -11.254   9.026  70.793  1.00  0.00     0.000 HD 
HETATM    4  H2  UNK     1      -9.765   8.834  70.045  1.00  0.00     0.000 HD 
HETATM    5  C   UNK     1     -10.968   7.137  72.680  1.00  0.00    -0.288 C  
HETATM    6  O   UNK     1     -10.795   6.266  73.515  1.00  0.00    -0.257 OA 
HETATM    7  O   UNK     1     -11.905   8.116  72.796  1.00  0.00    -0.389 OA 
ENDROOT
BRANCH   2   8
HETATM    8  C   UNK     1      -8.762   6.766  71.523  1.00  0.00    -0.127 C  
BRANCH   8   9
HETATM    9  S   UNK     1      -8.251   5.778  70.065  1.00  0.00    -0.117 SA 
BRANCH   9  10
HETATM   10  C   UNK     1      -7.544   7.128  69.050  1.00  0.00    -0.100 C  
HETATM   11  C   UNK     1      -6.078   6.902  68.729  1.00  0.00    -0.026 C  
HETATM   12  O   UNK     1      -5.425   7.669  68.033  1.00  0.00    -0.029 OA 
HETATM   13  O   UNK     1      -5.531   5.788  69.268  1.00  0.00    -0.004 OA 
ENDBRANCH   9  10
ENDBRANCH   8   9
ENDBRANCH   2   8
TORSDOF 3
ENDMDL
MODEL      287
REMARK 921   NORMALIZED FREE ENERGY PREDICTED BY IDOCK:   -0.94 KCAL/MOL
REMARK 922        TOTAL FREE ENERGY PREDICTED BY IDOCK:   -1.53 KCAL/MOL
REMARK 923 INTER-LIGAND FREE ENERGY PREDICTED BY IDOCK:   -1.45 KCAL/MOL
REMARK 924 INTRA-LIGAND FREE ENERGY PREDICTED BY IDOCK:   -0.09 KCAL/MOL
REMARK 927      BINDING AFFINITY PREDICTED BY RF-SCORE:    0.00 PKD
ROOT
HETATM    1  N   UNK     1      -7.122  10.796  68.152  1.00  0.00    -0.076 NA 
HETATM    2  C   UNK     1      -8.514  10.258  68.019  1.00  0.00    -0.118 C  
HETATM    3  H1  UNK     1      -6.934  11.599  67.553  1.00  0.00     0.000 HD 
HETATM    4  H2  UNK     1      -6.435  10.059  67.991  1.00  0.00     0.000 HD 
HETATM    5  C   UNK     1      -9.494  11.396  68.333  1.00  0.00    -0.194 C  
HETATM    6  O   UNK     1     -10.650  11.255  68.697  1.00  0.00    -0.184 OA 
HETATM    7  O   UNK     1      -8.915  12.607  68.120  1.00  0.00    -0.191 OA 
ENDROOT
BRANCH   2   8
HETATM    8  C   UNK     1      -8.798   9.048  68.920  1.00  0.00    -0.139 C  
BRANCH   8   9
HETATM    9  S   UNK     1      -8.327   7.491  68.075  1.00  0.00    -0.124 SA 
BRANCH   9  10
HETATM   10  C   UNK     1      -8.829   6.305  69.376  1.00  0.00    -0.127 C  
HETATM   11  C   UNK     1      -8.852   4.873  68.875  1.00  0.00    -0.093 C  
HETATM   12  O   UNK     1      -9.129   3.922  69.595  1.00  0.00    -0.094 OA 
HETATM   13  O   UNK     1      -8.548   4.711  67.567  1.00  0.00    -0.104 OA 
ENDBRANCH   9  10
ENDBRANCH   8   9
ENDBRANCH   2   8
TORSDOF 3
ENDMDL
MODEL      288
REMARK 921   NORMALIZED FREE ENERGY PREDICTED BY IDOCK:   -0.16 KCAL/MOL
REMARK 922        TOTAL FREE ENERGY PREDICTED BY IDOCK:   -0.62 KCAL/MOL
REMARK 923 INTER-LIGAND FREE ENERGY PREDICTED BY IDOCK:   -0.81 KCAL/MOL
REMARK 924 INTRA-LIGAND FREE ENERGY PREDICTED BY IDOCK:    0.19 KCAL/MOL
REMARK 927      BINDING AFFINITY PREDICTED BY RF-SCORE:    0.00 PKD
ROOT
HETATM    1  N   UNK     1      -7.223  16.477  65.623  1.00  0.00     0.835 NA 
HETATM    2  C   UNK     1      -7.577  15.533  66.732  1.00  0.00    -0.018 C  
HETATM    3  H1  UNK     1      -7.853  16.424  64.823  1.00  0.00     0.000 HD 
HETATM    4  H2  UNK     1      -6.256  16.339  65.329  1.00  0.00     0.000 HD 
HETATM    5  C   UNK     1      -9.016  15.834  67.170  1.00  0.00    -0.214 C  
HETATM    6  O   UNK     1      -9.500  15.556  68.255  1.00  0.00    -0.196 OA 
HETATM    7  O   UNK     1      -9.713  16.432  66.167  1.00  0.00    -0.290 OA 
ENDROOT
BRANCH   2   8
HETATM    8  C   UNK     1      -6.628  15.612  67.936  1.00  0.00    -0.153 C  
BRANCH   8   9
HETATM    9  S   UNK     1      -5.594  17.123  67.843  1.00  0.00    -0.121 SA 
BRANCH   9  10
HETATM   10  C   UNK     1      -6.903  18.373  68.125  1.00  0.00    -0.228 C  
HETATM   11  C   UNK     1      -6.431  19.514  69.007  1.00  0.00    -0.307 C  
HETATM   12  O   UNK     1      -7.141  20.471  69.290  1.00  0.00     0.064 OA 
HETATM   13  O   UNK     1      -5.164  19.405  69.468  1.00  0.00    -0.180 OA 
ENDBRANCH   9  10
ENDBRANCH   8   9
ENDBRANCH   2   8
TORSDOF 3
ENDMDL
