MODEL        1
REMARK 921   NORMALIZED FREE ENERGY PREDICTED BY IDOCK:   -7.63 KCAL/MOL
REMARK 922        TOTAL FREE ENERGY PREDICTED BY IDOCK:   -7.26 KCAL/MOL
REMARK 923 INTER-LIGAND FREE ENERGY PREDICTED BY IDOCK:   -8.08 KCAL/MOL
REMARK 924 INTRA-LIGAND FREE ENERGY PREDICTED BY IDOCK:    0.82 KCAL/MOL
REMARK 927      BINDING AFFINITY PREDICTED BY RF-SCORE:    0.00 PKD
ROOT
HETATM    1  C   UNL     1     -10.188  13.944  64.836  1.00  0.00    -0.378 C  
HETATM    2  C   UNL     1     -11.716  13.794  64.733  1.00  0.00    -0.381 C  
HETATM    3  C   UNL     1     -12.410  14.082  66.100  1.00  0.00    -0.491 C  
HETATM    4  N   UNL     1     -12.218  14.702  63.651  1.00  0.00    -1.049 NA 
HETATM    5  C   UNL     1     -12.178  12.375  64.272  1.00  0.00    -0.452 C  
HETATM    6  H2  UNL     1     -10.994  16.274  64.034  1.00  0.00     0.000 HD 
HETATM    7  H   UNL     1     -13.210  14.533  63.484  1.00  0.00     0.000 HD 
HETATM    8  O   UNL     1     -13.366  12.086  64.147  1.00  0.00    -0.725 OA 
HETATM    9  O   UNL     1     -11.223  11.468  63.976  1.00  0.00    -0.369 OA 
HETATM   10  N   UNL     1     -11.986  16.106  63.868  1.00  0.00    -1.332 NA 
HETATM   11  H1  UNL     1     -12.328  16.724  63.131  1.00  0.00     0.000 HD 
ENDROOT
BRANCH   3  12
HETATM   12  C   UNL     1     -12.008  13.166  67.242  1.00  0.00    -0.389 A  
HETATM   13  C   UNL     1     -11.764  11.800  67.015  1.00  0.00    -0.247 A  
HETATM   14  C   UNL     1     -11.435  10.973  68.085  1.00  0.00    -0.302 A  
HETATM   15  C   UNL     1     -11.331  11.491  69.373  1.00  0.00    -0.289 A  
HETATM   16  O   UNL     1     -11.213   9.633  67.922  1.00  0.00    -0.519 OA 
HETATM   17  H   UNL     1     -10.988   9.069  68.653  1.00  0.00     0.000 HD 
HETATM   18  C   UNL     1     -11.550  12.838  69.613  1.00  0.00    -0.322 A  
HETATM   19  O   UNL     1     -11.012  10.671  70.416  1.00  0.00    -0.428 OA 
HETATM   20  C   UNL     1     -11.887  13.676  68.548  1.00  0.00    -0.406 A  
HETATM   21  H   UNL     1     -10.941  11.026  71.295  1.00  0.00     0.000 HD 
ENDBRANCH   3  12
TORSDOF 1
ENDMDL
MODEL        2
REMARK 921   NORMALIZED FREE ENERGY PREDICTED BY IDOCK:   -7.51 KCAL/MOL
REMARK 922        TOTAL FREE ENERGY PREDICTED BY IDOCK:   -7.14 KCAL/MOL
REMARK 923 INTER-LIGAND FREE ENERGY PREDICTED BY IDOCK:   -8.11 KCAL/MOL
REMARK 924 INTRA-LIGAND FREE ENERGY PREDICTED BY IDOCK:    0.97 KCAL/MOL
REMARK 927      BINDING AFFINITY PREDICTED BY RF-SCORE:    0.00 PKD
ROOT
HETATM    1  C   UNL     1     -10.185  13.913  64.771  1.00  0.00    -0.353 C  
HETATM    2  C   UNL     1     -11.715  13.774  64.672  1.00  0.00    -0.395 C  
HETATM    3  C   UNL     1     -12.403  14.055  66.044  1.00  0.00    -0.504 C  
HETATM    4  N   UNL     1     -12.214  14.694  63.599  1.00  0.00    -1.049 NA 
HETATM    5  C   UNL     1     -12.188  12.362  64.201  1.00  0.00    -0.468 C  
HETATM    6  H2  UNL     1     -10.978  16.255  63.992  1.00  0.00     0.000 HD 
HETATM    7  H   UNL     1     -13.208  14.534  63.434  1.00  0.00     0.000 HD 
HETATM    8  O   UNL     1     -13.378  12.082  64.077  1.00  0.00    -0.703 OA 
HETATM    9  O   UNL     1     -11.240  11.451  63.894  1.00  0.00    -0.386 OA 
HETATM   10  N   UNL     1     -11.972  16.094  63.827  1.00  0.00    -1.338 NA 
HETATM   11  H1  UNL     1     -12.312  16.721  63.097  1.00  0.00     0.000 HD 
ENDROOT
BRANCH   3  12
HETATM   12  C   UNL     1     -12.002  13.127  67.177  1.00  0.00    -0.397 A  
HETATM   13  C   UNL     1     -12.146  13.527  68.517  1.00  0.00    -0.303 A  
HETATM   14  C   UNL     1     -11.735  12.674  69.537  1.00  0.00    -0.308 A  
HETATM   15  C   UNL     1     -11.199  11.424  69.240  1.00  0.00    -0.277 A  
HETATM   16  O   UNL     1     -11.829  13.026  70.856  1.00  0.00    -0.450 OA 
HETATM   17  H   UNL     1     -11.548  12.443  71.552  1.00  0.00     0.000 HD 
HETATM   18  C   UNL     1     -11.067  11.005  67.927  1.00  0.00    -0.347 A  
HETATM   19  O   UNL     1     -10.795  10.597  70.247  1.00  0.00    -0.437 OA 
HETATM   20  C   UNL     1     -11.470  11.855  66.895  1.00  0.00    -0.390 A  
HETATM   21  H   UNL     1     -10.429   9.744  70.045  1.00  0.00     0.000 HD 
ENDBRANCH   3  12
TORSDOF 1
ENDMDL
MODEL        3
REMARK 921   NORMALIZED FREE ENERGY PREDICTED BY IDOCK:   -7.14 KCAL/MOL
REMARK 922        TOTAL FREE ENERGY PREDICTED BY IDOCK:   -6.74 KCAL/MOL
REMARK 923 INTER-LIGAND FREE ENERGY PREDICTED BY IDOCK:   -6.83 KCAL/MOL
REMARK 924 INTRA-LIGAND FREE ENERGY PREDICTED BY IDOCK:    0.10 KCAL/MOL
REMARK 927      BINDING AFFINITY PREDICTED BY RF-SCORE:    0.00 PKD
ROOT
HETATM    1  C   UNL     1      -9.796  10.262  65.541  1.00  0.00    -0.347 C  
HETATM    2  C   UNL     1     -10.043  10.734  66.985  1.00  0.00    -0.208 C  
HETATM    3  C   UNL     1     -11.381  11.528  67.104  1.00  0.00    -0.354 C  
HETATM    4  N   UNL     1     -10.020   9.542  67.893  1.00  0.00    -0.164 NA 
HETATM    5  C   UNL     1      -8.913  11.653  67.548  1.00  0.00    -0.165 C  
HETATM    6  H2  UNL     1     -10.989   8.252  66.661  1.00  0.00     0.000 HD 
HETATM    7  H   UNL     1     -10.064   9.842  68.866  1.00  0.00     0.000 HD 
HETATM    8  O   UNL     1      -8.960  12.122  68.682  1.00  0.00    -0.122 OA 
HETATM    9  O   UNL     1      -7.846  11.895  66.756  1.00  0.00    -0.146 OA 
HETATM   10  N   UNL     1     -11.033   8.552  67.635  1.00  0.00    -0.481 NA 
HETATM   11  H1  UNL     1     -11.017   7.740  68.253  1.00  0.00     0.000 HD 
ENDROOT
BRANCH   3  12
HETATM   12  C   UNL     1     -11.469  12.790  66.264  1.00  0.00    -0.405 A  
HETATM   13  C   UNL     1     -12.066  12.765  64.992  1.00  0.00    -0.491 A  
HETATM   14  C   UNL     1     -12.099  13.926  64.225  1.00  0.00    -0.440 A  
HETATM   15  C   UNL     1     -11.560  15.112  64.714  1.00  0.00    -0.364 A  
HETATM   16  O   UNL     1     -12.645  13.949  62.970  1.00  0.00    -1.030 OA 
HETATM   17  H   UNL     1     -12.667  14.742  62.447  1.00  0.00     0.000 HD 
HETATM   18  C   UNL     1     -10.983  15.160  65.973  1.00  0.00    -0.332 A  
HETATM   19  O   UNL     1     -11.592  16.244  63.953  1.00  0.00    -1.489 OA 
HETATM   20  C   UNL     1     -10.939  14.000  66.749  1.00  0.00    -0.298 A  
HETATM   21  H   UNL     1     -11.224  17.053  64.288  1.00  0.00     0.000 HD 
ENDBRANCH   3  12
TORSDOF 1
ENDMDL
MODEL        4
REMARK 921   NORMALIZED FREE ENERGY PREDICTED BY IDOCK:   -7.01 KCAL/MOL
REMARK 922        TOTAL FREE ENERGY PREDICTED BY IDOCK:   -6.60 KCAL/MOL
REMARK 923 INTER-LIGAND FREE ENERGY PREDICTED BY IDOCK:   -6.68 KCAL/MOL
REMARK 924 INTRA-LIGAND FREE ENERGY PREDICTED BY IDOCK:    0.08 KCAL/MOL
REMARK 927      BINDING AFFINITY PREDICTED BY RF-SCORE:    0.00 PKD
ROOT
HETATM    1  C   UNL     1     -10.608  10.518  66.172  1.00  0.00    -0.182 C  
HETATM    2  C   UNL     1     -10.235  11.277  67.458  1.00  0.00    -0.189 C  
HETATM    3  C   UNL     1     -11.234  12.440  67.744  1.00  0.00    -0.327 C  
HETATM    4  N   UNL     1     -10.176  10.301  68.594  1.00  0.00    -0.171 NA 
HETATM    5  C   UNL     1      -8.803  11.899  67.427  1.00  0.00    -0.171 C  
HETATM    6  H2  UNL     1     -11.772   9.170  68.055  1.00  0.00     0.000 HD 
HETATM    7  H   UNL     1      -9.816  10.759  69.431  1.00  0.00     0.000 HD 
HETATM    8  O   UNL     1      -8.353  12.544  68.371  1.00  0.00    -0.167 OA 
HETATM    9  O   UNL     1      -8.044  11.678  66.332  1.00  0.00    -0.130 OA 
HETATM   10  N   UNL     1     -11.412   9.628  68.892  1.00  0.00    -0.456 NA 
HETATM   11  H1  UNL     1     -11.372   8.963  69.666  1.00  0.00     0.000 HD 
ENDROOT
BRANCH   3  12
HETATM   12  C   UNL     1     -11.313  13.512  66.671  1.00  0.00    -0.344 A  
HETATM   13  C   UNL     1     -11.962  13.259  65.451  1.00  0.00    -0.432 A  
HETATM   14  C   UNL     1     -11.986  14.245  64.467  1.00  0.00    -0.462 A  
HETATM   15  C   UNL     1     -11.388  15.481  64.691  1.00  0.00    -0.357 A  
HETATM   16  O   UNL     1     -12.582  14.039  63.253  1.00  0.00    -1.073 OA 
HETATM   17  H   UNL     1     -12.598  14.712  62.582  1.00  0.00     0.000 HD 
HETATM   18  C   UNL     1     -10.760  15.755  65.895  1.00  0.00    -0.320 A  
HETATM   19  O   UNL     1     -11.414  16.439  63.720  1.00  0.00    -1.590 OA 
HETATM   20  C   UNL     1     -10.724  14.772  66.886  1.00  0.00    -0.308 A  
HETATM   21  H   UNL     1     -11.005  17.283  63.873  1.00  0.00     0.000 HD 
ENDBRANCH   3  12
TORSDOF 1
ENDMDL
MODEL        5
REMARK 921   NORMALIZED FREE ENERGY PREDICTED BY IDOCK:   -6.98 KCAL/MOL
REMARK 922        TOTAL FREE ENERGY PREDICTED BY IDOCK:   -6.57 KCAL/MOL
REMARK 923 INTER-LIGAND FREE ENERGY PREDICTED BY IDOCK:   -6.59 KCAL/MOL
REMARK 924 INTRA-LIGAND FREE ENERGY PREDICTED BY IDOCK:    0.02 KCAL/MOL
REMARK 927      BINDING AFFINITY PREDICTED BY RF-SCORE:    0.00 PKD
ROOT
HETATM    1  C   UNL     1      -9.252  13.975  68.480  1.00  0.00    -0.170 C  
HETATM    2  C   UNL     1     -10.291  15.090  68.265  1.00  0.00    -0.236 C  
HETATM    3  C   UNL     1     -11.677  14.504  67.851  1.00  0.00    -0.381 C  
HETATM    4  N   UNL     1     -10.385  15.910  69.516  1.00  0.00    -0.257 NA 
HETATM    5  C   UNL     1      -9.884  16.126  67.170  1.00  0.00    -0.241 C  
HETATM    6  H2  UNL     1     -10.230  14.385  70.846  1.00  0.00     0.000 HD 
HETATM    7  H   UNL     1     -10.979  16.724  69.358  1.00  0.00     0.000 HD 
HETATM    8  O   UNL     1     -10.606  17.073  66.870  1.00  0.00    -0.295 OA 
HETATM    9  O   UNL     1      -8.682  15.972  66.575  1.00  0.00    -0.242 OA 
HETATM   10  N   UNL     1     -10.824  15.199  70.688  1.00  0.00    -0.509 NA 
HETATM   11  H1  UNL     1     -10.887  15.758  71.539  1.00  0.00     0.000 HD 
ENDROOT
BRANCH   3  12
HETATM   12  C   UNL     1     -11.690  13.709  66.557  1.00  0.00    -0.414 A  
HETATM   13  C   UNL     1     -12.088  14.308  65.350  1.00  0.00    -0.396 A  
HETATM   14  C   UNL     1     -12.129  13.548  64.185  1.00  0.00    -0.435 A  
HETATM   15  C   UNL     1     -11.764  12.205  64.205  1.00  0.00    -0.396 A  
HETATM   16  O   UNL     1     -12.535  14.077  62.990  1.00  0.00    -1.101 OA 
HETATM   17  H   UNL     1     -12.563  13.557  62.195  1.00  0.00     0.000 HD 
HETATM   18  C   UNL     1     -11.351  11.601  65.381  1.00  0.00    -0.218 A  
HETATM   19  O   UNL     1     -11.812  11.466  63.058  1.00  0.00    -0.903 OA 
HETATM   20  C   UNL     1     -11.312  12.354  66.557  1.00  0.00    -0.392 A  
HETATM   21  H   UNL     1     -11.562  10.550  63.072  1.00  0.00     0.000 HD 
ENDBRANCH   3  12
TORSDOF 1
ENDMDL
MODEL        6
REMARK 921   NORMALIZED FREE ENERGY PREDICTED BY IDOCK:   -6.89 KCAL/MOL
REMARK 922        TOTAL FREE ENERGY PREDICTED BY IDOCK:   -6.48 KCAL/MOL
REMARK 923 INTER-LIGAND FREE ENERGY PREDICTED BY IDOCK:   -6.63 KCAL/MOL
REMARK 924 INTRA-LIGAND FREE ENERGY PREDICTED BY IDOCK:    0.15 KCAL/MOL
REMARK 927      BINDING AFFINITY PREDICTED BY RF-SCORE:    0.00 PKD
ROOT
HETATM    1  C   UNL     1      -9.477  13.778  69.061  1.00  0.00     0.202 C  
HETATM    2  C   UNL     1     -10.012  12.474  68.442  1.00  0.00    -0.212 C  
HETATM    3  C   UNL     1      -9.653  12.374  66.927  1.00  0.00    -0.219 C  
HETATM    4  N   UNL     1      -9.470  11.313  69.221  1.00  0.00    -0.402 NA 
HETATM    5  C   UNL     1     -11.560  12.311  68.560  1.00  0.00    -0.310 C  
HETATM    6  H2  UNL     1      -7.604  12.049  69.530  1.00  0.00     0.000 HD 
HETATM    7  H   UNL     1      -9.902  10.446  68.903  1.00  0.00     0.000 HD 
HETATM    8  O   UNL     1     -12.147  11.330  68.109  1.00  0.00    -0.635 OA 
HETATM    9  O   UNL     1     -12.247  13.274  69.211  1.00  0.00    -0.268 OA 
HETATM   10  N   UNL     1      -8.037  11.182  69.213  1.00  0.00    -0.371 NA 
HETATM   11  H1  UNL     1      -7.668  10.391  69.743  1.00  0.00     0.000 HD 
ENDROOT
BRANCH   3  12
HETATM   12  C   UNL     1     -10.215  13.478  66.048  1.00  0.00    -0.308 A  
HETATM   13  C   UNL     1     -11.092  13.177  64.992  1.00  0.00    -0.322 A  
HETATM   14  C   UNL     1     -11.562  14.202  64.176  1.00  0.00    -0.230 A  
HETATM   15  C   UNL     1     -11.184  15.521  64.409  1.00  0.00    -0.219 A  
HETATM   16  O   UNL     1     -12.396  13.960  63.119  1.00  0.00    -1.122 OA 
HETATM   17  H   UNL     1     -12.718  14.660  62.562  1.00  0.00     0.000 HD 
HETATM   18  C   UNL     1     -10.336  15.839  65.457  1.00  0.00    -0.430 A  
HETATM   19  O   UNL     1     -11.647  16.518  63.601  1.00  0.00    -1.468 OA 
HETATM   20  C   UNL     1      -9.853  14.817  66.278  1.00  0.00    -0.316 A  
HETATM   21  H   UNL     1     -11.389  17.419  63.761  1.00  0.00     0.000 HD 
ENDBRANCH   3  12
TORSDOF 1
ENDMDL
MODEL        7
REMARK 921   NORMALIZED FREE ENERGY PREDICTED BY IDOCK:   -6.88 KCAL/MOL
REMARK 922        TOTAL FREE ENERGY PREDICTED BY IDOCK:   -6.47 KCAL/MOL
REMARK 923 INTER-LIGAND FREE ENERGY PREDICTED BY IDOCK:   -6.74 KCAL/MOL
REMARK 924 INTRA-LIGAND FREE ENERGY PREDICTED BY IDOCK:    0.27 KCAL/MOL
REMARK 927      BINDING AFFINITY PREDICTED BY RF-SCORE:    0.00 PKD
ROOT
HETATM    1  C   UNL     1      -9.609  16.705  68.183  1.00  0.00    -0.228 C  
HETATM    2  C   UNL     1      -9.681  15.269  68.734  1.00  0.00    -0.212 C  
HETATM    3  C   UNL     1      -9.314  14.220  67.639  1.00  0.00    -0.201 C  
HETATM    4  N   UNL     1      -8.782  15.166  69.929  1.00  0.00    -0.386 NA 
HETATM    5  C   UNL     1     -11.087  14.879  69.290  1.00  0.00    -0.271 C  
HETATM    6  H2  UNL     1      -7.266  16.315  69.221  1.00  0.00     0.000 HD 
HETATM    7  H   UNL     1      -8.902  14.259  70.380  1.00  0.00     0.000 HD 
HETATM    8  O   UNL     1     -11.315  13.766  69.759  1.00  0.00    -0.223 OA 
HETATM    9  O   UNL     1     -12.053  15.822  69.276  1.00  0.00    -0.350 OA 
HETATM   10  N   UNL     1      -7.387  15.408  69.672  1.00  0.00    -0.202 NA 
HETATM   11  H1  UNL     1      -6.775  15.338  70.486  1.00  0.00     0.000 HD 
ENDROOT
BRANCH   3  12
HETATM   12  C   UNL     1     -10.213  14.211  66.415  1.00  0.00    -0.292 A  
HETATM   13  C   UNL     1     -10.461  15.394  65.698  1.00  0.00    -0.391 A  
HETATM   14  C   UNL     1     -11.321  15.367  64.604  1.00  0.00    -0.355 A  
HETATM   15  C   UNL     1     -11.922  14.176  64.206  1.00  0.00    -0.435 A  
HETATM   16  O   UNL     1     -11.616  16.495  63.889  1.00  0.00    -1.598 OA 
HETATM   17  H   UNL     1     -12.203  16.477  63.141  1.00  0.00     0.000 HD 
HETATM   18  C   UNL     1     -11.675  12.997  64.890  1.00  0.00    -0.381 A  
HETATM   19  O   UNL     1     -12.767  14.161  63.135  1.00  0.00    -0.922 OA 
HETATM   20  C   UNL     1     -10.819  13.014  65.993  1.00  0.00    -0.290 A  
HETATM   21  H   UNL     1     -13.178  13.348  62.864  1.00  0.00     0.000 HD 
ENDBRANCH   3  12
TORSDOF 1
ENDMDL
MODEL        8
REMARK 921   NORMALIZED FREE ENERGY PREDICTED BY IDOCK:   -6.88 KCAL/MOL
REMARK 922        TOTAL FREE ENERGY PREDICTED BY IDOCK:   -6.46 KCAL/MOL
REMARK 923 INTER-LIGAND FREE ENERGY PREDICTED BY IDOCK:   -6.63 KCAL/MOL
REMARK 924 INTRA-LIGAND FREE ENERGY PREDICTED BY IDOCK:    0.17 KCAL/MOL
REMARK 927      BINDING AFFINITY PREDICTED BY RF-SCORE:    0.00 PKD
ROOT
HETATM    1  C   UNL     1     -11.544  12.286  65.887  1.00  0.00    -0.450 C  
HETATM    2  C   UNL     1     -11.116  13.529  65.086  1.00  0.00    -0.316 C  
HETATM    3  C   UNL     1     -10.006  14.332  65.833  1.00  0.00    -0.340 C  
HETATM    4  N   UNL     1     -10.669  13.094  63.723  1.00  0.00    -0.504 NA 
HETATM    5  C   UNL     1     -12.285  14.522  64.795  1.00  0.00    -0.431 C  
HETATM    6  H2  UNL     1      -9.707  11.398  64.289  1.00  0.00     0.000 HD 
HETATM    7  H   UNL     1     -10.492  13.909  63.136  1.00  0.00     0.000 HD 
HETATM    8  O   UNL     1     -12.110  15.568  64.174  1.00  0.00    -0.564 OA 
HETATM    9  O   UNL     1     -13.521  14.182  65.219  1.00  0.00    -0.606 OA 
HETATM   10  N   UNL     1      -9.530  12.213  63.701  1.00  0.00    -0.615 NA 
HETATM   11  H1  UNL     1      -9.226  11.917  62.773  1.00  0.00     0.000 HD 
ENDROOT
BRANCH   3  12
HETATM   12  C   UNL     1     -10.394  14.868  67.199  1.00  0.00    -0.260 A  
HETATM   13  C   UNL     1     -10.754  13.991  68.237  1.00  0.00    -0.262 A  
HETATM   14  C   UNL     1     -11.145  14.508  69.469  1.00  0.00    -0.253 A  
HETATM   15  C   UNL     1     -11.165  15.883  69.685  1.00  0.00    -0.331 A  
HETATM   16  O   UNL     1     -11.530  13.699  70.503  1.00  0.00    -0.511 OA 
HETATM   17  H   UNL     1     -11.796  14.052  71.345  1.00  0.00     0.000 HD 
HETATM   18  C   UNL     1     -10.796  16.761  68.679  1.00  0.00    -0.336 A  
HETATM   19  O   UNL     1     -11.554  16.380  70.895  1.00  0.00    -0.571 OA 
HETATM   20  C   UNL     1     -10.408  16.254  67.437  1.00  0.00    -0.285 A  
HETATM   21  H   UNL     1     -11.567  17.318  71.041  1.00  0.00     0.000 HD 
ENDBRANCH   3  12
TORSDOF 1
ENDMDL
MODEL        9
REMARK 921   NORMALIZED FREE ENERGY PREDICTED BY IDOCK:   -6.81 KCAL/MOL
REMARK 922        TOTAL FREE ENERGY PREDICTED BY IDOCK:   -6.39 KCAL/MOL
REMARK 923 INTER-LIGAND FREE ENERGY PREDICTED BY IDOCK:   -6.52 KCAL/MOL
REMARK 924 INTRA-LIGAND FREE ENERGY PREDICTED BY IDOCK:    0.13 KCAL/MOL
REMARK 927      BINDING AFFINITY PREDICTED BY RF-SCORE:    0.00 PKD
ROOT
HETATM    1  C   UNL     1     -10.879  10.843  64.851  1.00  0.00    -0.150 C  
HETATM    2  C   UNL     1     -10.903  12.265  64.263  1.00  0.00    -0.348 C  
HETATM    3  C   UNL     1     -10.194  13.284  65.208  1.00  0.00    -0.303 C  
HETATM    4  N   UNL     1     -10.274  12.234  62.903  1.00  0.00    -0.425 NA 
HETATM    5  C   UNL     1     -12.342  12.811  63.996  1.00  0.00    -0.411 C  
HETATM    6  H2  UNL     1      -8.783  10.926  63.329  1.00  0.00     0.000 HD 
HETATM    7  H   UNL     1     -10.384  13.139  62.445  1.00  0.00     0.000 HD 
HETATM    8  O   UNL     1     -12.537  13.933  63.535  1.00  0.00    -0.842 OA 
HETATM    9  O   UNL     1     -13.384  11.992  64.255  1.00  0.00    -0.709 OA 
HETATM   10  N   UNL     1      -8.893  11.831  62.872  1.00  0.00    -0.629 NA 
HETATM   11  H1  UNL     1      -8.465  11.810  61.946  1.00  0.00     0.000 HD 
ENDROOT
BRANCH   3  12
HETATM   12  C   UNL     1     -10.804  13.427  66.590  1.00  0.00    -0.285 A  
HETATM   13  C   UNL     1     -11.354  14.651  67.009  1.00  0.00    -0.362 A  
HETATM   14  C   UNL     1     -11.872  14.769  68.295  1.00  0.00    -0.284 A  
HETATM   15  C   UNL     1     -11.864  13.680  69.163  1.00  0.00    -0.348 A  
HETATM   16  O   UNL     1     -12.394  15.945  68.760  1.00  0.00    -0.481 OA 
HETATM   17  H   UNL     1     -12.748  16.025  69.638  1.00  0.00     0.000 HD 
HETATM   18  C   UNL     1     -11.343  12.461  68.762  1.00  0.00    -0.339 A  
HETATM   19  O   UNL     1     -12.370  13.807  70.423  1.00  0.00    -0.333 OA 
HETATM   20  C   UNL     1     -10.815  12.334  67.475  1.00  0.00    -0.271 A  
HETATM   21  H   UNL     1     -12.364  13.063  71.015  1.00  0.00     0.000 HD 
ENDBRANCH   3  12
TORSDOF 1
ENDMDL
MODEL       10
REMARK 921   NORMALIZED FREE ENERGY PREDICTED BY IDOCK:   -6.79 KCAL/MOL
REMARK 922        TOTAL FREE ENERGY PREDICTED BY IDOCK:   -6.37 KCAL/MOL
REMARK 923 INTER-LIGAND FREE ENERGY PREDICTED BY IDOCK:   -6.54 KCAL/MOL
REMARK 924 INTRA-LIGAND FREE ENERGY PREDICTED BY IDOCK:    0.17 KCAL/MOL
REMARK 927      BINDING AFFINITY PREDICTED BY RF-SCORE:    0.00 PKD
ROOT
HETATM    1  C   UNL     1     -11.330  12.286  65.852  1.00  0.00    -0.406 C  
HETATM    2  C   UNL     1     -11.083  13.504  64.944  1.00  0.00    -0.346 C  
HETATM    3  C   UNL     1     -10.014  14.462  65.555  1.00  0.00    -0.359 C  
HETATM    4  N   UNL     1     -10.683  13.018  63.584  1.00  0.00    -0.500 NA 
HETATM    5  C   UNL     1     -12.363  14.356  64.674  1.00  0.00    -0.418 C  
HETATM    6  H2  UNL     1      -9.520  11.468  64.187  1.00  0.00     0.000 HD 
HETATM    7  H   UNL     1     -10.629  13.802  62.934  1.00  0.00     0.000 HD 
HETATM    8  O   UNL     1     -12.337  15.367  63.975  1.00  0.00    -0.661 OA 
HETATM    9  O   UNL     1     -13.528  13.929  65.207  1.00  0.00    -0.612 OA 
HETATM   10  N   UNL     1      -9.466  12.252  63.537  1.00  0.00    -0.660 NA 
HETATM   11  H1  UNL     1      -9.194  11.921  62.610  1.00  0.00     0.000 HD 
ENDROOT
BRANCH   3  12
HETATM   12  C   UNL     1     -10.365  15.054  66.909  1.00  0.00    -0.266 A  
HETATM   13  C   UNL     1     -10.438  16.446  67.086  1.00  0.00    -0.297 A  
HETATM   14  C   UNL     1     -10.722  16.966  68.346  1.00  0.00    -0.368 A  
HETATM   15  C   UNL     1     -10.950  16.117  69.425  1.00  0.00    -0.333 A  
HETATM   16  O   UNL     1     -10.779  18.313  68.576  1.00  0.00    -0.318 OA 
HETATM   17  H   UNL     1     -10.973  18.667  69.437  1.00  0.00     0.000 HD 
HETATM   18  C   UNL     1     -10.901  14.741  69.265  1.00  0.00    -0.275 A  
HETATM   19  O   UNL     1     -11.224  16.635  70.657  1.00  0.00    -0.483 OA 
HETATM   20  C   UNL     1     -10.610  14.210  68.007  1.00  0.00    -0.241 A  
HETATM   21  H   UNL     1     -11.379  16.055  71.393  1.00  0.00     0.000 HD 
ENDBRANCH   3  12
TORSDOF 1
ENDMDL
MODEL       11
REMARK 921   NORMALIZED FREE ENERGY PREDICTED BY IDOCK:   -6.78 KCAL/MOL
REMARK 922        TOTAL FREE ENERGY PREDICTED BY IDOCK:   -6.36 KCAL/MOL
REMARK 923 INTER-LIGAND FREE ENERGY PREDICTED BY IDOCK:   -6.44 KCAL/MOL
REMARK 924 INTRA-LIGAND FREE ENERGY PREDICTED BY IDOCK:    0.08 KCAL/MOL
REMARK 927      BINDING AFFINITY PREDICTED BY RF-SCORE:    0.00 PKD
ROOT
HETATM    1  C   UNL     1     -10.115  16.798  66.527  1.00  0.00    -0.322 C  
HETATM    2  C   UNL     1     -10.512  15.404  66.009  1.00  0.00    -0.321 C  
HETATM    3  C   UNL     1     -11.874  14.939  66.612  1.00  0.00    -0.167 C  
HETATM    4  N   UNL     1     -10.549  15.439  64.511  1.00  0.00    -0.605 NA 
HETATM    5  C   UNL     1      -9.464  14.292  66.330  1.00  0.00    -0.275 C  
HETATM    6  H2  UNL     1     -11.363  17.287  64.308  1.00  0.00     0.000 HD 
HETATM    7  H   UNL     1     -10.694  14.499  64.142  1.00  0.00     0.000 HD 
HETATM    8  O   UNL     1      -9.632  13.122  65.993  1.00  0.00    -0.244 OA 
HETATM    9  O   UNL     1      -8.332  14.660  66.967  1.00  0.00    -0.209 OA 
HETATM   10  N   UNL     1     -11.508  16.347  63.939  1.00  0.00    -1.618 NA 
HETATM   11  H1  UNL     1     -11.533  16.371  62.919  1.00  0.00     0.000 HD 
ENDROOT
BRANCH   3  12
HETATM   12  C   UNL     1     -11.910  14.814  68.125  1.00  0.00    -0.318 A  
HETATM   13  C   UNL     1     -12.030  13.555  68.738  1.00  0.00    -0.374 A  
HETATM   14  C   UNL     1     -12.100  13.470  70.126  1.00  0.00    -0.354 A  
HETATM   15  C   UNL     1     -12.037  14.619  70.908  1.00  0.00    -0.328 A  
HETATM   16  O   UNL     1     -12.244  12.271  70.770  1.00  0.00    -0.386 OA 
HETATM   17  H   UNL     1     -12.292  12.213  71.717  1.00  0.00     0.000 HD 
HETATM   18  C   UNL     1     -11.900  15.867  70.323  1.00  0.00    -0.343 A  
HETATM   19  O   UNL     1     -12.111  14.525  72.268  1.00  0.00    -0.264 OA 
HETATM   20  C   UNL     1     -11.835  15.964  68.931  1.00  0.00    -0.314 A  
HETATM   21  H   UNL     1     -12.068  15.310  72.802  1.00  0.00     0.000 HD 
ENDBRANCH   3  12
TORSDOF 1
ENDMDL
MODEL       12
REMARK 921   NORMALIZED FREE ENERGY PREDICTED BY IDOCK:   -6.75 KCAL/MOL
REMARK 922        TOTAL FREE ENERGY PREDICTED BY IDOCK:   -6.33 KCAL/MOL
REMARK 923 INTER-LIGAND FREE ENERGY PREDICTED BY IDOCK:   -6.56 KCAL/MOL
REMARK 924 INTRA-LIGAND FREE ENERGY PREDICTED BY IDOCK:    0.24 KCAL/MOL
REMARK 927      BINDING AFFINITY PREDICTED BY RF-SCORE:    0.00 PKD
ROOT
HETATM    1  C   UNL     1     -10.856  11.285  65.222  1.00  0.00    -0.261 C  
HETATM    2  C   UNL     1     -10.857  12.588  64.403  1.00  0.00    -0.342 C  
HETATM    3  C   UNL     1     -10.048  13.712  65.121  1.00  0.00    -0.298 C  
HETATM    4  N   UNL     1     -10.315  12.298  63.035  1.00  0.00    -0.509 NA 
HETATM    5  C   UNL     1     -12.285  13.155  64.124  1.00  0.00    -0.398 C  
HETATM    6  H2  UNL     1      -8.856  11.003  63.597  1.00  0.00     0.000 HD 
HETATM    7  H   UNL     1     -10.415  13.118  62.438  1.00  0.00     0.000 HD 
HETATM    8  O   UNL     1     -12.461  14.193  63.491  1.00  0.00    -0.817 OA 
HETATM    9  O   UNL     1     -13.342  12.445  64.575  1.00  0.00    -0.800 OA 
HETATM   10  N   UNL     1      -8.956  11.824  62.999  1.00  0.00    -0.654 NA 
HETATM   11  H1  UNL     1      -8.588  11.626  62.068  1.00  0.00     0.000 HD 
ENDROOT
BRANCH   3  12
HETATM   12  C   UNL     1     -10.566  14.116  66.490  1.00  0.00    -0.282 A  
HETATM   13  C   UNL     1     -10.734  13.158  67.505  1.00  0.00    -0.248 A  
HETATM   14  C   UNL     1     -11.247  13.546  68.739  1.00  0.00    -0.274 A  
HETATM   15  C   UNL     1     -11.580  14.876  68.979  1.00  0.00    -0.305 A  
HETATM   16  O   UNL     1     -11.454  12.649  69.750  1.00  0.00    -0.445 OA 
HETATM   17  H   UNL     1     -11.805  12.914  70.593  1.00  0.00     0.000 HD 
HETATM   18  C   UNL     1     -11.404  15.838  67.997  1.00  0.00    -0.310 A  
HETATM   19  O   UNL     1     -12.087  15.246  70.191  1.00  0.00    -0.314 OA 
HETATM   20  C   UNL     1     -10.895  15.458  66.753  1.00  0.00    -0.306 A  
HETATM   21  H   UNL     1     -12.313  16.154  70.354  1.00  0.00     0.000 HD 
ENDBRANCH   3  12
TORSDOF 1
ENDMDL
MODEL       13
REMARK 921   NORMALIZED FREE ENERGY PREDICTED BY IDOCK:   -6.74 KCAL/MOL
REMARK 922        TOTAL FREE ENERGY PREDICTED BY IDOCK:   -6.32 KCAL/MOL
REMARK 923 INTER-LIGAND FREE ENERGY PREDICTED BY IDOCK:   -6.48 KCAL/MOL
REMARK 924 INTRA-LIGAND FREE ENERGY PREDICTED BY IDOCK:    0.16 KCAL/MOL
REMARK 927      BINDING AFFINITY PREDICTED BY RF-SCORE:    0.00 PKD
ROOT
HETATM    1  C   UNL     1     -10.336  16.846  66.566  1.00  0.00    -0.299 C  
HETATM    2  C   UNL     1     -10.579  15.444  65.978  1.00  0.00    -0.322 C  
HETATM    3  C   UNL     1     -11.893  14.813  66.534  1.00  0.00    -0.238 C  
HETATM    4  N   UNL     1     -10.598  15.545  64.482  1.00  0.00    -0.655 NA 
HETATM    5  C   UNL     1      -9.425  14.432  66.268  1.00  0.00    -0.271 C  
HETATM    6  H2  UNL     1     -11.597  17.307  64.349  1.00  0.00     0.000 HD 
HETATM    7  H   UNL     1     -10.640  14.614  64.069  1.00  0.00     0.000 HD 
HETATM    8  O   UNL     1      -9.466  13.269  65.875  1.00  0.00    -0.167 OA 
HETATM    9  O   UNL     1      -8.346  14.885  66.941  1.00  0.00    -0.213 OA 
HETATM   10  N   UNL     1     -11.639  16.376  63.935  1.00  0.00    -1.602 NA 
HETATM   11  H1  UNL     1     -11.652  16.445  62.917  1.00  0.00     0.000 HD 
ENDROOT
BRANCH   3  12
HETATM   12  C   UNL     1     -11.936  14.614  68.039  1.00  0.00    -0.292 A  
HETATM   13  C   UNL     1     -11.876  15.715  68.910  1.00  0.00    -0.368 A  
HETATM   14  C   UNL     1     -11.877  15.504  70.286  1.00  0.00    -0.357 A  
HETATM   15  C   UNL     1     -11.954  14.214  70.803  1.00  0.00    -0.306 A  
HETATM   16  O   UNL     1     -11.793  16.540  71.176  1.00  0.00    -0.602 OA 
HETATM   17  H   UNL     1     -11.794  16.395  72.115  1.00  0.00     0.000 HD 
HETATM   18  C   UNL     1     -12.033  13.118  69.960  1.00  0.00    -0.391 A  
HETATM   19  O   UNL     1     -11.950  14.017  72.153  1.00  0.00    -0.054 OA 
HETATM   20  C   UNL     1     -12.026  13.318  68.578  1.00  0.00    -0.340 A  
HETATM   21  H   UNL     1     -12.002  13.137  72.506  1.00  0.00     0.000 HD 
ENDBRANCH   3  12
TORSDOF 1
ENDMDL
MODEL       14
REMARK 921   NORMALIZED FREE ENERGY PREDICTED BY IDOCK:   -6.70 KCAL/MOL
REMARK 922        TOTAL FREE ENERGY PREDICTED BY IDOCK:   -6.27 KCAL/MOL
REMARK 923 INTER-LIGAND FREE ENERGY PREDICTED BY IDOCK:   -6.34 KCAL/MOL
REMARK 924 INTRA-LIGAND FREE ENERGY PREDICTED BY IDOCK:    0.06 KCAL/MOL
REMARK 927      BINDING AFFINITY PREDICTED BY RF-SCORE:    0.00 PKD
ROOT
HETATM    1  C   UNL     1      -8.874  16.528  68.797  1.00  0.00    -0.255 C  
HETATM    2  C   UNL     1      -9.940  17.092  67.842  1.00  0.00    -0.281 C  
HETATM    3  C   UNL     1     -11.362  16.555  68.194  1.00  0.00    -0.150 C  
HETATM    4  N   UNL     1      -9.884  18.589  67.886  1.00  0.00    -0.311 NA 
HETATM    5  C   UNL     1      -9.681  16.754  66.339  1.00  0.00    -0.290 C  
HETATM    6  H2  UNL     1      -9.552  18.784  69.878  1.00  0.00     0.000 HD 
HETATM    7  H   UNL     1     -10.499  18.984  67.175  1.00  0.00     0.000 HD 
HETATM    8  O   UNL     1     -10.443  17.123  65.448  1.00  0.00    -0.633 OA 
HETATM    9  O   UNL     1      -8.561  16.064  66.034  1.00  0.00    -0.322 OA 
HETATM   10  N   UNL     1     -10.168  19.179  69.168  1.00  0.00    -0.541 NA 
HETATM   11  H1  UNL     1     -10.129  20.198  69.198  1.00  0.00     0.000 HD 
ENDROOT
BRANCH   3  12
HETATM   12  C   UNL     1     -11.529  15.048  68.114  1.00  0.00    -0.355 A  
HETATM   13  C   UNL     1     -11.825  14.423  66.890  1.00  0.00    -0.433 A  
HETATM   14  C   UNL     1     -12.013  13.044  66.849  1.00  0.00    -0.352 A  
HETATM   15  C   UNL     1     -11.894  12.280  68.007  1.00  0.00    -0.305 A  
HETATM   16  O   UNL     1     -12.328  12.392  65.689  1.00  0.00    -0.639 OA 
HETATM   17  H   UNL     1     -12.456  11.450  65.661  1.00  0.00     0.000 HD 
HETATM   18  C   UNL     1     -11.586  12.876  69.219  1.00  0.00    -0.368 A  
HETATM   19  O   UNL     1     -12.085  10.930  67.957  1.00  0.00    -0.780 OA 
HETATM   20  C   UNL     1     -11.401  14.260  69.272  1.00  0.00    -0.322 A  
HETATM   21  H   UNL     1     -12.004  10.409  68.748  1.00  0.00     0.000 HD 
ENDBRANCH   3  12
TORSDOF 1
ENDMDL
MODEL       15
REMARK 921   NORMALIZED FREE ENERGY PREDICTED BY IDOCK:   -6.69 KCAL/MOL
REMARK 922        TOTAL FREE ENERGY PREDICTED BY IDOCK:   -6.26 KCAL/MOL
REMARK 923 INTER-LIGAND FREE ENERGY PREDICTED BY IDOCK:   -6.30 KCAL/MOL
REMARK 924 INTRA-LIGAND FREE ENERGY PREDICTED BY IDOCK:    0.04 KCAL/MOL
REMARK 927      BINDING AFFINITY PREDICTED BY RF-SCORE:    0.00 PKD
ROOT
HETATM    1  C   UNL     1     -10.882  10.838  67.181  1.00  0.00    -0.335 C  
HETATM    2  C   UNL     1     -10.190  11.719  68.237  1.00  0.00    -0.205 C  
HETATM    3  C   UNL     1     -10.944  13.070  68.435  1.00  0.00    -0.288 C  
HETATM    4  N   UNL     1     -10.087  10.945  69.517  1.00  0.00    -0.437 NA 
HETATM    5  C   UNL     1      -8.707  12.066  67.892  1.00  0.00    -0.170 C  
HETATM    6  H2  UNL     1     -11.902  10.040  69.426  1.00  0.00     0.000 HD 
HETATM    7  H   UNL     1      -9.529  11.463  70.196  1.00  0.00     0.000 HD 
HETATM    8  O   UNL     1      -8.015  12.766  68.627  1.00  0.00    -0.114 OA 
HETATM    9  O   UNL     1      -8.183  11.539  66.765  1.00  0.00    -0.158 OA 
HETATM   10  N   UNL     1     -11.343  10.558  70.105  1.00  0.00    -0.302 NA 
HETATM   11  H1  UNL     1     -11.273  10.032  70.976  1.00  0.00     0.000 HD 
ENDROOT
BRANCH   3  12
HETATM   12  C   UNL     1     -11.040  13.950  67.201  1.00  0.00    -0.312 A  
HETATM   13  C   UNL     1     -10.241  15.099  67.075  1.00  0.00    -0.262 A  
HETATM   14  C   UNL     1     -10.377  15.912  65.953  1.00  0.00    -0.365 A  
HETATM   15  C   UNL     1     -11.284  15.586  64.950  1.00  0.00    -0.389 A  
HETATM   16  O   UNL     1      -9.641  17.055  65.795  1.00  0.00    -0.525 OA 
HETATM   17  H   UNL     1      -9.734  17.609  65.029  1.00  0.00     0.000 HD 
HETATM   18  C   UNL     1     -12.068  14.447  65.048  1.00  0.00    -0.417 A  
HETATM   19  O   UNL     1     -11.413  16.391  63.856  1.00  0.00    -1.569 OA 
HETATM   20  C   UNL     1     -11.944  13.629  66.172  1.00  0.00    -0.453 A  
HETATM   21  H   UNL     1     -12.033  16.168  63.171  1.00  0.00     0.000 HD 
ENDBRANCH   3  12
TORSDOF 1
ENDMDL
MODEL       16
REMARK 921   NORMALIZED FREE ENERGY PREDICTED BY IDOCK:   -6.65 KCAL/MOL
REMARK 922        TOTAL FREE ENERGY PREDICTED BY IDOCK:   -6.22 KCAL/MOL
REMARK 923 INTER-LIGAND FREE ENERGY PREDICTED BY IDOCK:   -6.33 KCAL/MOL
REMARK 924 INTRA-LIGAND FREE ENERGY PREDICTED BY IDOCK:    0.11 KCAL/MOL
REMARK 927      BINDING AFFINITY PREDICTED BY RF-SCORE:    0.00 PKD
ROOT
HETATM    1  C   UNL     1     -10.460  17.849  67.294  1.00  0.00    -0.373 C  
HETATM    2  C   UNL     1      -9.423  16.876  67.882  1.00  0.00    -0.239 C  
HETATM    3  C   UNL     1      -8.981  15.810  66.831  1.00  0.00    -0.266 C  
HETATM    4  N   UNL     1      -8.258  17.667  68.396  1.00  0.00    -0.281 NA 
HETATM    5  C   UNL     1      -9.929  16.100  69.138  1.00  0.00    -0.251 C  
HETATM    6  H2  UNL     1      -8.193  19.044  66.906  1.00  0.00     0.000 HD 
HETATM    7  H   UNL     1      -7.612  17.056  68.895  1.00  0.00     0.000 HD 
HETATM    8  O   UNL     1      -9.227  15.279  69.723  1.00  0.00    -0.211 OA 
HETATM    9  O   UNL     1     -11.168  16.383  69.596  1.00  0.00    -0.323 OA 
HETATM   10  N   UNL     1      -7.547  18.432  67.405  1.00  0.00    -0.217 NA 
HETATM   11  H1  UNL     1      -6.754  18.971  67.756  1.00  0.00     0.000 HD 
ENDROOT
BRANCH   3  12
HETATM   12  C   UNL     1     -10.090  14.919  66.300  1.00  0.00    -0.298 A  
HETATM   13  C   UNL     1     -10.719  15.207  65.077  1.00  0.00    -0.451 A  
HETATM   14  C   UNL     1     -11.759  14.397  64.631  1.00  0.00    -0.430 A  
HETATM   15  C   UNL     1     -12.169  13.297  65.379  1.00  0.00    -0.456 A  
HETATM   16  O   UNL     1     -12.422  14.650  63.460  1.00  0.00    -1.069 OA 
HETATM   17  H   UNL     1     -13.132  14.097  63.156  1.00  0.00     0.000 HD 
HETATM   18  C   UNL     1     -11.549  12.987  66.578  1.00  0.00    -0.407 A  
HETATM   19  O   UNL     1     -13.193  12.512  64.935  1.00  0.00    -0.787 OA 
HETATM   20  C   UNL     1     -10.508  13.796  67.038  1.00  0.00    -0.274 A  
HETATM   21  H   UNL     1     -13.473  11.761  65.446  1.00  0.00     0.000 HD 
ENDBRANCH   3  12
TORSDOF 1
ENDMDL
MODEL       17
REMARK 921   NORMALIZED FREE ENERGY PREDICTED BY IDOCK:   -6.63 KCAL/MOL
REMARK 922        TOTAL FREE ENERGY PREDICTED BY IDOCK:   -6.20 KCAL/MOL
REMARK 923 INTER-LIGAND FREE ENERGY PREDICTED BY IDOCK:   -6.25 KCAL/MOL
REMARK 924 INTRA-LIGAND FREE ENERGY PREDICTED BY IDOCK:    0.06 KCAL/MOL
REMARK 927      BINDING AFFINITY PREDICTED BY RF-SCORE:    0.00 PKD
ROOT
HETATM    1  C   UNL     1     -11.328  15.005  67.995  1.00  0.00    -0.339 C  
HETATM    2  C   UNL     1     -10.176  14.018  68.257  1.00  0.00    -0.249 C  
HETATM    3  C   UNL     1      -9.350  13.749  66.961  1.00  0.00    -0.250 C  
HETATM    4  N   UNL     1      -9.319  14.560  69.361  1.00  0.00    -0.401 NA 
HETATM    5  C   UNL     1     -10.648  12.632  68.798  1.00  0.00    -0.186 C  
HETATM    6  H2  UNL     1      -9.386  16.514  68.815  1.00  0.00     0.000 HD 
HETATM    7  H   UNL     1      -8.619  13.870  69.633  1.00  0.00     0.000 HD 
HETATM    8  O   UNL     1      -9.854  11.728  69.052  1.00  0.00    -0.065 OA 
HETATM    9  O   UNL     1     -11.968  12.458  69.018  1.00  0.00    -0.296 OA 
HETATM   10  N   UNL     1      -8.686  15.823  69.086  1.00  0.00    -0.239 NA 
HETATM   11  H1  UNL     1      -8.103  16.192  69.838  1.00  0.00     0.000 HD 
ENDROOT
BRANCH   3  12
HETATM   12  C   UNL     1     -10.127  13.139  65.807  1.00  0.00    -0.290 A  
HETATM   13  C   UNL     1     -10.937  13.940  64.985  1.00  0.00    -0.371 A  
HETATM   14  C   UNL     1     -11.670  13.352  63.959  1.00  0.00    -0.416 A  
HETATM   15  C   UNL     1     -11.593  11.981  63.731  1.00  0.00    -0.476 A  
HETATM   16  O   UNL     1     -12.495  14.083  63.147  1.00  0.00    -1.137 OA 
HETATM   17  H   UNL     1     -12.995  13.681  62.446  1.00  0.00     0.000 HD 
HETATM   18  C   UNL     1     -10.785  11.178  64.519  1.00  0.00    -0.368 A  
HETATM   19  O   UNL     1     -12.319  11.412  62.725  1.00  0.00    -0.888 OA 
HETATM   20  C   UNL     1     -10.050  11.757  65.556  1.00  0.00    -0.285 A  
HETATM   21  H   UNL     1     -12.265  10.477  62.570  1.00  0.00     0.000 HD 
ENDBRANCH   3  12
TORSDOF 1
ENDMDL
MODEL       18
REMARK 921   NORMALIZED FREE ENERGY PREDICTED BY IDOCK:   -6.61 KCAL/MOL
REMARK 922        TOTAL FREE ENERGY PREDICTED BY IDOCK:   -6.17 KCAL/MOL
REMARK 923 INTER-LIGAND FREE ENERGY PREDICTED BY IDOCK:   -6.20 KCAL/MOL
REMARK 924 INTRA-LIGAND FREE ENERGY PREDICTED BY IDOCK:    0.02 KCAL/MOL
REMARK 927      BINDING AFFINITY PREDICTED BY RF-SCORE:    0.00 PKD
ROOT
HETATM    1  C   UNL     1     -10.229  12.734  68.932  1.00  0.00    -0.003 C  
HETATM    2  C   UNL     1      -9.777  11.399  68.314  1.00  0.00    -0.202 C  
HETATM    3  C   UNL     1      -9.149  11.608  66.901  1.00  0.00    -0.188 C  
HETATM    4  N   UNL     1      -8.820  10.732  69.256  1.00  0.00    -0.359 NA 
HETATM    5  C   UNL     1     -10.929  10.357  68.155  1.00  0.00    -0.281 C  
HETATM    6  H2  UNL     1      -7.829  12.399  69.853  1.00  0.00     0.000 HD 
HETATM    7  H   UNL     1      -8.598   9.793  68.923  1.00  0.00     0.000 HD 
HETATM    8  O   UNL     1     -10.738   9.244  67.671  1.00  0.00    -0.269 OA 
HETATM    9  O   UNL     1     -12.155  10.703  68.602  1.00  0.00    -0.410 OA 
HETATM   10  N   UNL     1      -7.607  11.461  69.521  1.00  0.00    -0.356 NA 
HETATM   11  H1  UNL     1      -6.956  11.007  70.162  1.00  0.00     0.000 HD 
ENDROOT
BRANCH   3  12
HETATM   12  C   UNL     1     -10.070  12.223  65.862  1.00  0.00    -0.272 A  
HETATM   13  C   UNL     1     -10.700  11.418  64.897  1.00  0.00    -0.350 A  
HETATM   14  C   UNL     1     -11.509  12.010  63.930  1.00  0.00    -0.435 A  
HETATM   15  C   UNL     1     -11.710  13.387  63.923  1.00  0.00    -0.404 A  
HETATM   16  O   UNL     1     -12.124  11.275  62.954  1.00  0.00    -0.879 OA 
HETATM   17  H   UNL     1     -12.676  11.679  62.294  1.00  0.00     0.000 HD 
HETATM   18  C   UNL     1     -11.111  14.194  64.878  1.00  0.00    -0.389 A  
HETATM   19  O   UNL     1     -12.500  13.958  62.969  1.00  0.00    -1.099 OA 
HETATM   20  C   UNL     1     -10.293  13.612  65.848  1.00  0.00    -0.304 A  
HETATM   21  H   UNL     1     -12.637  14.898  62.965  1.00  0.00     0.000 HD 
ENDBRANCH   3  12
TORSDOF 1
ENDMDL
MODEL       19
REMARK 921   NORMALIZED FREE ENERGY PREDICTED BY IDOCK:   -6.60 KCAL/MOL
REMARK 922        TOTAL FREE ENERGY PREDICTED BY IDOCK:   -6.17 KCAL/MOL
REMARK 923 INTER-LIGAND FREE ENERGY PREDICTED BY IDOCK:   -6.31 KCAL/MOL
REMARK 924 INTRA-LIGAND FREE ENERGY PREDICTED BY IDOCK:    0.15 KCAL/MOL
REMARK 927      BINDING AFFINITY PREDICTED BY RF-SCORE:    0.00 PKD
ROOT
HETATM    1  C   UNL     1     -11.816  11.766  64.817  1.00  0.00    -0.174 C  
HETATM    2  C   UNL     1     -10.899  13.002  64.849  1.00  0.00    -0.323 C  
HETATM    3  C   UNL     1      -9.996  13.009  66.121  1.00  0.00    -0.278 C  
HETATM    4  N   UNL     1     -10.086  13.031  63.589  1.00  0.00    -0.686 NA 
HETATM    5  C   UNL     1     -11.671  14.359  64.825  1.00  0.00    -0.416 C  
HETATM    6  H2  UNL     1      -9.737  11.036  63.452  1.00  0.00     0.000 HD 
HETATM    7  H   UNL     1      -9.557  13.901  63.533  1.00  0.00     0.000 HD 
HETATM    8  O   UNL     1     -11.087  15.440  64.854  1.00  0.00    -0.405 OA 
HETATM    9  O   UNL     1     -13.017  14.315  64.736  1.00  0.00    -0.653 OA 
HETATM   10  N   UNL     1      -9.208  11.907  63.397  1.00  0.00    -0.608 NA 
HETATM   11  H1  UNL     1      -8.655  11.927  62.539  1.00  0.00     0.000 HD 
ENDROOT
BRANCH   3  12
HETATM   12  C   UNL     1     -10.736  13.043  67.447  1.00  0.00    -0.256 A  
HETATM   13  C   UNL     1     -11.334  14.230  67.904  1.00  0.00    -0.320 A  
HETATM   14  C   UNL     1     -11.973  14.247  69.141  1.00  0.00    -0.335 A  
HETATM   15  C   UNL     1     -12.037  13.094  69.918  1.00  0.00    -0.287 A  
HETATM   16  O   UNL     1     -12.547  15.382  69.643  1.00  0.00    -0.600 OA 
HETATM   17  H   UNL     1     -12.984  15.393  70.487  1.00  0.00     0.000 HD 
HETATM   18  C   UNL     1     -11.469  11.910  69.476  1.00  0.00    -0.357 A  
HETATM   19  O   UNL     1     -12.661  13.121  71.131  1.00  0.00    -0.355 OA 
HETATM   20  C   UNL     1     -10.820  11.884  68.239  1.00  0.00    -0.261 A  
HETATM   21  H   UNL     1     -12.705  12.334  71.661  1.00  0.00     0.000 HD 
ENDBRANCH   3  12
TORSDOF 1
ENDMDL
MODEL       20
REMARK 921   NORMALIZED FREE ENERGY PREDICTED BY IDOCK:   -6.55 KCAL/MOL
REMARK 922        TOTAL FREE ENERGY PREDICTED BY IDOCK:   -6.11 KCAL/MOL
REMARK 923 INTER-LIGAND FREE ENERGY PREDICTED BY IDOCK:   -6.15 KCAL/MOL
REMARK 924 INTRA-LIGAND FREE ENERGY PREDICTED BY IDOCK:    0.04 KCAL/MOL
REMARK 927      BINDING AFFINITY PREDICTED BY RF-SCORE:    0.00 PKD
ROOT
HETATM    1  C   UNL     1     -10.118  14.750  65.213  1.00  0.00    -0.388 C  
HETATM    2  C   UNL     1     -11.067  13.542  65.294  1.00  0.00    -0.297 C  
HETATM    3  C   UNL     1     -12.280  13.832  66.233  1.00  0.00    -0.489 C  
HETATM    4  N   UNL     1     -11.510  13.183  63.907  1.00  0.00    -0.502 NA 
HETATM    5  C   UNL     1     -10.384  12.239  65.815  1.00  0.00    -0.258 C  
HETATM    6  H2  UNL     1     -11.714  15.073  63.196  1.00  0.00     0.000 HD 
HETATM    7  H   UNL     1     -12.045  12.315  63.924  1.00  0.00     0.000 HD 
HETATM    8  O   UNL     1     -11.004  11.186  65.947  1.00  0.00    -0.213 OA 
HETATM    9  O   UNL     1      -9.063  12.288  66.090  1.00  0.00    -0.183 OA 
HETATM   10  N   UNL     1     -12.249  14.205  63.213  1.00  0.00    -1.043 NA 
HETATM   11  H1  UNL     1     -12.550  13.961  62.269  1.00  0.00     0.000 HD 
ENDROOT
BRANCH   3  12
HETATM   12  C   UNL     1     -11.927  14.144  67.676  1.00  0.00    -0.405 A  
HETATM   13  C   UNL     1     -12.130  13.188  68.687  1.00  0.00    -0.222 A  
HETATM   14  C   UNL     1     -11.837  13.512  70.008  1.00  0.00    -0.301 A  
HETATM   15  C   UNL     1     -11.329  14.767  70.333  1.00  0.00    -0.217 A  
HETATM   16  O   UNL     1     -12.041  12.628  71.032  1.00  0.00    -0.413 OA 
HETATM   17  H   UNL     1     -11.841  12.849  71.934  1.00  0.00     0.000 HD 
HETATM   18  C   UNL     1     -11.105  15.715  69.348  1.00  0.00    -0.303 A  
HETATM   19  O   UNL     1     -11.049  15.076  71.632  1.00  0.00    -0.572 OA 
HETATM   20  C   UNL     1     -11.402  15.403  68.019  1.00  0.00    -0.345 A  
HETATM   21  H   UNL     1     -10.703  15.933  71.853  1.00  0.00     0.000 HD 
ENDBRANCH   3  12
TORSDOF 1
ENDMDL
MODEL       21
REMARK 921   NORMALIZED FREE ENERGY PREDICTED BY IDOCK:   -6.54 KCAL/MOL
REMARK 922        TOTAL FREE ENERGY PREDICTED BY IDOCK:   -6.10 KCAL/MOL
REMARK 923 INTER-LIGAND FREE ENERGY PREDICTED BY IDOCK:   -6.16 KCAL/MOL
REMARK 924 INTRA-LIGAND FREE ENERGY PREDICTED BY IDOCK:    0.06 KCAL/MOL
REMARK 927      BINDING AFFINITY PREDICTED BY RF-SCORE:    0.00 PKD
ROOT
HETATM    1  C   UNL     1     -11.534  12.089  65.916  1.00  0.00    -0.392 C  
HETATM    2  C   UNL     1     -11.466  12.968  64.655  1.00  0.00    -0.336 C  
HETATM    3  C   UNL     1     -10.134  13.780  64.597  1.00  0.00    -0.193 C  
HETATM    4  N   UNL     1     -11.640  12.095  63.449  1.00  0.00    -0.656 NA 
HETATM    5  C   UNL     1     -12.636  13.996  64.542  1.00  0.00    -0.206 C  
HETATM    6  H2  UNL     1     -10.552  10.513  64.107  1.00  0.00     0.000 HD 
HETATM    7  H   UNL     1     -11.716  12.669  62.609  1.00  0.00     0.000 HD 
HETATM    8  O   UNL     1     -12.725  14.779  63.598  1.00  0.00    -0.713 OA 
HETATM    9  O   UNL     1     -13.582  13.981  65.504  1.00  0.00    -0.596 OA 
HETATM   10  N   UNL     1     -10.628  11.087  63.267  1.00  0.00    -0.734 NA 
HETATM   11  H1  UNL     1     -10.747  10.493  62.446  1.00  0.00     0.000 HD 
ENDROOT
BRANCH   3  12
HETATM   12  C   UNL     1      -9.904  14.740  65.750  1.00  0.00    -0.373 A  
HETATM   13  C   UNL     1      -9.401  14.278  66.979  1.00  0.00    -0.249 A  
HETATM   14  C   UNL     1      -9.236  15.171  68.034  1.00  0.00    -0.185 A  
HETATM   15  C   UNL     1      -9.550  16.518  67.875  1.00  0.00    -0.233 A  
HETATM   16  O   UNL     1      -8.775  14.767  69.257  1.00  0.00    -0.340 OA 
HETATM   17  H   UNL     1      -8.663  15.377  69.977  1.00  0.00     0.000 HD 
HETATM   18  C   UNL     1     -10.029  16.994  66.666  1.00  0.00    -0.307 A  
HETATM   19  O   UNL     1      -9.389  17.384  68.917  1.00  0.00    -0.258 OA 
HETATM   20  C   UNL     1     -10.205  16.106  65.603  1.00  0.00    -0.390 A  
HETATM   21  H   UNL     1      -9.603  18.303  68.808  1.00  0.00     0.000 HD 
ENDBRANCH   3  12
TORSDOF 1
ENDMDL
MODEL       22
REMARK 921   NORMALIZED FREE ENERGY PREDICTED BY IDOCK:   -6.54 KCAL/MOL
REMARK 922        TOTAL FREE ENERGY PREDICTED BY IDOCK:   -6.10 KCAL/MOL
REMARK 923 INTER-LIGAND FREE ENERGY PREDICTED BY IDOCK:   -6.20 KCAL/MOL
REMARK 924 INTRA-LIGAND FREE ENERGY PREDICTED BY IDOCK:    0.10 KCAL/MOL
REMARK 927      BINDING AFFINITY PREDICTED BY RF-SCORE:    0.00 PKD
ROOT
HETATM    1  C   UNL     1     -10.010  13.861  68.124  1.00  0.00    -0.240 C  
HETATM    2  C   UNL     1     -10.919  14.832  67.349  1.00  0.00    -0.313 C  
HETATM    3  C   UNL     1     -12.058  14.071  66.601  1.00  0.00    -0.487 C  
HETATM    4  N   UNL     1     -11.463  15.850  68.305  1.00  0.00    -0.352 NA 
HETATM    5  C   UNL     1     -10.163  15.688  66.284  1.00  0.00    -0.299 C  
HETATM    6  H2  UNL     1     -11.772  14.601  69.875  1.00  0.00     0.000 HD 
HETATM    7  H   UNL     1     -11.973  16.572  67.796  1.00  0.00     0.000 HD 
HETATM    8  O   UNL     1     -10.743  16.506  65.575  1.00  0.00    -0.359 OA 
HETATM    9  O   UNL     1      -8.825  15.530  66.185  1.00  0.00    -0.320 OA 
HETATM   10  N   UNL     1     -12.281  15.323  69.366  1.00  0.00    -0.555 NA 
HETATM   11  H1  UNL     1     -12.652  16.017  70.017  1.00  0.00     0.000 HD 
ENDROOT
BRANCH   3  12
HETATM   12  C   UNL     1     -11.598  13.062  65.564  1.00  0.00    -0.382 A  
HETATM   13  C   UNL     1     -10.971  11.867  65.956  1.00  0.00    -0.355 A  
HETATM   14  C   UNL     1     -10.522  10.975  64.986  1.00  0.00    -0.277 A  
HETATM   15  C   UNL     1     -10.705  11.252  63.634  1.00  0.00    -0.367 A  
HETATM   16  O   UNL     1      -9.882   9.811  65.313  1.00  0.00    -0.313 OA 
HETATM   17  H   UNL     1      -9.576   9.203  64.650  1.00  0.00     0.000 HD 
HETATM   18  C   UNL     1     -11.338  12.416  63.229  1.00  0.00    -0.399 A  
HETATM   19  O   UNL     1     -10.258  10.374  62.690  1.00  0.00    -0.687 OA 
HETATM   20  C   UNL     1     -11.786  13.320  64.194  1.00  0.00    -0.497 A  
HETATM   21  H   UNL     1     -10.383  10.563  61.767  1.00  0.00     0.000 HD 
ENDBRANCH   3  12
TORSDOF 1
ENDMDL
MODEL       23
REMARK 921   NORMALIZED FREE ENERGY PREDICTED BY IDOCK:   -6.53 KCAL/MOL
REMARK 922        TOTAL FREE ENERGY PREDICTED BY IDOCK:   -6.09 KCAL/MOL
REMARK 923 INTER-LIGAND FREE ENERGY PREDICTED BY IDOCK:   -6.11 KCAL/MOL
REMARK 924 INTRA-LIGAND FREE ENERGY PREDICTED BY IDOCK:    0.02 KCAL/MOL
REMARK 927      BINDING AFFINITY PREDICTED BY RF-SCORE:    0.00 PKD
ROOT
HETATM    1  C   UNL     1      -9.902  13.886  68.215  1.00  0.00    -0.231 C  
HETATM    2  C   UNL     1     -11.080  14.263  67.300  1.00  0.00    -0.306 C  
HETATM    3  C   UNL     1     -11.897  13.004  66.875  1.00  0.00    -0.442 C  
HETATM    4  N   UNL     1     -11.937  15.270  68.008  1.00  0.00    -0.452 NA 
HETATM    5  C   UNL     1     -10.650  14.996  65.990  1.00  0.00    -0.322 C  
HETATM    6  H2  UNL     1     -11.815  14.463  69.866  1.00  0.00     0.000 HD 
HETATM    7  H   UNL     1     -12.657  15.622  67.377  1.00  0.00     0.000 HD 
HETATM    8  O   UNL     1     -11.469  15.358  65.148  1.00  0.00    -0.302 OA 
HETATM    9  O   UNL     1      -9.337  15.258  65.818  1.00  0.00    -0.316 OA 
HETATM   10  N   UNL     1     -12.535  14.815  69.235  1.00  0.00    -0.579 NA 
HETATM   11  H1  UNL     1     -13.118  15.501  69.717  1.00  0.00     0.000 HD 
ENDROOT
BRANCH   3  12
HETATM   12  C   UNL     1     -11.123  11.956  66.095  1.00  0.00    -0.374 A  
HETATM   13  C   UNL     1     -11.122  11.963  64.690  1.00  0.00    -0.373 A  
HETATM   14  C   UNL     1     -10.437  10.968  63.997  1.00  0.00    -0.366 A  
HETATM   15  C   UNL     1      -9.741   9.979  64.686  1.00  0.00    -0.269 A  
HETATM   16  O   UNL     1     -10.427  10.915  62.630  1.00  0.00    -0.760 OA 
HETATM   17  H   UNL     1      -9.959  10.236  62.158  1.00  0.00     0.000 HD 
HETATM   18  C   UNL     1      -9.715   9.967  66.071  1.00  0.00    -0.310 A  
HETATM   19  O   UNL     1      -9.077   9.006  63.999  1.00  0.00    -0.424 OA 
HETATM   20  C   UNL     1     -10.405  10.956  66.776  1.00  0.00    -0.289 A  
HETATM   21  H   UNL     1      -8.602   8.331  64.469  1.00  0.00     0.000 HD 
ENDBRANCH   3  12
TORSDOF 1
ENDMDL
MODEL       24
REMARK 921   NORMALIZED FREE ENERGY PREDICTED BY IDOCK:   -6.52 KCAL/MOL
REMARK 922        TOTAL FREE ENERGY PREDICTED BY IDOCK:   -6.09 KCAL/MOL
REMARK 923 INTER-LIGAND FREE ENERGY PREDICTED BY IDOCK:   -6.15 KCAL/MOL
REMARK 924 INTRA-LIGAND FREE ENERGY PREDICTED BY IDOCK:    0.06 KCAL/MOL
REMARK 927      BINDING AFFINITY PREDICTED BY RF-SCORE:    0.00 PKD
ROOT
HETATM    1  C   UNL     1     -10.335  15.021  65.403  1.00  0.00    -0.410 C  
HETATM    2  C   UNL     1     -11.113  13.694  65.440  1.00  0.00    -0.298 C  
HETATM    3  C   UNL     1     -12.365  13.793  66.366  1.00  0.00    -0.460 C  
HETATM    4  N   UNL     1     -11.485  13.313  64.039  1.00  0.00    -0.481 NA 
HETATM    5  C   UNL     1     -10.265  12.482  65.943  1.00  0.00    -0.261 C  
HETATM    6  H2  UNL     1     -11.933  15.175  63.368  1.00  0.00     0.000 HD 
HETATM    7  H   UNL     1     -11.897  12.380  64.027  1.00  0.00     0.000 HD 
HETATM    8  O   UNL     1     -10.739  11.352  66.040  1.00  0.00    -0.265 OA 
HETATM    9  O   UNL     1      -8.967  12.703  66.240  1.00  0.00    -0.120 OA 
HETATM   10  N   UNL     1     -12.346  14.242  63.356  1.00  0.00    -1.126 NA 
HETATM   11  H1  UNL     1     -12.599  13.983  62.402  1.00  0.00     0.000 HD 
ENDROOT
BRANCH   3  12
HETATM   12  C   UNL     1     -12.077  14.114  67.822  1.00  0.00    -0.321 A  
HETATM   13  C   UNL     1     -11.757  15.424  68.218  1.00  0.00    -0.313 A  
HETATM   14  C   UNL     1     -11.458  15.685  69.552  1.00  0.00    -0.344 A  
HETATM   15  C   UNL     1     -11.490  14.663  70.497  1.00  0.00    -0.220 A  
HETATM   16  O   UNL     1     -11.116  16.937  69.985  1.00  0.00    -0.417 OA 
HETATM   17  H   UNL     1     -10.912  17.115  70.896  1.00  0.00     0.000 HD 
HETATM   18  C   UNL     1     -11.821  13.369  70.128  1.00  0.00    -0.342 A  
HETATM   19  O   UNL     1     -11.191  14.928  71.801  1.00  0.00    -0.548 OA 
HETATM   20  C   UNL     1     -12.116  13.095  68.791  1.00  0.00    -0.226 A  
HETATM   21  H   UNL     1     -11.213  14.230  72.446  1.00  0.00     0.000 HD 
ENDBRANCH   3  12
TORSDOF 1
ENDMDL
MODEL       25
REMARK 921   NORMALIZED FREE ENERGY PREDICTED BY IDOCK:   -6.50 KCAL/MOL
REMARK 922        TOTAL FREE ENERGY PREDICTED BY IDOCK:   -6.06 KCAL/MOL
REMARK 923 INTER-LIGAND FREE ENERGY PREDICTED BY IDOCK:   -6.38 KCAL/MOL
REMARK 924 INTRA-LIGAND FREE ENERGY PREDICTED BY IDOCK:    0.32 KCAL/MOL
REMARK 927      BINDING AFFINITY PREDICTED BY RF-SCORE:    0.00 PKD
ROOT
HETATM    1  C   UNL     1      -7.295  14.503  67.319  1.00  0.00    -0.098 C  
HETATM    2  C   UNL     1      -8.180  15.517  68.065  1.00  0.00    -0.144 C  
HETATM    3  C   UNL     1      -9.658  15.027  68.154  1.00  0.00    -0.207 C  
HETATM    4  N   UNL     1      -7.592  15.764  69.421  1.00  0.00    -0.224 NA 
HETATM    5  C   UNL     1      -8.205  16.933  67.407  1.00  0.00    -0.182 C  
HETATM    6  H2  UNL     1      -7.021  13.856  69.814  1.00  0.00     0.000 HD 
HETATM    7  H   UNL     1      -8.094  16.519  69.889  1.00  0.00     0.000 HD 
HETATM    8  O   UNL     1      -8.869  17.856  67.873  1.00  0.00    -0.250 OA 
HETATM    9  O   UNL     1      -7.438  17.132  66.314  1.00  0.00    -0.280 OA 
HETATM   10  N   UNL     1      -7.523  14.611  70.281  1.00  0.00    -0.264 NA 
HETATM   11  H1  UNL     1      -7.122  14.779  71.205  1.00  0.00     0.000 HD 
ENDROOT
BRANCH   3  12
HETATM   12  C   UNL     1     -10.356  14.811  66.822  1.00  0.00    -0.268 A  
HETATM   13  C   UNL     1     -10.583  15.888  65.949  1.00  0.00    -0.348 A  
HETATM   14  C   UNL     1     -11.260  15.671  64.752  1.00  0.00    -0.382 A  
HETATM   15  C   UNL     1     -11.698  14.395  64.408  1.00  0.00    -0.375 A  
HETATM   16  O   UNL     1     -11.530  16.690  63.879  1.00  0.00    -1.604 OA 
HETATM   17  H   UNL     1     -11.992  16.542  63.062  1.00  0.00     0.000 HD 
HETATM   18  C   UNL     1     -11.467  13.318  65.248  1.00  0.00    -0.319 A  
HETATM   19  O   UNL     1     -12.365  14.194  63.235  1.00  0.00    -1.140 OA 
HETATM   20  C   UNL     1     -10.795  13.526  66.455  1.00  0.00    -0.291 A  
HETATM   21  H   UNL     1     -12.664  13.323  63.001  1.00  0.00     0.000 HD 
ENDBRANCH   3  12
TORSDOF 1
ENDMDL
MODEL       26
REMARK 921   NORMALIZED FREE ENERGY PREDICTED BY IDOCK:   -6.49 KCAL/MOL
REMARK 922        TOTAL FREE ENERGY PREDICTED BY IDOCK:   -6.05 KCAL/MOL
REMARK 923 INTER-LIGAND FREE ENERGY PREDICTED BY IDOCK:   -6.10 KCAL/MOL
REMARK 924 INTRA-LIGAND FREE ENERGY PREDICTED BY IDOCK:    0.05 KCAL/MOL
REMARK 927      BINDING AFFINITY PREDICTED BY RF-SCORE:    0.00 PKD
ROOT
HETATM    1  C   UNL     1      -6.502  16.798  67.257  1.00  0.00    -0.208 C  
HETATM    2  C   UNL     1      -7.537  17.918  67.462  1.00  0.00    -0.210 C  
HETATM    3  C   UNL     1      -8.937  17.339  67.832  1.00  0.00    -0.235 C  
HETATM    4  N   UNL     1      -7.027  18.858  68.513  1.00  0.00    -0.262 NA 
HETATM    5  C   UNL     1      -7.733  18.830  66.210  1.00  0.00    -0.272 C  
HETATM    6  H2  UNL     1      -6.216  17.465  69.745  1.00  0.00     0.000 HD 
HETATM    7  H   UNL     1      -7.640  19.671  68.582  1.00  0.00     0.000 HD 
HETATM    8  O   UNL     1      -8.529  19.766  66.205  1.00  0.00    -0.355 OA 
HETATM    9  O   UNL     1      -6.968  18.582  65.125  1.00  0.00    -0.516 OA 
HETATM   10  N   UNL     1      -6.829  18.278  69.815  1.00  0.00     0.059 NA 
HETATM   11  H1  UNL     1      -6.482  18.918  70.530  1.00  0.00     0.000 HD 
ENDROOT
BRANCH   3  12
HETATM   12  C   UNL     1      -9.560  16.423  66.794  1.00  0.00    -0.263 A  
HETATM   13  C   UNL     1     -10.345  16.947  65.753  1.00  0.00    -0.298 A  
HETATM   14  C   UNL     1     -10.938  16.084  64.836  1.00  0.00    -0.384 A  
HETATM   15  C   UNL     1     -10.746  14.708  64.934  1.00  0.00    -0.427 A  
HETATM   16  O   UNL     1     -11.732  16.541  63.820  1.00  0.00    -1.548 OA 
HETATM   17  H   UNL     1     -12.137  15.952  63.194  1.00  0.00     0.000 HD 
HETATM   18  C   UNL     1      -9.960  14.174  65.942  1.00  0.00    -0.331 A  
HETATM   19  O   UNL     1     -11.335  13.870  64.033  1.00  0.00    -0.591 OA 
HETATM   20  C   UNL     1      -9.366  15.031  66.871  1.00  0.00    -0.258 A  
HETATM   21  H   UNL     1     -11.203  12.931  64.101  1.00  0.00     0.000 HD 
ENDBRANCH   3  12
TORSDOF 1
ENDMDL
MODEL       27
REMARK 921   NORMALIZED FREE ENERGY PREDICTED BY IDOCK:   -6.40 KCAL/MOL
REMARK 922        TOTAL FREE ENERGY PREDICTED BY IDOCK:   -5.96 KCAL/MOL
REMARK 923 INTER-LIGAND FREE ENERGY PREDICTED BY IDOCK:   -6.03 KCAL/MOL
REMARK 924 INTRA-LIGAND FREE ENERGY PREDICTED BY IDOCK:    0.07 KCAL/MOL
REMARK 927      BINDING AFFINITY PREDICTED BY RF-SCORE:    0.00 PKD
ROOT
HETATM    1  C   UNL     1     -12.838  13.831  65.915  1.00  0.00    -0.369 C  
HETATM    2  C   UNL     1     -11.505  14.222  65.253  1.00  0.00    -0.344 C  
HETATM    3  C   UNL     1     -10.574  12.982  65.072  1.00  0.00    -0.336 C  
HETATM    4  N   UNL     1     -11.795  14.897  63.946  1.00  0.00    -0.831 NA 
HETATM    5  C   UNL     1     -10.696  15.291  66.053  1.00  0.00    -0.320 C  
HETATM    6  H2  UNL     1     -13.343  13.715  63.375  1.00  0.00     0.000 HD 
HETATM    7  H   UNL     1     -10.934  15.269  63.545  1.00  0.00     0.000 HD 
HETATM    8  O   UNL     1      -9.606  15.706  65.665  1.00  0.00    -0.333 OA 
HETATM    9  O   UNL     1     -11.249  15.783  67.182  1.00  0.00    -0.246 OA 
HETATM   10  N   UNL     1     -12.482  14.087  62.974  1.00  0.00    -0.988 NA 
HETATM   11  H1  UNL     1     -12.679  14.547  62.084  1.00  0.00     0.000 HD 
ENDROOT
BRANCH   3  12
HETATM   12  C   UNL     1     -10.176  12.272  66.353  1.00  0.00    -0.247 A  
HETATM   13  C   UNL     1     -10.962  11.226  66.867  1.00  0.00    -0.348 A  
HETATM   14  C   UNL     1     -10.598  10.617  68.065  1.00  0.00    -0.211 A  
HETATM   15  C   UNL     1      -9.455  11.025  68.746  1.00  0.00    -0.183 A  
HETATM   16  O   UNL     1     -11.343   9.613  68.621  1.00  0.00    -0.480 OA 
HETATM   17  H   UNL     1     -11.093   9.197  69.439  1.00  0.00     0.000 HD 
HETATM   18  C   UNL     1      -8.658  12.041  68.245  1.00  0.00    -0.174 A  
HETATM   19  O   UNL     1      -9.109  10.425  69.922  1.00  0.00    -0.403 OA 
HETATM   20  C   UNL     1      -9.018  12.664  67.048  1.00  0.00    -0.216 A  
HETATM   21  H   UNL     1      -8.328  10.703  70.386  1.00  0.00     0.000 HD 
ENDBRANCH   3  12
TORSDOF 1
ENDMDL
MODEL       28
REMARK 921   NORMALIZED FREE ENERGY PREDICTED BY IDOCK:   -6.37 KCAL/MOL
REMARK 922        TOTAL FREE ENERGY PREDICTED BY IDOCK:   -5.93 KCAL/MOL
REMARK 923 INTER-LIGAND FREE ENERGY PREDICTED BY IDOCK:   -5.98 KCAL/MOL
REMARK 924 INTRA-LIGAND FREE ENERGY PREDICTED BY IDOCK:    0.05 KCAL/MOL
REMARK 927      BINDING AFFINITY PREDICTED BY RF-SCORE:    0.00 PKD
ROOT
HETATM    1  C   UNL     1      -9.608  12.102  68.755  1.00  0.00     0.027 C  
HETATM    2  C   UNL     1     -10.835  13.007  68.543  1.00  0.00    -0.258 C  
HETATM    3  C   UNL     1     -11.882  12.336  67.600  1.00  0.00    -0.334 C  
HETATM    4  N   UNL     1     -11.424  13.341  69.881  1.00  0.00    -0.502 NA 
HETATM    5  C   UNL     1     -10.491  14.401  67.930  1.00  0.00    -0.239 C  
HETATM    6  H2  UNL     1     -11.162  11.525  70.748  1.00  0.00     0.000 HD 
HETATM    7  H   UNL     1     -12.166  14.032  69.774  1.00  0.00     0.000 HD 
HETATM    8  O   UNL     1     -11.358  15.238  67.690  1.00  0.00    -0.328 OA 
HETATM    9  O   UNL     1      -9.191  14.682  67.697  1.00  0.00    -0.186 OA 
HETATM   10  N   UNL     1     -11.904  12.216  70.641  1.00  0.00    -0.466 NA 
HETATM   11  H1  UNL     1     -12.305  12.444  71.551  1.00  0.00     0.000 HD 
ENDROOT
BRANCH   3  12
HETATM   12  C   UNL     1     -11.389  12.018  66.199  1.00  0.00    -0.407 A  
HETATM   13  C   UNL     1     -11.832  12.768  65.096  1.00  0.00    -0.428 A  
HETATM   14  C   UNL     1     -11.398  12.432  63.817  1.00  0.00    -0.464 A  
HETATM   15  C   UNL     1     -10.516  11.372  63.626  1.00  0.00    -0.414 A  
HETATM   16  O   UNL     1     -11.820  13.113  62.708  1.00  0.00    -0.696 OA 
HETATM   17  H   UNL     1     -11.522  12.884  61.835  1.00  0.00     0.000 HD 
HETATM   18  C   UNL     1     -10.053  10.634  64.703  1.00  0.00    -0.417 A  
HETATM   19  O   UNL     1     -10.098  11.048  62.368  1.00  0.00    -0.582 OA 
HETATM   20  C   UNL     1     -10.489  10.958  65.990  1.00  0.00    -0.287 A  
HETATM   21  H   UNL     1      -9.497  10.325  62.238  1.00  0.00     0.000 HD 
ENDBRANCH   3  12
TORSDOF 1
ENDMDL
MODEL       29
REMARK 921   NORMALIZED FREE ENERGY PREDICTED BY IDOCK:   -6.36 KCAL/MOL
REMARK 922        TOTAL FREE ENERGY PREDICTED BY IDOCK:   -5.91 KCAL/MOL
REMARK 923 INTER-LIGAND FREE ENERGY PREDICTED BY IDOCK:   -5.99 KCAL/MOL
REMARK 924 INTRA-LIGAND FREE ENERGY PREDICTED BY IDOCK:    0.07 KCAL/MOL
REMARK 927      BINDING AFFINITY PREDICTED BY RF-SCORE:    0.00 PKD
ROOT
HETATM    1  C   UNL     1     -10.520  10.039  67.516  1.00  0.00    -0.307 C  
HETATM    2  C   UNL     1      -9.843  11.256  68.171  1.00  0.00    -0.183 C  
HETATM    3  C   UNL     1     -10.778  12.504  68.158  1.00  0.00    -0.246 C  
HETATM    4  N   UNL     1      -9.428  10.885  69.563  1.00  0.00    -0.410 NA 
HETATM    5  C   UNL     1      -8.505  11.677  67.484  1.00  0.00    -0.150 C  
HETATM    6  H2  UNL     1     -11.056   9.770  70.037  1.00  0.00     0.000 HD 
HETATM    7  H   UNL     1      -8.874  11.635  69.976  1.00  0.00     0.000 HD 
HETATM    8  O   UNL     1      -7.843  12.634  67.880  1.00  0.00    -0.128 OA 
HETATM    9  O   UNL     1      -8.067  10.930  66.449  1.00  0.00    -0.153 OA 
HETATM   10  N   UNL     1     -10.502  10.521  70.449  1.00  0.00    -0.383 NA 
HETATM   11  H1  UNL     1     -10.220  10.268  71.397  1.00  0.00     0.000 HD 
ENDROOT
BRANCH   3  12
HETATM   12  C   UNL     1     -11.199  12.991  66.783  1.00  0.00    -0.333 A  
HETATM   13  C   UNL     1     -10.718  14.210  66.275  1.00  0.00    -0.293 A  
HETATM   14  C   UNL     1     -11.149  14.653  65.028  1.00  0.00    -0.394 A  
HETATM   15  C   UNL     1     -12.039  13.892  64.276  1.00  0.00    -0.440 A  
HETATM   16  O   UNL     1     -10.732  15.845  64.500  1.00  0.00    -0.794 OA 
HETATM   17  H   UNL     1     -11.026  16.147  63.649  1.00  0.00     0.000 HD 
HETATM   18  C   UNL     1     -12.510  12.679  64.752  1.00  0.00    -0.555 A  
HETATM   19  O   UNL     1     -12.460  14.337  63.057  1.00  0.00    -0.986 OA 
HETATM   20  C   UNL     1     -12.088  12.228  66.005  1.00  0.00    -0.229 A  
HETATM   21  H   UNL     1     -13.067  13.817  62.544  1.00  0.00     0.000 HD 
ENDBRANCH   3  12
TORSDOF 1
ENDMDL
MODEL       30
REMARK 921   NORMALIZED FREE ENERGY PREDICTED BY IDOCK:   -6.35 KCAL/MOL
REMARK 922        TOTAL FREE ENERGY PREDICTED BY IDOCK:   -5.90 KCAL/MOL
REMARK 923 INTER-LIGAND FREE ENERGY PREDICTED BY IDOCK:   -5.95 KCAL/MOL
REMARK 924 INTRA-LIGAND FREE ENERGY PREDICTED BY IDOCK:    0.05 KCAL/MOL
REMARK 927      BINDING AFFINITY PREDICTED BY RF-SCORE:    0.00 PKD
ROOT
HETATM    1  C   UNL     1     -11.488  11.597  66.766  1.00  0.00    -0.299 C  
HETATM    2  C   UNL     1     -10.795  12.970  66.831  1.00  0.00    -0.264 C  
HETATM    3  C   UNL     1     -10.284  13.282  68.272  1.00  0.00    -0.250 C  
HETATM    4  N   UNL     1      -9.682  12.996  65.828  1.00  0.00    -0.444 NA 
HETATM    5  C   UNL     1     -11.712  14.159  66.402  1.00  0.00    -0.390 C  
HETATM    6  H2  UNL     1      -9.035  11.091  66.099  1.00  0.00     0.000 HD 
HETATM    7  H   UNL     1      -9.284  13.933  65.770  1.00  0.00     0.000 HD 
HETATM    8  O   UNL     1     -11.314  15.321  66.405  1.00  0.00    -0.284 OA 
HETATM    9  O   UNL     1     -12.963  13.869  65.985  1.00  0.00    -0.378 OA 
HETATM   10  N   UNL     1      -8.637  12.029  66.041  1.00  0.00    -0.389 NA 
HETATM   11  H1  UNL     1      -7.880  12.047  65.358  1.00  0.00     0.000 HD 
ENDROOT
BRANCH   3  12
HETATM   12  C   UNL     1     -11.355  13.338  69.347  1.00  0.00    -0.280 A  
HETATM   13  C   UNL     1     -12.039  14.536  69.616  1.00  0.00    -0.369 A  
HETATM   14  C   UNL     1     -12.989  14.573  70.633  1.00  0.00    -0.301 A  
HETATM   15  C   UNL     1     -13.277  13.429  71.372  1.00  0.00    -0.250 A  
HETATM   16  O   UNL     1     -13.663  15.720  70.952  1.00  0.00    -0.744 OA 
HETATM   17  H   UNL     1     -14.312  15.744  71.647  1.00  0.00     0.000 HD 
HETATM   18  C   UNL     1     -12.626  12.234  71.109  1.00  0.00    -0.353 A  
HETATM   19  O   UNL     1     -14.206  13.476  72.370  1.00  0.00    -0.654 OA 
HETATM   20  C   UNL     1     -11.667  12.188  70.095  1.00  0.00    -0.301 A  
HETATM   21  H   UNL     1     -14.403  12.695  72.875  1.00  0.00     0.000 HD 
ENDBRANCH   3  12
TORSDOF 1
ENDMDL
MODEL       31
REMARK 921   NORMALIZED FREE ENERGY PREDICTED BY IDOCK:   -6.26 KCAL/MOL
REMARK 922        TOTAL FREE ENERGY PREDICTED BY IDOCK:   -5.80 KCAL/MOL
REMARK 923 INTER-LIGAND FREE ENERGY PREDICTED BY IDOCK:   -5.83 KCAL/MOL
REMARK 924 INTRA-LIGAND FREE ENERGY PREDICTED BY IDOCK:    0.03 KCAL/MOL
REMARK 927      BINDING AFFINITY PREDICTED BY RF-SCORE:    0.00 PKD
ROOT
HETATM    1  C   UNL     1      -9.346  13.792  68.570  1.00  0.00    -0.144 C  
HETATM    2  C   UNL     1     -10.720  13.337  68.048  1.00  0.00    -0.240 C  
HETATM    3  C   UNL     1     -11.835  14.370  68.401  1.00  0.00    -0.354 C  
HETATM    4  N   UNL     1     -10.622  13.107  66.570  1.00  0.00    -0.282 NA 
HETATM    5  C   UNL     1     -11.180  11.954  68.610  1.00  0.00    -0.257 C  
HETATM    6  H2  UNL     1      -9.415  14.680  66.136  1.00  0.00     0.000 HD 
HETATM    7  H   UNL     1     -11.486  12.693  66.221  1.00  0.00     0.000 HD 
HETATM    8  O   UNL     1     -12.257  11.451  68.299  1.00  0.00    -0.588 OA 
HETATM    9  O   UNL     1     -10.335  11.298  69.433  1.00  0.00    -0.140 OA 
HETATM   10  N   UNL     1     -10.280  14.266  65.788  1.00  0.00    -0.319 NA 
HETATM   11  H1  UNL     1     -10.213  14.109  64.782  1.00  0.00     0.000 HD 
ENDROOT
BRANCH   3  12
HETATM   12  C   UNL     1     -12.048  14.619  69.884  1.00  0.00    -0.385 A  
HETATM   13  C   UNL     1     -12.995  13.873  70.608  1.00  0.00    -0.219 A  
HETATM   14  C   UNL     1     -13.201  14.148  71.957  1.00  0.00    -0.402 A  
HETATM   15  C   UNL     1     -12.465  15.141  72.596  1.00  0.00    -0.376 A  
HETATM   16  O   UNL     1     -14.128  13.469  72.699  1.00  0.00    -0.762 OA 
HETATM   17  H   UNL     1     -14.268  13.656  73.621  1.00  0.00     0.000 HD 
HETATM   18  C   UNL     1     -11.514  15.874  71.904  1.00  0.00    -0.442 A  
HETATM   19  O   UNL     1     -12.677  15.405  73.918  1.00  0.00    -0.536 OA 
HETATM   20  C   UNL     1     -11.305  15.611  70.548  1.00  0.00    -0.386 A  
HETATM   21  H   UNL     1     -12.174  16.084  74.354  1.00  0.00     0.000 HD 
ENDBRANCH   3  12
TORSDOF 1
ENDMDL
MODEL       32
REMARK 921   NORMALIZED FREE ENERGY PREDICTED BY IDOCK:   -6.24 KCAL/MOL
REMARK 922        TOTAL FREE ENERGY PREDICTED BY IDOCK:   -5.79 KCAL/MOL
REMARK 923 INTER-LIGAND FREE ENERGY PREDICTED BY IDOCK:   -5.85 KCAL/MOL
REMARK 924 INTRA-LIGAND FREE ENERGY PREDICTED BY IDOCK:    0.06 KCAL/MOL
REMARK 927      BINDING AFFINITY PREDICTED BY RF-SCORE:    0.00 PKD
ROOT
HETATM    1  C   UNL     1     -10.247  12.996  64.474  1.00  0.00    -0.331 C  
HETATM    2  C   UNL     1     -11.458  12.857  65.413  1.00  0.00    -0.324 C  
HETATM    3  C   UNL     1     -12.057  14.250  65.781  1.00  0.00    -0.414 C  
HETATM    4  N   UNL     1     -12.474  11.967  64.762  1.00  0.00    -0.366 NA 
HETATM    5  C   UNL     1     -11.133  12.128  66.756  1.00  0.00    -0.300 C  
HETATM    6  H2  UNL     1     -12.251  12.654  62.865  1.00  0.00     0.000 HD 
HETATM    7  H   UNL     1     -13.233  11.766  65.413  1.00  0.00     0.000 HD 
HETATM    8  O   UNL     1     -11.987  11.943  67.620  1.00  0.00    -0.575 OA 
HETATM    9  O   UNL     1      -9.876  11.668  66.933  1.00  0.00    -0.194 OA 
HETATM   10  N   UNL     1     -13.009  12.453  63.517  1.00  0.00    -0.738 NA 
HETATM   11  H1  UNL     1     -13.701  11.847  63.073  1.00  0.00     0.000 HD 
ENDROOT
BRANCH   3  12
HETATM   12  C   UNL     1     -11.115  15.196  66.503  1.00  0.00    -0.305 A  
HETATM   13  C   UNL     1     -10.162  15.943  65.789  1.00  0.00    -0.389 A  
HETATM   14  C   UNL     1      -9.282  16.773  66.477  1.00  0.00    -0.268 A  
HETATM   15  C   UNL     1      -9.351  16.882  67.863  1.00  0.00    -0.238 A  
HETATM   16  O   UNL     1      -8.319  17.501  65.832  1.00  0.00    -0.538 OA 
HETATM   17  H   UNL     1      -7.719  18.068  66.303  1.00  0.00     0.000 HD 
HETATM   18  C   UNL     1     -10.296  16.168  68.582  1.00  0.00    -0.252 A  
HETATM   19  O   UNL     1      -8.482  17.695  68.530  1.00  0.00    -0.282 OA 
HETATM   20  C   UNL     1     -11.179  15.326  67.902  1.00  0.00    -0.333 A  
HETATM   21  H   UNL     1      -8.529  17.769  69.476  1.00  0.00     0.000 HD 
ENDBRANCH   3  12
TORSDOF 1
ENDMDL
MODEL       33
REMARK 921   NORMALIZED FREE ENERGY PREDICTED BY IDOCK:   -6.23 KCAL/MOL
REMARK 922        TOTAL FREE ENERGY PREDICTED BY IDOCK:   -5.77 KCAL/MOL
REMARK 923 INTER-LIGAND FREE ENERGY PREDICTED BY IDOCK:   -6.10 KCAL/MOL
REMARK 924 INTRA-LIGAND FREE ENERGY PREDICTED BY IDOCK:    0.33 KCAL/MOL
REMARK 927      BINDING AFFINITY PREDICTED BY RF-SCORE:    0.00 PKD
ROOT
HETATM    1  C   UNL     1     -11.593  12.846  68.668  1.00  0.00    -0.353 C  
HETATM    2  C   UNL     1     -10.575  12.356  67.623  1.00  0.00    -0.216 C  
HETATM    3  C   UNL     1      -9.400  13.368  67.455  1.00  0.00    -0.221 C  
HETATM    4  N   UNL     1     -10.087  10.997  68.026  1.00  0.00    -0.175 NA 
HETATM    5  C   UNL     1     -11.190  12.126  66.206  1.00  0.00    -0.334 C  
HETATM    6  H2  UNL     1      -9.983  11.333  70.024  1.00  0.00     0.000 HD 
HETATM    7  H   UNL     1      -9.502  10.602  67.289  1.00  0.00     0.000 HD 
HETATM    8  O   UNL     1     -10.510  11.743  65.256  1.00  0.00    -0.254 OA 
HETATM    9  O   UNL     1     -12.516  12.329  66.055  1.00  0.00    -0.503 OA 
HETATM   10  N   UNL     1      -9.398  10.939  69.288  1.00  0.00    -0.406 NA 
HETATM   11  H1  UNL     1      -9.066  10.014  69.562  1.00  0.00     0.000 HD 
ENDROOT
BRANCH   3  12
HETATM   12  C   UNL     1      -9.796  14.757  66.987  1.00  0.00    -0.240 A  
HETATM   13  C   UNL     1     -10.381  14.949  65.724  1.00  0.00    -0.351 A  
HETATM   14  C   UNL     1     -10.699  16.236  65.301  1.00  0.00    -0.332 A  
HETATM   15  C   UNL     1     -10.456  17.331  66.126  1.00  0.00    -0.278 A  
HETATM   16  O   UNL     1     -11.246  16.479  64.071  1.00  0.00    -1.409 OA 
HETATM   17  H   UNL     1     -11.463  17.359  63.783  1.00  0.00     0.000 HD 
HETATM   18  C   UNL     1      -9.897  17.160  67.382  1.00  0.00    -0.264 A  
HETATM   19  O   UNL     1     -10.767  18.590  65.701  1.00  0.00    -0.549 OA 
HETATM   20  C   UNL     1      -9.568  15.873  67.813  1.00  0.00    -0.218 A  
HETATM   21  H   UNL     1     -10.601  19.337  66.265  1.00  0.00     0.000 HD 
ENDBRANCH   3  12
TORSDOF 1
ENDMDL
MODEL       34
REMARK 921   NORMALIZED FREE ENERGY PREDICTED BY IDOCK:   -6.17 KCAL/MOL
REMARK 922        TOTAL FREE ENERGY PREDICTED BY IDOCK:   -5.72 KCAL/MOL
REMARK 923 INTER-LIGAND FREE ENERGY PREDICTED BY IDOCK:   -6.01 KCAL/MOL
REMARK 924 INTRA-LIGAND FREE ENERGY PREDICTED BY IDOCK:    0.29 KCAL/MOL
REMARK 927      BINDING AFFINITY PREDICTED BY RF-SCORE:    0.00 PKD
ROOT
HETATM    1  C   UNL     1      -9.208  14.235  66.717  1.00  0.00    -0.282 C  
HETATM    2  C   UNL     1     -10.327  13.614  65.861  1.00  0.00    -0.301 C  
HETATM    3  C   UNL     1     -11.701  13.664  66.598  1.00  0.00    -0.420 C  
HETATM    4  N   UNL     1     -10.376  14.325  64.542  1.00  0.00    -0.593 NA 
HETATM    5  C   UNL     1     -10.067  12.124  65.472  1.00  0.00    -0.248 C  
HETATM    6  H2  UNL     1     -10.028  16.199  65.237  1.00  0.00     0.000 HD 
HETATM    7  H   UNL     1     -11.029  13.855  63.915  1.00  0.00     0.000 HD 
HETATM    8  O   UNL     1     -10.867  11.479  64.798  1.00  0.00    -0.305 OA 
HETATM    9  O   UNL     1      -8.906  11.563  65.872  1.00  0.00    -0.187 OA 
HETATM   10  N   UNL     1     -10.681  15.730  64.610  1.00  0.00    -0.764 NA 
HETATM   11  H1  UNL     1     -10.714  16.213  63.712  1.00  0.00     0.000 HD 
ENDROOT
BRANCH   3  12
HETATM   12  C   UNL     1     -11.762  12.914  67.917  1.00  0.00    -0.405 A  
HETATM   13  C   UNL     1     -11.623  11.516  67.955  1.00  0.00    -0.370 A  
HETATM   14  C   UNL     1     -11.722  10.848  69.172  1.00  0.00    -0.326 A  
HETATM   15  C   UNL     1     -11.942  11.555  70.351  1.00  0.00    -0.368 A  
HETATM   16  O   UNL     1     -11.620   9.487  69.260  1.00  0.00    -0.437 OA 
HETATM   17  H   UNL     1     -11.688   9.031  70.091  1.00  0.00     0.000 HD 
HETATM   18  C   UNL     1     -12.063  12.935  70.335  1.00  0.00    -0.385 A  
HETATM   19  O   UNL     1     -12.042  10.891  71.538  1.00  0.00    -0.225 OA 
HETATM   20  C   UNL     1     -11.972  13.615  69.119  1.00  0.00    -0.394 A  
HETATM   21  H   UNL     1     -12.192  11.374  72.343  1.00  0.00     0.000 HD 
ENDBRANCH   3  12
TORSDOF 1
ENDMDL
MODEL       35
REMARK 921   NORMALIZED FREE ENERGY PREDICTED BY IDOCK:   -6.16 KCAL/MOL
REMARK 922        TOTAL FREE ENERGY PREDICTED BY IDOCK:   -5.71 KCAL/MOL
REMARK 923 INTER-LIGAND FREE ENERGY PREDICTED BY IDOCK:   -6.16 KCAL/MOL
REMARK 924 INTRA-LIGAND FREE ENERGY PREDICTED BY IDOCK:    0.46 KCAL/MOL
REMARK 927      BINDING AFFINITY PREDICTED BY RF-SCORE:    0.00 PKD
ROOT
HETATM    1  C   UNL     1     -10.653   9.104  67.604  1.00  0.00    -0.307 C  
HETATM    2  C   UNL     1     -10.014  10.393  68.151  1.00  0.00    -0.149 C  
HETATM    3  C   UNL     1      -9.602  10.234  69.647  1.00  0.00    -0.192 C  
HETATM    4  N   UNL     1      -8.845  10.755  67.286  1.00  0.00    -0.133 NA 
HETATM    5  C   UNL     1     -10.946  11.643  68.061  1.00  0.00    -0.224 C  
HETATM    6  H2  UNL     1      -8.148   8.874  66.979  1.00  0.00     0.000 HD 
HETATM    7  H   UNL     1      -8.478  11.668  67.557  1.00  0.00     0.000 HD 
HETATM    8  O   UNL     1     -10.591  12.749  68.461  1.00  0.00    -0.244 OA 
HETATM    9  O   UNL     1     -12.159  11.484  67.490  1.00  0.00    -0.614 OA 
HETATM   10  N   UNL     1      -7.781   9.786  67.251  1.00  0.00    -0.095 NA 
HETATM   11  H1  UNL     1      -6.985  10.033  66.662  1.00  0.00     0.000 HD 
ENDROOT
BRANCH   3  12
HETATM   12  C   UNL     1     -10.737   9.928  70.608  1.00  0.00    -0.372 A  
HETATM   13  C   UNL     1     -10.711   8.768  71.402  1.00  0.00    -0.356 A  
HETATM   14  C   UNL     1     -11.783   8.489  72.246  1.00  0.00    -0.373 A  
HETATM   15  C   UNL     1     -12.869   9.356  72.321  1.00  0.00    -0.375 A  
HETATM   16  O   UNL     1     -11.818   7.361  73.020  1.00  0.00    -0.571 OA 
HETATM   17  H   UNL     1     -12.550   7.171  73.596  1.00  0.00     0.000 HD 
HETATM   18  C   UNL     1     -12.903  10.513  71.559  1.00  0.00    -0.568 A  
HETATM   19  O   UNL     1     -13.916   9.071  73.148  1.00  0.00    -1.130 OA 
HETATM   20  C   UNL     1     -11.837  10.800  70.704  1.00  0.00    -0.460 A  
HETATM   21  H   UNL     1     -14.657   9.664  73.198  1.00  0.00     0.000 HD 
ENDBRANCH   3  12
TORSDOF 1
ENDMDL
MODEL       36
REMARK 921   NORMALIZED FREE ENERGY PREDICTED BY IDOCK:   -6.15 KCAL/MOL
REMARK 922        TOTAL FREE ENERGY PREDICTED BY IDOCK:   -5.69 KCAL/MOL
REMARK 923 INTER-LIGAND FREE ENERGY PREDICTED BY IDOCK:   -6.36 KCAL/MOL
REMARK 924 INTRA-LIGAND FREE ENERGY PREDICTED BY IDOCK:    0.67 KCAL/MOL
REMARK 927      BINDING AFFINITY PREDICTED BY RF-SCORE:    0.00 PKD
ROOT
HETATM    1  C   UNL     1      -9.758  12.592  67.918  1.00  0.00    -0.216 C  
HETATM    2  C   UNL     1     -10.538  13.736  67.245  1.00  0.00    -0.275 C  
HETATM    3  C   UNL     1     -10.848  14.885  68.254  1.00  0.00    -0.257 C  
HETATM    4  N   UNL     1      -9.753  14.226  66.066  1.00  0.00    -0.406 NA 
HETATM    5  C   UNL     1     -11.900  13.288  66.625  1.00  0.00    -0.395 C  
HETATM    6  H2  UNL     1      -7.909  14.099  66.903  1.00  0.00     0.000 HD 
HETATM    7  H   UNL     1     -10.303  14.902  65.536  1.00  0.00     0.000 HD 
HETATM    8  O   UNL     1     -12.649  14.081  66.058  1.00  0.00    -0.481 OA 
HETATM    9  O   UNL     1     -12.225  11.980  66.698  1.00  0.00    -0.550 OA 
HETATM   10  N   UNL     1      -8.459  14.775  66.373  1.00  0.00    -0.394 NA 
HETATM   11  H1  UNL     1      -7.924  15.109  65.570  1.00  0.00     0.000 HD 
ENDROOT
BRANCH   3  12
HETATM   12  C   UNL     1     -11.695  14.492  69.451  1.00  0.00    -0.361 A  
HETATM   13  C   UNL     1     -11.744  13.157  69.888  1.00  0.00    -0.327 A  
HETATM   14  C   UNL     1     -12.559  12.814  70.963  1.00  0.00    -0.271 A  
HETATM   15  C   UNL     1     -13.311  13.785  71.618  1.00  0.00    -0.354 A  
HETATM   16  O   UNL     1     -12.662  11.525  71.410  1.00  0.00    -0.397 OA 
HETATM   17  H   UNL     1     -13.218  11.292  72.145  1.00  0.00     0.000 HD 
HETATM   18  C   UNL     1     -13.261  15.109  71.213  1.00  0.00    -0.536 A  
HETATM   19  O   UNL     1     -14.110  13.439  72.668  1.00  0.00    -0.767 OA 
HETATM   20  C   UNL     1     -12.452  15.463  70.131  1.00  0.00    -0.370 A  
HETATM   21  H   UNL     1     -14.623  14.102  73.114  1.00  0.00     0.000 HD 
ENDBRANCH   3  12
TORSDOF 1
ENDMDL
MODEL       37
REMARK 921   NORMALIZED FREE ENERGY PREDICTED BY IDOCK:   -6.14 KCAL/MOL
REMARK 922        TOTAL FREE ENERGY PREDICTED BY IDOCK:   -5.68 KCAL/MOL
REMARK 923 INTER-LIGAND FREE ENERGY PREDICTED BY IDOCK:   -5.75 KCAL/MOL
REMARK 924 INTRA-LIGAND FREE ENERGY PREDICTED BY IDOCK:    0.07 KCAL/MOL
REMARK 927      BINDING AFFINITY PREDICTED BY RF-SCORE:    0.00 PKD
ROOT
HETATM    1  C   UNL     1     -10.162  15.440  65.561  1.00  0.00    -0.411 C  
HETATM    2  C   UNL     1     -10.250  15.224  67.082  1.00  0.00    -0.252 C  
HETATM    3  C   UNL     1     -10.862  16.466  67.800  1.00  0.00    -0.306 C  
HETATM    4  N   UNL     1     -11.044  13.980  67.346  1.00  0.00    -0.296 NA 
HETATM    5  C   UNL     1      -8.871  14.935  67.756  1.00  0.00    -0.173 C  
HETATM    6  H2  UNL     1     -12.435  14.239  65.891  1.00  0.00     0.000 HD 
HETATM    7  H   UNL     1     -11.017  13.751  68.340  1.00  0.00     0.000 HD 
HETATM    8  O   UNL     1      -8.766  14.747  68.966  1.00  0.00    -0.183 OA 
HETATM    9  O   UNL     1      -7.784  14.861  66.959  1.00  0.00    -0.185 OA 
HETATM   10  N   UNL     1     -12.407  14.010  66.885  1.00  0.00    -0.533 NA 
HETATM   11  H1  UNL     1     -12.948  13.163  67.065  1.00  0.00     0.000 HD 
ENDROOT
BRANCH   3  12
HETATM   12  C   UNL     1     -10.086  17.761  67.638  1.00  0.00    -0.342 A  
HETATM   13  C   UNL     1     -10.358  18.632  66.569  1.00  0.00    -0.462 A  
HETATM   14  C   UNL     1      -9.606  19.794  66.419  1.00  0.00    -0.411 A  
HETATM   15  C   UNL     1      -8.599  20.106  67.329  1.00  0.00    -0.343 A  
HETATM   16  O   UNL     1      -9.813  20.661  65.381  1.00  0.00    -0.439 OA 
HETATM   17  H   UNL     1      -9.299  21.454  65.280  1.00  0.00     0.000 HD 
HETATM   18  C   UNL     1      -8.329  19.270  68.400  1.00  0.00    -0.383 A  
HETATM   19  O   UNL     1      -7.865  21.245  67.171  1.00  0.00    -0.713 OA 
HETATM   20  C   UNL     1      -9.073  18.098  68.555  1.00  0.00    -0.318 A  
HETATM   21  H   UNL     1      -7.178  21.458  67.793  1.00  0.00     0.000 HD 
ENDBRANCH   3  12
TORSDOF 1
ENDMDL
MODEL       38
REMARK 921   NORMALIZED FREE ENERGY PREDICTED BY IDOCK:   -6.12 KCAL/MOL
REMARK 922        TOTAL FREE ENERGY PREDICTED BY IDOCK:   -5.66 KCAL/MOL
REMARK 923 INTER-LIGAND FREE ENERGY PREDICTED BY IDOCK:   -5.84 KCAL/MOL
REMARK 924 INTRA-LIGAND FREE ENERGY PREDICTED BY IDOCK:    0.18 KCAL/MOL
REMARK 927      BINDING AFFINITY PREDICTED BY RF-SCORE:    0.00 PKD
ROOT
HETATM    1  C   UNL     1     -12.060  14.703  65.351  1.00  0.00    -0.250 C  
HETATM    2  C   UNL     1     -10.540  14.682  65.590  1.00  0.00    -0.332 C  
HETATM    3  C   UNL     1     -10.183  13.962  66.927  1.00  0.00    -0.257 C  
HETATM    4  N   UNL     1      -9.876  14.032  64.413  1.00  0.00    -0.569 NA 
HETATM    5  C   UNL     1      -9.893  16.102  65.645  1.00  0.00    -0.255 C  
HETATM    6  H2  UNL     1     -11.259  12.581  64.096  1.00  0.00     0.000 HD 
HETATM    7  H   UNL     1      -8.863  14.113  64.494  1.00  0.00     0.000 HD 
HETATM    8  O   UNL     1      -8.689  16.262  65.837  1.00  0.00    -0.380 OA 
HETATM    9  O   UNL     1     -10.696  17.168  65.440  1.00  0.00    -0.562 OA 
HETATM   10  N   UNL     1     -10.245  12.662  64.177  1.00  0.00    -0.529 NA 
HETATM   11  H1  UNL     1      -9.794  12.220  63.376  1.00  0.00     0.000 HD 
ENDROOT
BRANCH   3  12
HETATM   12  C   UNL     1     -10.763  14.591  68.182  1.00  0.00    -0.240 A  
HETATM   13  C   UNL     1     -11.856  14.002  68.840  1.00  0.00    -0.390 A  
HETATM   14  C   UNL     1     -12.395  14.618  69.966  1.00  0.00    -0.315 A  
HETATM   15  C   UNL     1     -11.849  15.803  70.452  1.00  0.00    -0.368 A  
HETATM   16  O   UNL     1     -13.474  14.100  70.627  1.00  0.00    -0.293 OA 
HETATM   17  H   UNL     1     -13.842  14.521  71.396  1.00  0.00     0.000 HD 
HETATM   18  C   UNL     1     -10.760  16.388  69.828  1.00  0.00    -0.324 A  
HETATM   19  O   UNL     1     -12.387  16.402  71.554  1.00  0.00    -0.551 OA 
HETATM   20  C   UNL     1     -10.215  15.781  68.694  1.00  0.00    -0.221 A  
HETATM   21  H   UNL     1     -12.014  17.211  71.885  1.00  0.00     0.000 HD 
ENDBRANCH   3  12
TORSDOF 1
ENDMDL
MODEL       39
REMARK 921   NORMALIZED FREE ENERGY PREDICTED BY IDOCK:   -6.09 KCAL/MOL
REMARK 922        TOTAL FREE ENERGY PREDICTED BY IDOCK:   -5.63 KCAL/MOL
REMARK 923 INTER-LIGAND FREE ENERGY PREDICTED BY IDOCK:   -5.65 KCAL/MOL
REMARK 924 INTRA-LIGAND FREE ENERGY PREDICTED BY IDOCK:    0.02 KCAL/MOL
REMARK 927      BINDING AFFINITY PREDICTED BY RF-SCORE:    0.00 PKD
ROOT
HETATM    1  C   UNL     1      -8.815   6.968  70.656  1.00  0.00    -0.150 C  
HETATM    2  C   UNL     1      -9.949   5.960  70.913  1.00  0.00    -0.187 C  
HETATM    3  C   UNL     1     -11.297   6.451  70.298  1.00  0.00    -0.468 C  
HETATM    4  N   UNL     1      -9.541   4.625  70.366  1.00  0.00    -0.181 NA 
HETATM    5  C   UNL     1     -10.210   5.679  72.426  1.00  0.00    -0.193 C  
HETATM    6  H2  UNL     1      -8.624   5.295  68.685  1.00  0.00     0.000 HD 
HETATM    7  H   UNL     1     -10.225   3.915  70.628  1.00  0.00     0.000 HD 
HETATM    8  O   UNL     1     -11.087   4.904  72.803  1.00  0.00    -0.238 OA 
HETATM    9  O   UNL     1      -9.412   6.291  73.327  1.00  0.00    -0.138 OA 
HETATM   10  N   UNL     1      -9.308   4.586  68.947  1.00  0.00    -0.135 NA 
HETATM   11  H1  UNL     1      -9.030   3.677  68.575  1.00  0.00     0.000 HD 
ENDROOT
BRANCH   3  12
HETATM   12  C   UNL     1     -11.820   7.769  70.840  1.00  0.00    -0.257 A  
HETATM   13  C   UNL     1     -12.771   7.791  71.875  1.00  0.00    -0.328 A  
HETATM   14  C   UNL     1     -13.265   9.011  72.328  1.00  0.00    -0.460 A  
HETATM   15  C   UNL     1     -12.813  10.206  71.775  1.00  0.00    -0.452 A  
HETATM   16  O   UNL     1     -14.210   9.087  73.315  1.00  0.00    -1.192 OA 
HETATM   17  H   UNL     1     -14.548   9.920  73.624  1.00  0.00     0.000 HD 
HETATM   18  C   UNL     1     -11.863  10.204  70.767  1.00  0.00    -0.443 A  
HETATM   19  O   UNL     1     -13.307  11.397  72.223  1.00  0.00    -0.629 OA 
HETATM   20  C   UNL     1     -11.365   8.986  70.301  1.00  0.00    -0.202 A  
HETATM   21  H   UNL     1     -12.999  12.212  71.845  1.00  0.00     0.000 HD 
ENDBRANCH   3  12
TORSDOF 1
ENDMDL
MODEL       40
REMARK 921   NORMALIZED FREE ENERGY PREDICTED BY IDOCK:   -6.09 KCAL/MOL
REMARK 922        TOTAL FREE ENERGY PREDICTED BY IDOCK:   -5.63 KCAL/MOL
REMARK 923 INTER-LIGAND FREE ENERGY PREDICTED BY IDOCK:   -5.66 KCAL/MOL
REMARK 924 INTRA-LIGAND FREE ENERGY PREDICTED BY IDOCK:    0.03 KCAL/MOL
REMARK 927      BINDING AFFINITY PREDICTED BY RF-SCORE:    0.00 PKD
ROOT
HETATM    1  C   UNL     1     -10.120  19.825  66.098  1.00  0.00    -0.600 C  
HETATM    2  C   UNL     1      -8.835  19.475  66.870  1.00  0.00    -0.314 C  
HETATM    3  C   UNL     1      -8.316  18.052  66.497  1.00  0.00    -0.293 C  
HETATM    4  N   UNL     1      -7.807  20.532  66.598  1.00  0.00    -0.513 NA 
HETATM    5  C   UNL     1      -9.004  19.511  68.422  1.00  0.00    -0.346 C  
HETATM    6  H2  UNL     1      -8.223  20.807  64.631  1.00  0.00     0.000 HD 
HETATM    7  H   UNL     1      -6.990  20.386  67.190  1.00  0.00     0.000 HD 
HETATM    8  O   UNL     1      -8.077  19.249  69.184  1.00  0.00    -0.295 OA 
HETATM    9  O   UNL     1     -10.207  19.877  68.915  1.00  0.00    -0.444 OA 
HETATM   10  N   UNL     1      -7.405  20.660  65.222  1.00  0.00    -0.505 NA 
HETATM   11  H1  UNL     1      -6.705  21.380  65.038  1.00  0.00     0.000 HD 
ENDROOT
BRANCH   3  12
HETATM   12  C   UNL     1      -9.270  16.910  66.798  1.00  0.00    -0.266 A  
HETATM   13  C   UNL     1      -9.220  16.240  68.032  1.00  0.00    -0.196 A  
HETATM   14  C   UNL     1     -10.079  15.169  68.269  1.00  0.00    -0.223 A  
HETATM   15  C   UNL     1     -10.994  14.770  67.300  1.00  0.00    -0.318 A  
HETATM   16  O   UNL     1     -10.052  14.468  69.443  1.00  0.00    -0.396 OA 
HETATM   17  H   UNL     1     -10.639  13.737  69.605  1.00  0.00     0.000 HD 
HETATM   18  C   UNL     1     -11.070  15.430  66.084  1.00  0.00    -0.230 A  
HETATM   19  O   UNL     1     -11.828  13.717  67.539  1.00  0.00    -0.351 OA 
HETATM   20  C   UNL     1     -10.209  16.501  65.834  1.00  0.00    -0.368 A  
HETATM   21  H   UNL     1     -12.453  13.445  66.877  1.00  0.00     0.000 HD 
ENDBRANCH   3  12
TORSDOF 1
ENDMDL
MODEL       41
REMARK 921   NORMALIZED FREE ENERGY PREDICTED BY IDOCK:   -6.04 KCAL/MOL
REMARK 922        TOTAL FREE ENERGY PREDICTED BY IDOCK:   -5.58 KCAL/MOL
REMARK 923 INTER-LIGAND FREE ENERGY PREDICTED BY IDOCK:   -6.39 KCAL/MOL
REMARK 924 INTRA-LIGAND FREE ENERGY PREDICTED BY IDOCK:    0.81 KCAL/MOL
REMARK 927      BINDING AFFINITY PREDICTED BY RF-SCORE:    0.00 PKD
ROOT
HETATM    1  C   UNL     1      -9.928  13.401  66.080  1.00  0.00    -0.299 C  
HETATM    2  C   UNL     1     -11.197  14.272  66.081  1.00  0.00    -0.331 C  
HETATM    3  C   UNL     1     -11.538  14.780  67.516  1.00  0.00    -0.379 C  
HETATM    4  N   UNL     1     -11.003  15.406  65.120  1.00  0.00    -0.399 NA 
HETATM    5  C   UNL     1     -12.464  13.537  65.540  1.00  0.00    -0.491 C  
HETATM    6  H2  UNL     1      -9.054  15.780  65.540  1.00  0.00     0.000 HD 
HETATM    7  H   UNL     1     -11.873  15.929  65.015  1.00  0.00     0.000 HD 
HETATM    8  O   UNL     1     -13.561  14.089  65.481  1.00  0.00    -0.596 OA 
HETATM    9  O   UNL     1     -12.316  12.270  65.098  1.00  0.00    -0.520 OA 
HETATM   10  N   UNL     1      -9.923  16.303  65.435  1.00  0.00    -0.521 NA 
HETATM   11  H1  UNL     1      -9.792  17.075  64.780  1.00  0.00     0.000 HD 
ENDROOT
BRANCH   3  12
HETATM   12  C   UNL     1     -11.812  13.697  68.544  1.00  0.00    -0.406 A  
HETATM   13  C   UNL     1     -12.369  14.018  69.794  1.00  0.00    -0.344 A  
HETATM   14  C   UNL     1     -12.574  13.013  70.735  1.00  0.00    -0.241 A  
HETATM   15  C   UNL     1     -12.247  11.692  70.441  1.00  0.00    -0.347 A  
HETATM   16  O   UNL     1     -13.089  13.277  71.975  1.00  0.00    -0.381 OA 
HETATM   17  H   UNL     1     -13.229  12.590  72.617  1.00  0.00     0.000 HD 
HETATM   18  C   UNL     1     -11.715  11.354  69.207  1.00  0.00    -0.404 A  
HETATM   19  O   UNL     1     -12.448  10.715  71.371  1.00  0.00    -0.368 OA 
HETATM   20  C   UNL     1     -11.499  12.355  68.259  1.00  0.00    -0.360 A  
HETATM   21  H   UNL     1     -12.224   9.813  71.170  1.00  0.00     0.000 HD 
ENDBRANCH   3  12
TORSDOF 1
ENDMDL
MODEL       42
REMARK 921   NORMALIZED FREE ENERGY PREDICTED BY IDOCK:   -5.98 KCAL/MOL
REMARK 922        TOTAL FREE ENERGY PREDICTED BY IDOCK:   -5.51 KCAL/MOL
REMARK 923 INTER-LIGAND FREE ENERGY PREDICTED BY IDOCK:   -5.57 KCAL/MOL
REMARK 924 INTRA-LIGAND FREE ENERGY PREDICTED BY IDOCK:    0.06 KCAL/MOL
REMARK 927      BINDING AFFINITY PREDICTED BY RF-SCORE:    0.00 PKD
ROOT
HETATM    1  C   UNL     1      -9.205  15.525  67.521  1.00  0.00    -0.200 C  
HETATM    2  C   UNL     1     -10.087  14.412  66.927  1.00  0.00    -0.259 C  
HETATM    3  C   UNL     1     -11.583  14.594  67.330  1.00  0.00    -0.404 C  
HETATM    4  N   UNL     1      -9.908  14.399  65.438  1.00  0.00    -0.541 NA 
HETATM    5  C   UNL     1      -9.665  12.974  67.365  1.00  0.00    -0.213 C  
HETATM    6  H2  UNL     1      -9.822  16.408  65.163  1.00  0.00     0.000 HD 
HETATM    7  H   UNL     1     -10.390  13.596  65.035  1.00  0.00     0.000 HD 
HETATM    8  O   UNL     1     -10.270  11.974  66.986  1.00  0.00    -0.202 OA 
HETATM    9  O   UNL     1      -8.578  12.851  68.157  1.00  0.00    -0.177 OA 
HETATM   10  N   UNL     1     -10.304  15.605  64.760  1.00  0.00    -0.581 NA 
HETATM   11  H1  UNL     1     -10.182  15.595  63.746  1.00  0.00     0.000 HD 
ENDROOT
BRANCH   3  12
HETATM   12  C   UNL     1     -11.867  14.557  68.821  1.00  0.00    -0.350 A  
HETATM   13  C   UNL     1     -11.784  15.726  69.596  1.00  0.00    -0.363 A  
HETATM   14  C   UNL     1     -12.009  15.660  70.968  1.00  0.00    -0.400 A  
HETATM   15  C   UNL     1     -12.333  14.448  71.573  1.00  0.00    -0.353 A  
HETATM   16  O   UNL     1     -11.915  16.763  71.771  1.00  0.00    -0.545 OA 
HETATM   17  H   UNL     1     -12.069  16.717  72.708  1.00  0.00     0.000 HD 
HETATM   18  C   UNL     1     -12.438  13.289  70.822  1.00  0.00    -0.403 A  
HETATM   19  O   UNL     1     -12.548  14.392  72.919  1.00  0.00    -0.333 OA 
HETATM   20  C   UNL     1     -12.207  13.344  69.446  1.00  0.00    -0.246 A  
HETATM   21  H   UNL     1     -12.769  13.565  73.331  1.00  0.00     0.000 HD 
ENDBRANCH   3  12
TORSDOF 1
ENDMDL
MODEL       43
REMARK 921   NORMALIZED FREE ENERGY PREDICTED BY IDOCK:   -5.96 KCAL/MOL
REMARK 922        TOTAL FREE ENERGY PREDICTED BY IDOCK:   -5.49 KCAL/MOL
REMARK 923 INTER-LIGAND FREE ENERGY PREDICTED BY IDOCK:   -5.67 KCAL/MOL
REMARK 924 INTRA-LIGAND FREE ENERGY PREDICTED BY IDOCK:    0.18 KCAL/MOL
REMARK 927      BINDING AFFINITY PREDICTED BY RF-SCORE:    0.00 PKD
ROOT
HETATM    1  C   UNL     1     -10.910  16.762  67.224  1.00  0.00    -0.137 C  
HETATM    2  C   UNL     1     -10.186  17.659  66.204  1.00  0.00    -0.343 C  
HETATM    3  C   UNL     1      -8.685  17.259  66.056  1.00  0.00    -0.125 C  
HETATM    4  N   UNL     1     -10.914  17.585  64.895  1.00  0.00    -0.827 NA 
HETATM    5  C   UNL     1     -10.223  19.178  66.565  1.00  0.00    -0.429 C  
HETATM    6  H2  UNL     1     -11.353  15.605  64.947  1.00  0.00     0.000 HD 
HETATM    7  H   UNL     1     -10.523  18.261  64.238  1.00  0.00     0.000 HD 
HETATM    8  O   UNL     1      -9.686  20.028  65.859  1.00  0.00    -0.411 OA 
HETATM    9  O   UNL     1     -10.902  19.545  67.673  1.00  0.00    -0.444 OA 
HETATM   10  N   UNL     1     -10.962  16.280  64.290  1.00  0.00    -1.114 NA 
HETATM   11  H1  UNL     1     -11.458  16.230  63.399  1.00  0.00     0.000 HD 
ENDROOT
BRANCH   3  12
HETATM   12  C   UNL     1      -7.854  17.364  67.322  1.00  0.00    -0.218 A  
HETATM   13  C   UNL     1      -7.487  18.620  67.837  1.00  0.00    -0.254 A  
HETATM   14  C   UNL     1      -6.691  18.690  68.976  1.00  0.00    -0.276 A  
HETATM   15  C   UNL     1      -6.271  17.528  69.618  1.00  0.00    -0.227 A  
HETATM   16  O   UNL     1      -6.284  19.886  69.502  1.00  0.00    -0.293 OA 
HETATM   17  H   UNL     1      -5.741  19.933  70.280  1.00  0.00     0.000 HD 
HETATM   18  C   UNL     1      -6.638  16.282  69.136  1.00  0.00    -0.185 A  
HETATM   19  O   UNL     1      -5.487  17.607  70.731  1.00  0.00    -0.248 OA 
HETATM   20  C   UNL     1      -7.431  16.200  67.989  1.00  0.00    -0.141 A  
HETATM   21  H   UNL     1      -5.200  16.814  71.169  1.00  0.00     0.000 HD 
ENDBRANCH   3  12
TORSDOF 1
ENDMDL
MODEL       44
REMARK 921   NORMALIZED FREE ENERGY PREDICTED BY IDOCK:   -5.94 KCAL/MOL
REMARK 922        TOTAL FREE ENERGY PREDICTED BY IDOCK:   -5.47 KCAL/MOL
REMARK 923 INTER-LIGAND FREE ENERGY PREDICTED BY IDOCK:   -5.56 KCAL/MOL
REMARK 924 INTRA-LIGAND FREE ENERGY PREDICTED BY IDOCK:    0.10 KCAL/MOL
REMARK 927      BINDING AFFINITY PREDICTED BY RF-SCORE:    0.00 PKD
ROOT
HETATM    1  C   UNL     1      -9.948  14.283  67.175  1.00  0.00    -0.255 C  
HETATM    2  C   UNL     1     -11.371  13.900  66.731  1.00  0.00    -0.333 C  
HETATM    3  C   UNL     1     -11.543  12.352  66.647  1.00  0.00    -0.447 C  
HETATM    4  N   UNL     1     -12.354  14.520  67.678  1.00  0.00    -0.585 NA 
HETATM    5  C   UNL     1     -11.774  14.484  65.340  1.00  0.00    -0.354 C  
HETATM    6  H2  UNL     1     -11.299  14.228  69.386  1.00  0.00     0.000 HD 
HETATM    7  H   UNL     1     -13.305  14.378  67.337  1.00  0.00     0.000 HD 
HETATM    8  O   UNL     1     -12.874  14.265  64.837  1.00  0.00    -0.680 OA 
HETATM    9  O   UNL     1     -10.883  15.277  64.708  1.00  0.00    -0.411 OA 
HETATM   10  N   UNL     1     -12.250  14.086  69.046  1.00  0.00    -0.494 NA 
HETATM   11  H1  UNL     1     -12.919  14.508  69.690  1.00  0.00     0.000 HD 
ENDROOT
BRANCH   3  12
HETATM   12  C   UNL     1     -10.628  11.645  65.664  1.00  0.00    -0.324 A  
HETATM   13  C   UNL     1      -9.413  11.082  66.091  1.00  0.00    -0.230 A  
HETATM   14  C   UNL     1      -8.573  10.474  65.163  1.00  0.00    -0.180 A  
HETATM   15  C   UNL     1      -8.934  10.406  63.820  1.00  0.00    -0.229 A  
HETATM   16  O   UNL     1      -7.368   9.935  65.523  1.00  0.00    -0.110 OA 
HETATM   17  H   UNL     1      -6.795   9.519  64.889  1.00  0.00     0.000 HD 
HETATM   18  C   UNL     1     -10.136  10.939  63.384  1.00  0.00    -0.398 A  
HETATM   19  O   UNL     1      -8.101   9.812  62.917  1.00  0.00    -0.126 OA 
HETATM   20  C   UNL     1     -10.984  11.557  64.305  1.00  0.00    -0.406 A  
HETATM   21  H   UNL     1      -8.348   9.766  62.001  1.00  0.00     0.000 HD 
ENDBRANCH   3  12
TORSDOF 1
ENDMDL
MODEL       45
REMARK 921   NORMALIZED FREE ENERGY PREDICTED BY IDOCK:   -5.92 KCAL/MOL
REMARK 922        TOTAL FREE ENERGY PREDICTED BY IDOCK:   -5.45 KCAL/MOL
REMARK 923 INTER-LIGAND FREE ENERGY PREDICTED BY IDOCK:   -5.58 KCAL/MOL
REMARK 924 INTRA-LIGAND FREE ENERGY PREDICTED BY IDOCK:    0.13 KCAL/MOL
REMARK 927      BINDING AFFINITY PREDICTED BY RF-SCORE:    0.00 PKD
ROOT
HETATM    1  C   UNL     1      -9.470  14.578  66.680  1.00  0.00    -0.301 C  
HETATM    2  C   UNL     1     -10.386  13.717  65.791  1.00  0.00    -0.307 C  
HETATM    3  C   UNL     1     -11.823  13.610  66.389  1.00  0.00    -0.433 C  
HETATM    4  N   UNL     1     -10.399  14.297  64.408  1.00  0.00    -0.600 NA 
HETATM    5  C   UNL     1      -9.867  12.260  65.578  1.00  0.00    -0.206 C  
HETATM    6  H2  UNL     1     -10.411  16.255  64.942  1.00  0.00     0.000 HD 
HETATM    7  H   UNL     1     -10.904  13.679  63.774  1.00  0.00     0.000 HD 
HETATM    8  O   UNL     1     -10.485  11.442  64.901  1.00  0.00    -0.276 OA 
HETATM    9  O   UNL     1      -8.684  11.925  66.137  1.00  0.00    -0.133 OA 
HETATM   10  N   UNL     1     -10.916  15.637  64.308  1.00  0.00    -0.780 NA 
HETATM   11  H1  UNL     1     -10.925  16.032  63.366  1.00  0.00     0.000 HD 
ENDROOT
BRANCH   3  12
HETATM   12  C   UNL     1     -11.912  12.975  67.765  1.00  0.00    -0.344 A  
HETATM   13  C   UNL     1     -12.034  13.771  68.916  1.00  0.00    -0.394 A  
HETATM   14  C   UNL     1     -12.074  13.167  70.170  1.00  0.00    -0.321 A  
HETATM   15  C   UNL     1     -12.010  11.781  70.288  1.00  0.00    -0.343 A  
HETATM   16  O   UNL     1     -12.165  13.898  71.322  1.00  0.00    -0.345 OA 
HETATM   17  H   UNL     1     -12.192  13.485  72.178  1.00  0.00     0.000 HD 
HETATM   18  C   UNL     1     -11.909  10.979  69.164  1.00  0.00    -0.407 A  
HETATM   19  O   UNL     1     -12.045  11.199  71.522  1.00  0.00    -0.132 OA 
HETATM   20  C   UNL     1     -11.861  11.575  67.902  1.00  0.00    -0.255 A  
HETATM   21  H   UNL     1     -12.002  10.253  71.602  1.00  0.00     0.000 HD 
ENDBRANCH   3  12
TORSDOF 1
ENDMDL
MODEL       46
REMARK 921   NORMALIZED FREE ENERGY PREDICTED BY IDOCK:   -5.89 KCAL/MOL
REMARK 922        TOTAL FREE ENERGY PREDICTED BY IDOCK:   -5.42 KCAL/MOL
REMARK 923 INTER-LIGAND FREE ENERGY PREDICTED BY IDOCK:   -5.50 KCAL/MOL
REMARK 924 INTRA-LIGAND FREE ENERGY PREDICTED BY IDOCK:    0.08 KCAL/MOL
REMARK 927      BINDING AFFINITY PREDICTED BY RF-SCORE:    0.00 PKD
ROOT
HETATM    1  C   UNL     1      -8.839   7.722  69.164  1.00  0.00    -0.138 C  
HETATM    2  C   UNL     1      -9.197   9.072  68.519  1.00  0.00    -0.136 C  
HETATM    3  C   UNL     1      -9.503  10.156  69.599  1.00  0.00    -0.226 C  
HETATM    4  N   UNL     1      -8.075   9.487  67.615  1.00  0.00    -0.109 NA 
HETATM    5  C   UNL     1     -10.435   9.007  67.569  1.00  0.00    -0.272 C  
HETATM    6  H2  UNL     1      -6.543   8.865  68.792  1.00  0.00     0.000 HD 
HETATM    7  H   UNL     1      -8.339  10.319  67.088  1.00  0.00     0.000 HD 
HETATM    8  O   UNL     1     -10.857  10.000  66.981  1.00  0.00    -0.215 OA 
HETATM    9  O   UNL     1     -11.019   7.805  67.380  1.00  0.00    -0.189 OA 
HETATM   10  N   UNL     1      -6.807   9.697  68.264  1.00  0.00    -0.068 NA 
HETATM   11  H1  UNL     1      -6.044   9.979  67.649  1.00  0.00     0.000 HD 
ENDROOT
BRANCH   3  12
HETATM   12  C   UNL     1     -10.669   9.848  70.521  1.00  0.00    -0.382 A  
HETATM   13  C   UNL     1     -10.547   8.879  71.533  1.00  0.00    -0.399 A  
HETATM   14  C   UNL     1     -11.642   8.586  72.340  1.00  0.00    -0.354 A  
HETATM   15  C   UNL     1     -12.850   9.255  72.164  1.00  0.00    -0.408 A  
HETATM   16  O   UNL     1     -11.583   7.633  73.321  1.00  0.00    -0.643 OA 
HETATM   17  H   UNL     1     -12.331   7.434  73.872  1.00  0.00     0.000 HD 
HETATM   18  C   UNL     1     -12.983  10.226  71.184  1.00  0.00    -0.503 A  
HETATM   19  O   UNL     1     -13.919   8.957  72.957  1.00  0.00    -1.022 OA 
HETATM   20  C   UNL     1     -11.893  10.523  70.364  1.00  0.00    -0.431 A  
HETATM   21  H   UNL     1     -14.743   9.414  72.836  1.00  0.00     0.000 HD 
ENDBRANCH   3  12
TORSDOF 1
ENDMDL
MODEL       47
REMARK 921   NORMALIZED FREE ENERGY PREDICTED BY IDOCK:   -5.87 KCAL/MOL
REMARK 922        TOTAL FREE ENERGY PREDICTED BY IDOCK:   -5.40 KCAL/MOL
REMARK 923 INTER-LIGAND FREE ENERGY PREDICTED BY IDOCK:   -5.49 KCAL/MOL
REMARK 924 INTRA-LIGAND FREE ENERGY PREDICTED BY IDOCK:    0.09 KCAL/MOL
REMARK 927      BINDING AFFINITY PREDICTED BY RF-SCORE:    0.00 PKD
ROOT
HETATM    1  C   UNL     1     -10.059  15.347  66.927  1.00  0.00    -0.258 C  
HETATM    2  C   UNL     1     -10.097  13.832  66.657  1.00  0.00    -0.277 C  
HETATM    3  C   UNL     1     -11.487  13.223  67.021  1.00  0.00    -0.378 C  
HETATM    4  N   UNL     1      -9.740  13.589  65.222  1.00  0.00    -0.541 NA 
HETATM    5  C   UNL     1      -9.020  13.025  67.450  1.00  0.00    -0.204 C  
HETATM    6  H2  UNL     1     -10.732  15.172  64.430  1.00  0.00     0.000 HD 
HETATM    7  H   UNL     1      -9.643  12.588  65.049  1.00  0.00     0.000 HD 
HETATM    8  O   UNL     1      -8.921  11.804  67.355  1.00  0.00    -0.164 OA 
HETATM    9  O   UNL     1      -8.164  13.718  68.231  1.00  0.00    -0.143 OA 
HETATM   10  N   UNL     1     -10.635  14.171  64.257  1.00  0.00    -0.531 NA 
HETATM   11  H1  UNL     1     -10.392  14.006  63.280  1.00  0.00     0.000 HD 
ENDROOT
BRANCH   3  12
HETATM   12  C   UNL     1     -11.903  13.368  68.474  1.00  0.00    -0.401 A  
HETATM   13  C   UNL     1     -12.280  14.619  68.991  1.00  0.00    -0.199 A  
HETATM   14  C   UNL     1     -12.620  14.734  70.336  1.00  0.00    -0.346 A  
HETATM   15  C   UNL     1     -12.604  13.617  71.166  1.00  0.00    -0.371 A  
HETATM   16  O   UNL     1     -12.968  15.933  70.894  1.00  0.00    -0.565 OA 
HETATM   17  H   UNL     1     -13.200  16.011  71.812  1.00  0.00     0.000 HD 
HETATM   18  C   UNL     1     -12.253  12.372  70.670  1.00  0.00    -0.368 A  
HETATM   19  O   UNL     1     -12.934  13.740  72.484  1.00  0.00    -0.381 OA 
HETATM   20  C   UNL     1     -11.904  12.247  69.324  1.00  0.00    -0.363 A  
HETATM   21  H   UNL     1     -12.923  12.977  73.051  1.00  0.00     0.000 HD 
ENDBRANCH   3  12
TORSDOF 1
ENDMDL
MODEL       48
REMARK 921   NORMALIZED FREE ENERGY PREDICTED BY IDOCK:   -5.84 KCAL/MOL
REMARK 922        TOTAL FREE ENERGY PREDICTED BY IDOCK:   -5.37 KCAL/MOL
REMARK 923 INTER-LIGAND FREE ENERGY PREDICTED BY IDOCK:   -6.08 KCAL/MOL
REMARK 924 INTRA-LIGAND FREE ENERGY PREDICTED BY IDOCK:    0.72 KCAL/MOL
REMARK 927      BINDING AFFINITY PREDICTED BY RF-SCORE:    0.00 PKD
ROOT
HETATM    1  C   UNL     1      -9.478  12.262  67.746  1.00  0.00    -0.197 C  
HETATM    2  C   UNL     1     -10.437  13.451  67.560  1.00  0.00    -0.236 C  
HETATM    3  C   UNL     1     -10.899  14.031  68.933  1.00  0.00    -0.278 C  
HETATM    4  N   UNL     1      -9.760  14.490  66.716  1.00  0.00    -0.250 NA 
HETATM    5  C   UNL     1     -11.726  13.099  66.752  1.00  0.00    -0.385 C  
HETATM    6  H2  UNL     1      -7.901  14.307  67.511  1.00  0.00     0.000 HD 
HETATM    7  H   UNL     1     -10.417  15.233  66.482  1.00  0.00     0.000 HD 
HETATM    8  O   UNL     1     -12.598  13.933  66.522  1.00  0.00    -0.384 OA 
HETATM    9  O   UNL     1     -11.845  11.842  66.275  1.00  0.00    -0.501 OA 
HETATM   10  N   UNL     1      -8.559  15.051  67.277  1.00  0.00    -0.192 NA 
HETATM   11  H1  UNL     1      -8.098  15.757  66.702  1.00  0.00     0.000 HD 
ENDROOT
BRANCH   3  12
HETATM   12  C   UNL     1     -11.651  13.064  69.830  1.00  0.00    -0.286 A  
HETATM   13  C   UNL     1     -12.454  13.538  70.881  1.00  0.00    -0.448 A  
HETATM   14  C   UNL     1     -13.102  12.630  71.715  1.00  0.00    -0.360 A  
HETATM   15  C   UNL     1     -12.974  11.261  71.503  1.00  0.00    -0.415 A  
HETATM   16  O   UNL     1     -13.874  13.039  72.768  1.00  0.00    -0.733 OA 
HETATM   17  H   UNL     1     -14.316  12.419  73.336  1.00  0.00     0.000 HD 
HETATM   18  C   UNL     1     -12.202  10.775  70.460  1.00  0.00    -0.457 A  
HETATM   19  O   UNL     1     -13.610  10.379  72.328  1.00  0.00    -0.558 OA 
HETATM   20  C   UNL     1     -11.542  11.677  69.622  1.00  0.00    -0.401 A  
HETATM   21  H   UNL     1     -13.522   9.444  72.183  1.00  0.00     0.000 HD 
ENDBRANCH   3  12
TORSDOF 1
ENDMDL
MODEL       49
REMARK 921   NORMALIZED FREE ENERGY PREDICTED BY IDOCK:   -5.84 KCAL/MOL
REMARK 922        TOTAL FREE ENERGY PREDICTED BY IDOCK:   -5.36 KCAL/MOL
REMARK 923 INTER-LIGAND FREE ENERGY PREDICTED BY IDOCK:   -5.38 KCAL/MOL
REMARK 924 INTRA-LIGAND FREE ENERGY PREDICTED BY IDOCK:    0.02 KCAL/MOL
REMARK 927      BINDING AFFINITY PREDICTED BY RF-SCORE:    0.00 PKD
ROOT
HETATM    1  C   UNL     1     -10.895   9.993  68.913  1.00  0.00    -0.250 C  
HETATM    2  C   UNL     1      -9.568   9.721  68.183  1.00  0.00    -0.143 C  
HETATM    3  C   UNL     1      -9.124  10.950  67.330  1.00  0.00    -0.146 C  
HETATM    4  N   UNL     1      -8.529   9.342  69.196  1.00  0.00    -0.128 NA 
HETATM    5  C   UNL     1      -9.619   8.490  67.224  1.00  0.00    -0.171 C  
HETATM    6  H2  UNL     1      -9.082  10.651  70.645  1.00  0.00     0.000 HD 
HETATM    7  H   UNL     1      -7.675   9.043  68.726  1.00  0.00     0.000 HD 
HETATM    8  O   UNL     1      -8.646   8.142  66.559  1.00  0.00    -0.127 OA 
HETATM    9  O   UNL     1     -10.769   7.784  67.167  1.00  0.00    -0.333 OA 
HETATM   10  N   UNL     1      -8.227  10.352  70.175  1.00  0.00    -0.372 NA 
HETATM   11  H1  UNL     1      -7.520  10.093  70.865  1.00  0.00     0.000 HD 
ENDROOT
BRANCH   3  12
HETATM   12  C   UNL     1     -10.090  11.367  66.235  1.00  0.00    -0.263 A  
HETATM   13  C   UNL     1      -9.913  10.919  64.914  1.00  0.00    -0.361 A  
HETATM   14  C   UNL     1     -10.788  11.347  63.920  1.00  0.00    -0.393 A  
HETATM   15  C   UNL     1     -11.844  12.200  64.227  1.00  0.00    -0.378 A  
HETATM   16  O   UNL     1     -10.644  10.962  62.615  1.00  0.00    -0.761 OA 
HETATM   17  H   UNL     1     -11.242  11.255  61.936  1.00  0.00     0.000 HD 
HETATM   18  C   UNL     1     -12.045  12.637  65.527  1.00  0.00    -0.515 A  
HETATM   19  O   UNL     1     -12.694  12.618  63.245  1.00  0.00    -0.669 OA 
HETATM   20  C   UNL     1     -11.169  12.219  66.531  1.00  0.00    -0.373 A  
HETATM   21  H   UNL     1     -13.415  13.201  63.455  1.00  0.00     0.000 HD 
ENDBRANCH   3  12
TORSDOF 1
ENDMDL
MODEL       50
REMARK 921   NORMALIZED FREE ENERGY PREDICTED BY IDOCK:   -5.82 KCAL/MOL
REMARK 922        TOTAL FREE ENERGY PREDICTED BY IDOCK:   -5.34 KCAL/MOL
REMARK 923 INTER-LIGAND FREE ENERGY PREDICTED BY IDOCK:   -5.68 KCAL/MOL
REMARK 924 INTRA-LIGAND FREE ENERGY PREDICTED BY IDOCK:    0.33 KCAL/MOL
REMARK 927      BINDING AFFINITY PREDICTED BY RF-SCORE:    0.00 PKD
ROOT
HETATM    1  C   UNL     1     -10.274  13.615  68.697  1.00  0.00    -0.199 C  
HETATM    2  C   UNL     1      -9.904  14.889  67.917  1.00  0.00    -0.214 C  
HETATM    3  C   UNL     1     -11.015  15.272  66.891  1.00  0.00    -0.315 C  
HETATM    4  N   UNL     1      -9.644  15.995  68.895  1.00  0.00    -0.223 NA 
HETATM    5  C   UNL     1      -8.565  14.773  67.122  1.00  0.00    -0.226 C  
HETATM    6  H2  UNL     1     -11.125  15.543  70.207  1.00  0.00     0.000 HD 
HETATM    7  H   UNL     1      -9.283  16.816  68.409  1.00  0.00     0.000 HD 
HETATM    8  O   UNL     1      -8.130  15.698  66.441  1.00  0.00    -0.215 OA 
HETATM    9  O   UNL     1      -7.866  13.622  67.232  1.00  0.00    -0.159 OA 
HETATM   10  N   UNL     1     -10.764  16.364  69.720  1.00  0.00    -0.334 NA 
HETATM   11  H1  UNL     1     -10.587  17.117  70.386  1.00  0.00     0.000 HD 
ENDROOT
BRANCH   3  12
HETATM   12  C   UNL     1     -11.302  14.233  65.821  1.00  0.00    -0.326 A  
HETATM   13  C   UNL     1     -10.312  13.866  64.894  1.00  0.00    -0.430 A  
HETATM   14  C   UNL     1     -10.611  12.941  63.898  1.00  0.00    -0.336 A  
HETATM   15  C   UNL     1     -11.877  12.366  63.825  1.00  0.00    -0.502 A  
HETATM   16  O   UNL     1      -9.691  12.569  62.956  1.00  0.00    -0.397 OA 
HETATM   17  H   UNL     1      -9.896  11.937  62.277  1.00  0.00     0.000 HD 
HETATM   18  C   UNL     1     -12.860  12.702  64.741  1.00  0.00    -0.349 A  
HETATM   19  O   UNL     1     -12.162  11.464  62.842  1.00  0.00    -0.940 OA 
HETATM   20  C   UNL     1     -12.572  13.635  65.740  1.00  0.00    -0.511 A  
HETATM   21  H   UNL     1     -13.026  11.072  62.792  1.00  0.00     0.000 HD 
ENDBRANCH   3  12
TORSDOF 1
ENDMDL
MODEL       51
REMARK 921   NORMALIZED FREE ENERGY PREDICTED BY IDOCK:   -5.78 KCAL/MOL
REMARK 922        TOTAL FREE ENERGY PREDICTED BY IDOCK:   -5.30 KCAL/MOL
REMARK 923 INTER-LIGAND FREE ENERGY PREDICTED BY IDOCK:   -5.38 KCAL/MOL
REMARK 924 INTRA-LIGAND FREE ENERGY PREDICTED BY IDOCK:    0.08 KCAL/MOL
REMARK 927      BINDING AFFINITY PREDICTED BY RF-SCORE:    0.00 PKD
ROOT
HETATM    1  C   UNL     1     -12.500  13.486  66.318  1.00  0.00    -0.384 C  
HETATM    2  C   UNL     1     -11.183  12.740  66.594  1.00  0.00    -0.301 C  
HETATM    3  C   UNL     1     -10.311  13.493  67.646  1.00  0.00    -0.239 C  
HETATM    4  N   UNL     1     -11.503  11.343  67.034  1.00  0.00    -0.487 NA 
HETATM    5  C   UNL     1     -10.297  12.537  65.324  1.00  0.00    -0.287 C  
HETATM    6  H2  UNL     1     -13.121  11.788  68.175  1.00  0.00     0.000 HD 
HETATM    7  H   UNL     1     -10.647  10.794  67.109  1.00  0.00     0.000 HD 
HETATM    8  O   UNL     1      -9.210  11.966  65.374  1.00  0.00    -0.109 OA 
HETATM    9  O   UNL     1     -10.779  12.979  64.144  1.00  0.00    -0.389 OA 
HETATM   10  N   UNL     1     -12.264  11.239  68.251  1.00  0.00    -0.635 NA 
HETATM   11  H1  UNL     1     -12.483  10.288  68.550  1.00  0.00     0.000 HD 
ENDROOT
BRANCH   3  12
HETATM   12  C   UNL     1      -9.885  14.898  67.256  1.00  0.00    -0.229 A  
HETATM   13  C   UNL     1     -10.670  16.009  67.609  1.00  0.00    -0.320 A  
HETATM   14  C   UNL     1     -10.279  17.283  67.205  1.00  0.00    -0.320 A  
HETATM   15  C   UNL     1      -9.111  17.464  66.471  1.00  0.00    -0.266 A  
HETATM   16  O   UNL     1     -11.021  18.394  67.500  1.00  0.00    -0.354 OA 
HETATM   17  H   UNL     1     -10.754  19.263  67.224  1.00  0.00     0.000 HD 
HETATM   18  C   UNL     1      -8.315  16.382  66.130  1.00  0.00    -0.291 A  
HETATM   19  O   UNL     1      -8.739  18.716  66.076  1.00  0.00    -0.491 OA 
HETATM   20  C   UNL     1      -8.701  15.099  66.524  1.00  0.00    -0.280 A  
HETATM   21  H   UNL     1      -7.941  18.839  65.575  1.00  0.00     0.000 HD 
ENDBRANCH   3  12
TORSDOF 1
ENDMDL
MODEL       52
REMARK 921   NORMALIZED FREE ENERGY PREDICTED BY IDOCK:   -5.78 KCAL/MOL
REMARK 922        TOTAL FREE ENERGY PREDICTED BY IDOCK:   -5.30 KCAL/MOL
REMARK 923 INTER-LIGAND FREE ENERGY PREDICTED BY IDOCK:   -5.36 KCAL/MOL
REMARK 924 INTRA-LIGAND FREE ENERGY PREDICTED BY IDOCK:    0.06 KCAL/MOL
REMARK 927      BINDING AFFINITY PREDICTED BY RF-SCORE:    0.00 PKD
ROOT
HETATM    1  C   UNL     1      -7.926  16.845  66.230  1.00  0.00    -0.350 C  
HETATM    2  C   UNL     1      -8.874  17.171  67.397  1.00  0.00    -0.212 C  
HETATM    3  C   UNL     1      -9.343  15.875  68.130  1.00  0.00    -0.198 C  
HETATM    4  N   UNL     1      -8.182  18.119  68.330  1.00  0.00    -0.297 NA 
HETATM    5  C   UNL     1     -10.160  17.945  66.966  1.00  0.00    -0.340 C  
HETATM    6  H2  UNL     1      -6.332  17.292  68.224  1.00  0.00     0.000 HD 
HETATM    7  H   UNL     1      -8.832  18.441  69.048  1.00  0.00     0.000 HD 
HETATM    8  O   UNL     1     -11.024  18.275  67.775  1.00  0.00    -0.321 OA 
HETATM    9  O   UNL     1     -10.285  18.280  65.664  1.00  0.00    -0.573 OA 
HETATM   10  N   UNL     1      -6.981  17.614  68.942  1.00  0.00    -0.245 NA 
HETATM   11  H1  UNL     1      -6.510  18.259  69.577  1.00  0.00     0.000 HD 
ENDROOT
BRANCH   3  12
HETATM   12  C   UNL     1     -10.110  14.883  67.274  1.00  0.00    -0.235 A  
HETATM   13  C   UNL     1      -9.431  13.918  66.510  1.00  0.00    -0.288 A  
HETATM   14  C   UNL     1     -10.155  13.045  65.703  1.00  0.00    -0.268 A  
HETATM   15  C   UNL     1     -11.545  13.111  65.660  1.00  0.00    -0.338 A  
HETATM   16  O   UNL     1      -9.540  12.106  64.921  1.00  0.00    -0.439 OA 
HETATM   17  H   UNL     1     -10.035  11.510  64.370  1.00  0.00     0.000 HD 
HETATM   18  C   UNL     1     -12.233  14.043  66.420  1.00  0.00    -0.492 A  
HETATM   19  O   UNL     1     -12.245  12.254  64.862  1.00  0.00    -0.410 OA 
HETATM   20  C   UNL     1     -11.516  14.928  67.228  1.00  0.00    -0.350 A  
HETATM   21  H   UNL     1     -13.194  12.299  64.833  1.00  0.00     0.000 HD 
ENDBRANCH   3  12
TORSDOF 1
ENDMDL
MODEL       53
REMARK 921   NORMALIZED FREE ENERGY PREDICTED BY IDOCK:   -5.77 KCAL/MOL
REMARK 922        TOTAL FREE ENERGY PREDICTED BY IDOCK:   -5.29 KCAL/MOL
REMARK 923 INTER-LIGAND FREE ENERGY PREDICTED BY IDOCK:   -5.32 KCAL/MOL
REMARK 924 INTRA-LIGAND FREE ENERGY PREDICTED BY IDOCK:    0.04 KCAL/MOL
REMARK 927      BINDING AFFINITY PREDICTED BY RF-SCORE:    0.00 PKD
ROOT
HETATM    1  C   UNL     1      -9.665  12.629  66.510  1.00  0.00    -0.256 C  
HETATM    2  C   UNL     1     -10.719  13.285  65.601  1.00  0.00    -0.282 C  
HETATM    3  C   UNL     1     -10.169  14.585  64.937  1.00  0.00    -0.338 C  
HETATM    4  N   UNL     1     -11.166  12.283  64.580  1.00  0.00    -0.312 NA 
HETATM    5  C   UNL     1     -12.037  13.671  66.344  1.00  0.00    -0.433 C  
HETATM    6  H2  UNL     1      -9.355  11.435  64.230  1.00  0.00     0.000 HD 
HETATM    7  H   UNL     1     -11.947  12.656  64.041  1.00  0.00     0.000 HD 
HETATM    8  O   UNL     1     -12.977  14.212  65.765  1.00  0.00    -0.492 OA 
HETATM    9  O   UNL     1     -12.135  13.360  67.654  1.00  0.00    -0.342 OA 
HETATM   10  N   UNL     1     -10.137  11.809  63.692  1.00  0.00    -0.381 NA 
HETATM   11  H1  UNL     1     -10.441  11.126  62.996  1.00  0.00     0.000 HD 
ENDROOT
BRANCH   3  12
HETATM   12  C   UNL     1      -9.750  15.683  65.899  1.00  0.00    -0.388 A  
HETATM   13  C   UNL     1     -10.556  16.819  66.085  1.00  0.00    -0.212 A  
HETATM   14  C   UNL     1     -10.132  17.831  66.942  1.00  0.00    -0.342 A  
HETATM   15  C   UNL     1      -8.925  17.717  67.626  1.00  0.00    -0.249 A  
HETATM   16  O   UNL     1     -10.866  18.968  67.137  1.00  0.00    -0.462 OA 
HETATM   17  H   UNL     1     -10.576  19.659  67.723  1.00  0.00     0.000 HD 
HETATM   18  C   UNL     1      -8.126  16.596  67.469  1.00  0.00    -0.184 A  
HETATM   19  O   UNL     1      -8.515  18.716  68.460  1.00  0.00    -0.327 OA 
HETATM   20  C   UNL     1      -8.539  15.578  66.607  1.00  0.00    -0.325 A  
HETATM   21  H   UNL     1      -7.692  18.638  68.927  1.00  0.00     0.000 HD 
ENDBRANCH   3  12
TORSDOF 1
ENDMDL
MODEL       54
REMARK 921   NORMALIZED FREE ENERGY PREDICTED BY IDOCK:   -5.77 KCAL/MOL
REMARK 922        TOTAL FREE ENERGY PREDICTED BY IDOCK:   -5.29 KCAL/MOL
REMARK 923 INTER-LIGAND FREE ENERGY PREDICTED BY IDOCK:   -5.37 KCAL/MOL
REMARK 924 INTRA-LIGAND FREE ENERGY PREDICTED BY IDOCK:    0.08 KCAL/MOL
REMARK 927      BINDING AFFINITY PREDICTED BY RF-SCORE:    0.00 PKD
ROOT
HETATM    1  C   UNL     1      -9.319  18.519  68.725  1.00  0.00    -0.317 C  
HETATM    2  C   UNL     1      -8.915  18.648  67.245  1.00  0.00    -0.274 C  
HETATM    3  C   UNL     1     -10.067  18.188  66.298  1.00  0.00    -0.373 C  
HETATM    4  N   UNL     1      -8.507  20.066  66.979  1.00  0.00    -0.320 NA 
HETATM    5  C   UNL     1      -7.648  17.818  66.864  1.00  0.00    -0.210 C  
HETATM    6  H2  UNL     1      -9.919  20.968  68.124  1.00  0.00     0.000 HD 
HETATM    7  H   UNL     1      -8.124  20.149  66.037  1.00  0.00     0.000 HD 
HETATM    8  O   UNL     1      -7.198  17.805  65.721  1.00  0.00    -0.469 OA 
HETATM    9  O   UNL     1      -7.028  17.131  67.847  1.00  0.00    -0.158 OA 
HETATM   10  N   UNL     1      -9.536  21.051  67.182  1.00  0.00    -0.662 NA 
HETATM   11  H1  UNL     1      -9.258  22.016  67.001  1.00  0.00     0.000 HD 
ENDROOT
BRANCH   3  12
HETATM   12  C   UNL     1     -10.503  16.742  66.455  1.00  0.00    -0.269 A  
HETATM   13  C   UNL     1     -11.252  16.336  67.572  1.00  0.00    -0.054 A  
HETATM   14  C   UNL     1     -11.607  14.998  67.714  1.00  0.00    -0.319 A  
HETATM   15  C   UNL     1     -11.238  14.064  66.749  1.00  0.00    -0.315 A  
HETATM   16  O   UNL     1     -12.313  14.547  68.795  1.00  0.00    -0.571 OA 
HETATM   17  H   UNL     1     -12.554  13.633  68.891  1.00  0.00     0.000 HD 
HETATM   18  C   UNL     1     -10.515  14.449  65.632  1.00  0.00    -0.347 A  
HETATM   19  O   UNL     1     -11.586  12.753  66.899  1.00  0.00    -0.327 OA 
HETATM   20  C   UNL     1     -10.149  15.788  65.484  1.00  0.00    -0.383 A  
HETATM   21  H   UNL     1     -11.334  12.116  66.241  1.00  0.00     0.000 HD 
ENDBRANCH   3  12
TORSDOF 1
ENDMDL
MODEL       55
REMARK 921   NORMALIZED FREE ENERGY PREDICTED BY IDOCK:   -5.75 KCAL/MOL
REMARK 922        TOTAL FREE ENERGY PREDICTED BY IDOCK:   -5.27 KCAL/MOL
REMARK 923 INTER-LIGAND FREE ENERGY PREDICTED BY IDOCK:   -6.04 KCAL/MOL
REMARK 924 INTRA-LIGAND FREE ENERGY PREDICTED BY IDOCK:    0.77 KCAL/MOL
REMARK 927      BINDING AFFINITY PREDICTED BY RF-SCORE:    0.00 PKD
ROOT
HETATM    1  C   UNL     1     -10.274  17.918  68.134  1.00  0.00    -0.386 C  
HETATM    2  C   UNL     1      -9.501  18.081  66.813  1.00  0.00    -0.293 C  
HETATM    3  C   UNL     1     -10.392  17.719  65.584  1.00  0.00    -0.098 C  
HETATM    4  N   UNL     1      -8.979  19.483  66.729  1.00  0.00    -0.318 NA 
HETATM    5  C   UNL     1      -8.216  17.199  66.724  1.00  0.00    -0.240 C  
HETATM    6  H2  UNL     1     -10.596  20.417  67.524  1.00  0.00     0.000 HD 
HETATM    7  H   UNL     1      -8.365  19.581  65.920  1.00  0.00     0.000 HD 
HETATM    8  O   UNL     1      -7.490  17.204  65.732  1.00  0.00    -0.338 OA 
HETATM    9  O   UNL     1      -7.896  16.443  67.796  1.00  0.00    -0.147 OA 
HETATM   10  N   UNL     1      -9.982  20.515  66.715  1.00  0.00    -0.562 NA 
HETATM   11  H1  UNL     1      -9.626  21.469  66.658  1.00  0.00     0.000 HD 
ENDROOT
BRANCH   3  12
HETATM   12  C   UNL     1     -10.915  16.294  65.553  1.00  0.00    -0.154 A  
HETATM   13  C   UNL     1     -11.451  15.752  64.372  1.00  0.00    -0.268 A  
HETATM   14  C   UNL     1     -11.961  14.457  64.379  1.00  0.00    -0.452 A  
HETATM   15  C   UNL     1     -11.929  13.691  65.542  1.00  0.00    -0.384 A  
HETATM   16  O   UNL     1     -12.516  13.892  63.264  1.00  0.00    -1.113 OA 
HETATM   17  H   UNL     1     -12.864  13.008  63.269  1.00  0.00     0.000 HD 
HETATM   18  C   UNL     1     -11.388  14.202  66.710  1.00  0.00    -0.353 A  
HETATM   19  O   UNL     1     -12.435  12.424  65.540  1.00  0.00    -0.643 OA 
HETATM   20  C   UNL     1     -10.880  15.503  66.716  1.00  0.00    -0.291 A  
HETATM   21  H   UNL     1     -12.413  11.902  66.333  1.00  0.00     0.000 HD 
ENDBRANCH   3  12
TORSDOF 1
ENDMDL
MODEL       56
REMARK 921   NORMALIZED FREE ENERGY PREDICTED BY IDOCK:   -5.75 KCAL/MOL
REMARK 922        TOTAL FREE ENERGY PREDICTED BY IDOCK:   -5.27 KCAL/MOL
REMARK 923 INTER-LIGAND FREE ENERGY PREDICTED BY IDOCK:   -5.35 KCAL/MOL
REMARK 924 INTRA-LIGAND FREE ENERGY PREDICTED BY IDOCK:    0.08 KCAL/MOL
REMARK 927      BINDING AFFINITY PREDICTED BY RF-SCORE:    0.00 PKD
ROOT
HETATM    1  C   UNL     1     -11.027   7.789  73.058  1.00  0.00    -0.442 C  
HETATM    2  C   UNL     1     -11.765   8.380  71.844  1.00  0.00    -0.334 C  
HETATM    3  C   UNL     1     -12.393   7.258  70.958  1.00  0.00    -0.335 C  
HETATM    4  N   UNL     1     -12.800   9.348  72.332  1.00  0.00    -0.357 NA 
HETATM    5  C   UNL     1     -10.856   9.244  70.914  1.00  0.00    -0.296 C  
HETATM    6  H2  UNL     1     -13.406   8.292  73.956  1.00  0.00     0.000 HD 
HETATM    7  H   UNL     1     -13.221   9.839  71.543  1.00  0.00     0.000 HD 
HETATM    8  O   UNL     1     -11.288   9.781  69.897  1.00  0.00    -0.240 OA 
HETATM    9  O   UNL     1      -9.568   9.420  71.281  1.00  0.00    -0.241 OA 
HETATM   10  N   UNL     1     -13.827   8.783  73.167  1.00  0.00    -1.118 NA 
HETATM   11  H1  UNL     1     -14.532   9.442  73.500  1.00  0.00     0.000 HD 
ENDROOT
BRANCH   3  12
HETATM   12  C   UNL     1     -11.408   6.266  70.367  1.00  0.00    -0.440 A  
HETATM   13  C   UNL     1     -11.157   6.241  68.984  1.00  0.00    -0.446 A  
HETATM   14  C   UNL     1     -10.280   5.295  68.461  1.00  0.00    -0.144 A  
HETATM   15  C   UNL     1      -9.639   4.386  69.298  1.00  0.00    -0.191 A  
HETATM   16  O   UNL     1     -10.021   5.212  67.120  1.00  0.00    -0.159 OA 
HETATM   17  H   UNL     1      -9.422   4.566  66.763  1.00  0.00     0.000 HD 
HETATM   18  C   UNL     1      -9.859   4.408  70.666  1.00  0.00    -0.280 A  
HETATM   19  O   UNL     1      -8.784   3.460  68.776  1.00  0.00    -0.086 OA 
HETATM   20  C   UNL     1     -10.743   5.348  71.200  1.00  0.00    -0.239 A  
HETATM   21  H   UNL     1      -8.347   2.840  69.348  1.00  0.00     0.000 HD 
ENDBRANCH   3  12
TORSDOF 1
ENDMDL
MODEL       57
REMARK 921   NORMALIZED FREE ENERGY PREDICTED BY IDOCK:   -5.75 KCAL/MOL
REMARK 922        TOTAL FREE ENERGY PREDICTED BY IDOCK:   -5.27 KCAL/MOL
REMARK 923 INTER-LIGAND FREE ENERGY PREDICTED BY IDOCK:   -5.42 KCAL/MOL
REMARK 924 INTRA-LIGAND FREE ENERGY PREDICTED BY IDOCK:    0.15 KCAL/MOL
REMARK 927      BINDING AFFINITY PREDICTED BY RF-SCORE:    0.00 PKD
ROOT
HETATM    1  C   UNL     1     -10.347  13.033  64.275  1.00  0.00    -0.385 C  
HETATM    2  C   UNL     1     -11.337  13.833  65.140  1.00  0.00    -0.311 C  
HETATM    3  C   UNL     1     -10.943  13.785  66.649  1.00  0.00    -0.298 C  
HETATM    4  N   UNL     1     -11.400  15.239  64.625  1.00  0.00    -0.600 NA 
HETATM    5  C   UNL     1     -12.812  13.331  65.034  1.00  0.00    -0.289 C  
HETATM    6  H2  UNL     1      -9.427  15.455  64.201  1.00  0.00     0.000 HD 
HETATM    7  H   UNL     1     -12.136  15.756  65.107  1.00  0.00     0.000 HD 
HETATM    8  O   UNL     1     -13.725  13.856  65.667  1.00  0.00    -0.298 OA 
HETATM    9  O   UNL     1     -13.070  12.311  64.188  1.00  0.00    -0.749 OA 
HETATM   10  N   UNL     1     -10.163  15.972  64.682  1.00  0.00    -0.371 NA 
HETATM   11  H1  UNL     1     -10.206  16.930  64.332  1.00  0.00     0.000 HD 
ENDROOT
BRANCH   3  12
HETATM   12  C   UNL     1     -10.915  12.401  67.273  1.00  0.00    -0.302 A  
HETATM   13  C   UNL     1     -10.002  11.430  66.825  1.00  0.00    -0.238 A  
HETATM   14  C   UNL     1     -10.022  10.156  67.385  1.00  0.00    -0.195 A  
HETATM   15  C   UNL     1     -10.928   9.843  68.395  1.00  0.00    -0.187 A  
HETATM   16  O   UNL     1      -9.173   9.169  66.967  1.00  0.00    -0.130 OA 
HETATM   17  H   UNL     1      -9.187   8.299  67.350  1.00  0.00     0.000 HD 
HETATM   18  C   UNL     1     -11.823  10.792  68.861  1.00  0.00    -0.287 A  
HETATM   19  O   UNL     1     -10.944   8.590  68.935  1.00  0.00    -0.429 OA 
HETATM   20  C   UNL     1     -11.816  12.071  68.302  1.00  0.00    -0.351 A  
HETATM   21  H   UNL     1     -11.562   8.376  69.623  1.00  0.00     0.000 HD 
ENDBRANCH   3  12
TORSDOF 1
ENDMDL
MODEL       58
REMARK 921   NORMALIZED FREE ENERGY PREDICTED BY IDOCK:   -5.75 KCAL/MOL
REMARK 922        TOTAL FREE ENERGY PREDICTED BY IDOCK:   -5.27 KCAL/MOL
REMARK 923 INTER-LIGAND FREE ENERGY PREDICTED BY IDOCK:   -5.51 KCAL/MOL
REMARK 924 INTRA-LIGAND FREE ENERGY PREDICTED BY IDOCK:    0.24 KCAL/MOL
REMARK 927      BINDING AFFINITY PREDICTED BY RF-SCORE:    0.00 PKD
ROOT
HETATM    1  C   UNL     1     -12.943  13.891  65.913  1.00  0.00    -0.252 C  
HETATM    2  C   UNL     1     -11.560  14.067  65.261  1.00  0.00    -0.337 C  
HETATM    3  C   UNL     1     -10.783  12.716  65.199  1.00  0.00    -0.321 C  
HETATM    4  N   UNL     1     -11.743  14.668  63.899  1.00  0.00    -0.705 NA 
HETATM    5  C   UNL     1     -10.643  15.092  65.999  1.00  0.00    -0.322 C  
HETATM    6  H2  UNL     1     -13.412  13.638  63.376  1.00  0.00     0.000 HD 
HETATM    7  H   UNL     1     -10.836  14.903  63.495  1.00  0.00     0.000 HD 
HETATM    8  O   UNL     1      -9.504  15.343  65.612  1.00  0.00    -0.318 OA 
HETATM    9  O   UNL     1     -11.152  15.733  67.073  1.00  0.00    -0.270 OA 
HETATM   10  N   UNL     1     -12.505  13.873  62.972  1.00  0.00    -1.009 NA 
HETATM   11  H1  UNL     1     -12.629  14.282  62.046  1.00  0.00     0.000 HD 
ENDROOT
BRANCH   3  12
HETATM   12  C   UNL     1     -10.497  12.065  66.540  1.00  0.00    -0.253 A  
HETATM   13  C   UNL     1      -9.188  11.694  66.893  1.00  0.00    -0.187 A  
HETATM   14  C   UNL     1      -8.957  11.062  68.112  1.00  0.00    -0.152 A  
HETATM   15  C   UNL     1     -10.009  10.812  68.989  1.00  0.00    -0.199 A  
HETATM   16  O   UNL     1      -7.707  10.657  68.491  1.00  0.00    -0.096 OA 
HETATM   17  H   UNL     1      -7.549  10.226  69.324  1.00  0.00     0.000 HD 
HETATM   18  C   UNL     1     -11.303  11.188  68.667  1.00  0.00    -0.342 A  
HETATM   19  O   UNL     1      -9.773  10.189  70.179  1.00  0.00    -0.393 OA 
HETATM   20  C   UNL     1     -11.547  11.816  67.443  1.00  0.00    -0.352 A  
HETATM   21  H   UNL     1     -10.491  10.018  70.778  1.00  0.00     0.000 HD 
ENDBRANCH   3  12
TORSDOF 1
ENDMDL
MODEL       59
REMARK 921   NORMALIZED FREE ENERGY PREDICTED BY IDOCK:   -5.75 KCAL/MOL
REMARK 922        TOTAL FREE ENERGY PREDICTED BY IDOCK:   -5.26 KCAL/MOL
REMARK 923 INTER-LIGAND FREE ENERGY PREDICTED BY IDOCK:   -5.33 KCAL/MOL
REMARK 924 INTRA-LIGAND FREE ENERGY PREDICTED BY IDOCK:    0.06 KCAL/MOL
REMARK 927      BINDING AFFINITY PREDICTED BY RF-SCORE:    0.00 PKD
ROOT
HETATM    1  C   UNL     1      -8.313   9.000  69.971  1.00  0.00    -0.144 C  
HETATM    2  C   UNL     1      -8.935   7.673  70.440  1.00  0.00    -0.152 C  
HETATM    3  C   UNL     1     -10.451   7.594  70.078  1.00  0.00    -0.229 C  
HETATM    4  N   UNL     1      -8.160   6.539  69.841  1.00  0.00    -0.119 NA 
HETATM    5  C   UNL     1      -8.817   7.432  71.979  1.00  0.00    -0.124 C  
HETATM    6  H2  UNL     1      -7.849   7.366  68.014  1.00  0.00     0.000 HD 
HETATM    7  H   UNL     1      -8.479   5.652  70.230  1.00  0.00     0.000 HD 
HETATM    8  O   UNL     1      -9.270   6.424  72.516  1.00  0.00    -0.141 OA 
HETATM    9  O   UNL     1      -8.164   8.359  72.712  1.00  0.00    -0.253 OA 
HETATM   10  N   UNL     1      -8.169   6.479  68.403  1.00  0.00    -0.113 NA 
HETATM   11  H1  UNL     1      -7.640   5.706  67.995  1.00  0.00     0.000 HD 
ENDROOT
BRANCH   3  12
HETATM   12  C   UNL     1     -11.326   8.671  70.695  1.00  0.00    -0.277 A  
HETATM   13  C   UNL     1     -12.240   8.355  71.715  1.00  0.00    -0.377 A  
HETATM   14  C   UNL     1     -13.060   9.351  72.237  1.00  0.00    -0.428 A  
HETATM   15  C   UNL     1     -12.969  10.659  71.768  1.00  0.00    -0.472 A  
HETATM   16  O   UNL     1     -13.985   9.091  73.211  1.00  0.00    -1.205 OA 
HETATM   17  H   UNL     1     -14.544   9.771  73.568  1.00  0.00     0.000 HD 
HETATM   18  C   UNL     1     -12.061  10.993  70.777  1.00  0.00    -0.467 A  
HETATM   19  O   UNL     1     -13.780  11.628  72.283  1.00  0.00    -0.446 OA 
HETATM   20  C   UNL     1     -11.238   9.999  70.241  1.00  0.00    -0.379 A  
HETATM   21  H   UNL     1     -13.717  12.520  71.963  1.00  0.00     0.000 HD 
ENDBRANCH   3  12
TORSDOF 1
ENDMDL
MODEL       60
REMARK 921   NORMALIZED FREE ENERGY PREDICTED BY IDOCK:   -5.71 KCAL/MOL
REMARK 922        TOTAL FREE ENERGY PREDICTED BY IDOCK:   -5.23 KCAL/MOL
REMARK 923 INTER-LIGAND FREE ENERGY PREDICTED BY IDOCK:   -5.30 KCAL/MOL
REMARK 924 INTRA-LIGAND FREE ENERGY PREDICTED BY IDOCK:    0.07 KCAL/MOL
REMARK 927      BINDING AFFINITY PREDICTED BY RF-SCORE:    0.00 PKD
ROOT
HETATM    1  C   UNL     1      -9.965   8.973  69.486  1.00  0.00    -0.193 C  
HETATM    2  C   UNL     1     -11.003   8.413  70.475  1.00  0.00    -0.242 C  
HETATM    3  C   UNL     1     -12.397   9.086  70.279  1.00  0.00     0.462 C  
HETATM    4  N   UNL     1     -11.074   6.925  70.306  1.00  0.00    -0.279 NA 
HETATM    5  C   UNL     1     -10.608   8.599  71.974  1.00  0.00    -0.351 C  
HETATM    6  H2  UNL     1     -10.905   6.878  68.285  1.00  0.00     0.000 HD 
HETATM    7  H   UNL     1     -11.668   6.519  71.030  1.00  0.00     0.000 HD 
HETATM    8  O   UNL     1     -11.332   8.215  72.890  1.00  0.00    -0.387 OA 
HETATM    9  O   UNL     1      -9.416   9.172  72.244  1.00  0.00    -0.229 OA 
HETATM   10  N   UNL     1     -11.498   6.472  69.008  1.00  0.00    -0.615 NA 
HETATM   11  H1  UNL     1     -11.547   5.459  68.893  1.00  0.00     0.000 HD 
ENDROOT
BRANCH   3  12
HETATM   12  C   UNL     1     -12.432  10.589  70.493  1.00  0.00    -0.433 A  
HETATM   13  C   UNL     1     -13.093  11.140  71.604  1.00  0.00    -0.529 A  
HETATM   14  C   UNL     1     -13.145  12.523  71.757  1.00  0.00    -0.347 A  
HETATM   15  C   UNL     1     -12.534  13.360  70.828  1.00  0.00    -0.341 A  
HETATM   16  O   UNL     1     -13.799  13.111  72.805  1.00  0.00    -0.721 OA 
HETATM   17  H   UNL     1     -13.834  14.055  72.910  1.00  0.00     0.000 HD 
HETATM   18  C   UNL     1     -11.862  12.835  69.737  1.00  0.00    -0.380 A  
HETATM   19  O   UNL     1     -12.595  14.714  70.984  1.00  0.00    -0.289 OA 
HETATM   20  C   UNL     1     -11.809  11.449  69.570  1.00  0.00    -0.426 A  
HETATM   21  H   UNL     1     -12.177  15.286  70.350  1.00  0.00     0.000 HD 
ENDBRANCH   3  12
TORSDOF 1
ENDMDL
MODEL       61
REMARK 921   NORMALIZED FREE ENERGY PREDICTED BY IDOCK:   -5.71 KCAL/MOL
REMARK 922        TOTAL FREE ENERGY PREDICTED BY IDOCK:   -5.22 KCAL/MOL
REMARK 923 INTER-LIGAND FREE ENERGY PREDICTED BY IDOCK:   -5.39 KCAL/MOL
REMARK 924 INTRA-LIGAND FREE ENERGY PREDICTED BY IDOCK:    0.16 KCAL/MOL
REMARK 927      BINDING AFFINITY PREDICTED BY RF-SCORE:    0.00 PKD
ROOT
HETATM    1  C   UNL     1     -10.212   8.915  71.992  1.00  0.00    -0.363 C  
HETATM    2  C   UNL     1     -11.182   7.721  71.950  1.00  0.00    -0.265 C  
HETATM    3  C   UNL     1     -10.625   6.566  71.060  1.00  0.00    -0.275 C  
HETATM    4  N   UNL     1     -11.447   7.264  73.353  1.00  0.00    -0.530 NA 
HETATM    5  C   UNL     1     -12.599   8.081  71.402  1.00  0.00    -0.289 C  
HETATM    6  H2  UNL     1      -9.564   7.508  74.071  1.00  0.00     0.000 HD 
HETATM    7  H   UNL     1     -12.176   6.552  73.358  1.00  0.00     0.000 HD 
HETATM    8  O   UNL     1     -13.489   7.240  71.295  1.00  0.00    -0.369 OA 
HETATM    9  O   UNL     1     -12.838   9.369  71.075  1.00  0.00    -0.277 OA 
HETATM   10  N   UNL     1     -10.294   6.795  74.076  1.00  0.00    -0.373 NA 
HETATM   11  H1  UNL     1     -10.475   6.485  75.031  1.00  0.00     0.000 HD 
ENDROOT
BRANCH   3  12
HETATM   12  C   UNL     1     -10.386   6.922  69.603  1.00  0.00    -0.224 A  
HETATM   13  C   UNL     1     -11.052   6.231  68.577  1.00  0.00    -0.397 A  
HETATM   14  C   UNL     1     -10.786   6.548  67.248  1.00  0.00    -0.390 A  
HETATM   15  C   UNL     1      -9.878   7.554  66.930  1.00  0.00    -0.226 A  
HETATM   16  O   UNL     1     -11.388   5.888  66.212  1.00  0.00    -0.717 OA 
HETATM   17  H   UNL     1     -11.207   6.105  65.305  1.00  0.00     0.000 HD 
HETATM   18  C   UNL     1      -9.225   8.259  67.928  1.00  0.00    -0.140 A  
HETATM   19  O   UNL     1      -9.621   7.855  65.624  1.00  0.00    -0.400 OA 
HETATM   20  C   UNL     1      -9.480   7.944  69.265  1.00  0.00    -0.152 A  
HETATM   21  H   UNL     1      -9.001   8.542  65.408  1.00  0.00     0.000 HD 
ENDBRANCH   3  12
TORSDOF 1
ENDMDL
MODEL       62
REMARK 921   NORMALIZED FREE ENERGY PREDICTED BY IDOCK:   -5.70 KCAL/MOL
REMARK 922        TOTAL FREE ENERGY PREDICTED BY IDOCK:   -5.22 KCAL/MOL
REMARK 923 INTER-LIGAND FREE ENERGY PREDICTED BY IDOCK:   -5.32 KCAL/MOL
REMARK 924 INTRA-LIGAND FREE ENERGY PREDICTED BY IDOCK:    0.11 KCAL/MOL
REMARK 927      BINDING AFFINITY PREDICTED BY RF-SCORE:    0.00 PKD
ROOT
HETATM    1  C   UNL     1     -11.045   7.796  73.134  1.00  0.00    -0.336 C  
HETATM    2  C   UNL     1     -11.694   8.423  71.887  1.00  0.00    -0.334 C  
HETATM    3  C   UNL     1     -12.330   7.335  70.967  1.00  0.00    -0.335 C  
HETATM    4  N   UNL     1     -12.704   9.440  72.328  1.00  0.00    -0.366 NA 
HETATM    5  C   UNL     1     -10.699   9.245  71.006  1.00  0.00    -0.316 C  
HETATM    6  H2  UNL     1     -13.439   8.412  73.915  1.00  0.00     0.000 HD 
HETATM    7  H   UNL     1     -13.061   9.951  71.521  1.00  0.00     0.000 HD 
HETATM    8  O   UNL     1     -11.055   9.803  69.971  1.00  0.00    -0.242 OA 
HETATM    9  O   UNL     1      -9.424   9.358  71.436  1.00  0.00    -0.254 OA 
HETATM   10  N   UNL     1     -13.797   8.923  73.109  1.00  0.00    -1.176 NA 
HETATM   11  H1  UNL     1     -14.484   9.615  73.409  1.00  0.00     0.000 HD 
ENDROOT
BRANCH   3  12
HETATM   12  C   UNL     1     -11.366   6.297  70.421  1.00  0.00    -0.440 A  
HETATM   13  C   UNL     1     -10.782   5.343  71.271  1.00  0.00    -0.249 A  
HETATM   14  C   UNL     1      -9.870   4.427  70.754  1.00  0.00    -0.203 A  
HETATM   15  C   UNL     1      -9.547   4.439  69.400  1.00  0.00    -0.199 A  
HETATM   16  O   UNL     1      -9.254   3.495  71.544  1.00  0.00    -0.107 OA 
HETATM   17  H   UNL     1      -8.632   2.869  71.190  1.00  0.00     0.000 HD 
HETATM   18  C   UNL     1     -10.127   5.360  68.543  1.00  0.00    -0.242 A  
HETATM   19  O   UNL     1      -8.649   3.540  68.903  1.00  0.00    -0.078 OA 
HETATM   20  C   UNL     1     -11.037   6.288  69.053  1.00  0.00    -0.446 A  
HETATM   21  H   UNL     1      -8.429   3.549  67.979  1.00  0.00     0.000 HD 
ENDBRANCH   3  12
TORSDOF 1
ENDMDL
MODEL       63
REMARK 921   NORMALIZED FREE ENERGY PREDICTED BY IDOCK:   -5.69 KCAL/MOL
REMARK 922        TOTAL FREE ENERGY PREDICTED BY IDOCK:   -5.20 KCAL/MOL
REMARK 923 INTER-LIGAND FREE ENERGY PREDICTED BY IDOCK:   -5.23 KCAL/MOL
REMARK 924 INTRA-LIGAND FREE ENERGY PREDICTED BY IDOCK:    0.03 KCAL/MOL
REMARK 927      BINDING AFFINITY PREDICTED BY RF-SCORE:    0.00 PKD
ROOT
HETATM    1  C   UNL     1      -7.988  17.310  65.994  1.00  0.00    -0.196 C  
HETATM    2  C   UNL     1      -8.672  18.368  66.877  1.00  0.00    -0.272 C  
HETATM    3  C   UNL     1      -8.716  17.921  68.371  1.00  0.00    -0.296 C  
HETATM    4  N   UNL     1      -7.957  19.675  66.707  1.00  0.00    -0.278 NA 
HETATM    5  C   UNL     1     -10.140  18.689  66.451  1.00  0.00    -0.403 C  
HETATM    6  H2  UNL     1      -6.069  18.935  66.625  1.00  0.00     0.000 HD 
HETATM    7  H   UNL     1      -8.463  20.417  67.190  1.00  0.00     0.000 HD 
HETATM    8  O   UNL     1     -10.830  19.506  67.057  1.00  0.00    -0.487 OA 
HETATM    9  O   UNL     1     -10.629  18.063  65.360  1.00  0.00    -0.648 OA 
HETATM   10  N   UNL     1      -6.575  19.677  67.109  1.00  0.00    -0.197 NA 
HETATM   11  H1  UNL     1      -6.088  20.566  66.993  1.00  0.00     0.000 HD 
ENDROOT
BRANCH   3  12
HETATM   12  C   UNL     1      -9.477  16.637  68.647  1.00  0.00    -0.249 A  
HETATM   13  C   UNL     1     -10.774  16.673  69.188  1.00  0.00    -0.342 A  
HETATM   14  C   UNL     1     -11.435  15.481  69.468  1.00  0.00    -0.333 A  
HETATM   15  C   UNL     1     -10.829  14.256  69.202  1.00  0.00    -0.242 A  
HETATM   16  O   UNL     1     -12.687  15.461  70.019  1.00  0.00    -0.599 OA 
HETATM   17  H   UNL     1     -13.139  14.647  70.211  1.00  0.00     0.000 HD 
HETATM   18  C   UNL     1      -9.559  14.201  68.652  1.00  0.00    -0.179 A  
HETATM   19  O   UNL     1     -11.484  13.093  69.485  1.00  0.00    -0.336 OA 
HETATM   20  C   UNL     1      -8.883  15.391  68.373  1.00  0.00    -0.177 A  
HETATM   21  H   UNL     1     -11.070  12.258  69.303  1.00  0.00     0.000 HD 
ENDBRANCH   3  12
TORSDOF 1
ENDMDL
MODEL       64
REMARK 921   NORMALIZED FREE ENERGY PREDICTED BY IDOCK:   -5.66 KCAL/MOL
REMARK 922        TOTAL FREE ENERGY PREDICTED BY IDOCK:   -5.18 KCAL/MOL
REMARK 923 INTER-LIGAND FREE ENERGY PREDICTED BY IDOCK:   -5.20 KCAL/MOL
REMARK 924 INTRA-LIGAND FREE ENERGY PREDICTED BY IDOCK:    0.02 KCAL/MOL
REMARK 927      BINDING AFFINITY PREDICTED BY RF-SCORE:    0.00 PKD
ROOT
HETATM    1  C   UNL     1      -9.061  12.607  68.310  1.00  0.00    -0.181 C  
HETATM    2  C   UNL     1      -9.747  11.296  67.889  1.00  0.00    -0.177 C  
HETATM    3  C   UNL     1     -11.301  11.433  67.914  1.00  0.00    -0.371 C  
HETATM    4  N   UNL     1      -9.244  10.903  66.533  1.00  0.00    -0.167 NA 
HETATM    5  C   UNL     1      -9.379  10.075  68.791  1.00  0.00    -0.162 C  
HETATM    6  H2  UNL     1      -9.174  12.763  65.726  1.00  0.00     0.000 HD 
HETATM    7  H   UNL     1      -9.595   9.978  66.283  1.00  0.00     0.000 HD 
HETATM    8  O   UNL     1      -9.848   8.956  68.595  1.00  0.00    -0.159 OA 
HETATM    9  O   UNL     1      -8.490  10.275  69.787  1.00  0.00    -0.159 OA 
HETATM   10  N   UNL     1      -9.525  11.839  65.476  1.00  0.00    -0.341 NA 
HETATM   11  H1  UNL     1      -9.183  11.571  64.553  1.00  0.00     0.000 HD 
ENDROOT
BRANCH   3  12
HETATM   12  C   UNL     1     -11.906  11.769  69.266  1.00  0.00    -0.389 A  
HETATM   13  C   UNL     1     -12.376  10.751  70.113  1.00  0.00    -0.401 A  
HETATM   14  C   UNL     1     -12.963  11.087  71.331  1.00  0.00    -0.414 A  
HETATM   15  C   UNL     1     -13.071  12.419  71.720  1.00  0.00    -0.342 A  
HETATM   16  O   UNL     1     -13.460  10.136  72.180  1.00  0.00    -0.499 OA 
HETATM   17  H   UNL     1     -13.860  10.366  73.011  1.00  0.00     0.000 HD 
HETATM   18  C   UNL     1     -12.596  13.434  70.905  1.00  0.00    -0.406 A  
HETATM   19  O   UNL     1     -13.651  12.738  72.913  1.00  0.00    -0.664 OA 
HETATM   20  C   UNL     1     -12.012  13.109  69.679  1.00  0.00    -0.370 A  
HETATM   21  H   UNL     1     -13.725  13.647  73.178  1.00  0.00     0.000 HD 
ENDBRANCH   3  12
TORSDOF 1
ENDMDL
MODEL       65
REMARK 921   NORMALIZED FREE ENERGY PREDICTED BY IDOCK:   -5.63 KCAL/MOL
REMARK 922        TOTAL FREE ENERGY PREDICTED BY IDOCK:   -5.14 KCAL/MOL
REMARK 923 INTER-LIGAND FREE ENERGY PREDICTED BY IDOCK:   -5.27 KCAL/MOL
REMARK 924 INTRA-LIGAND FREE ENERGY PREDICTED BY IDOCK:    0.13 KCAL/MOL
REMARK 927      BINDING AFFINITY PREDICTED BY RF-SCORE:    0.00 PKD
ROOT
HETATM    1  C   UNL     1     -10.920  12.947  69.341  1.00  0.00    -0.048 C  
HETATM    2  C   UNL     1     -10.764  14.474  69.226  1.00  0.00    -0.226 C  
HETATM    3  C   UNL     1     -11.797  15.078  68.224  1.00  0.00    -0.295 C  
HETATM    4  N   UNL     1     -10.895  15.077  70.592  1.00  0.00    -0.518 NA 
HETATM    5  C   UNL     1      -9.347  14.928  68.753  1.00  0.00    -0.203 C  
HETATM    6  H2  UNL     1     -12.381  13.873  71.272  1.00  0.00     0.000 HD 
HETATM    7  H   UNL     1     -10.679  16.073  70.558  1.00  0.00     0.000 HD 
HETATM    8  O   UNL     1      -9.060  16.113  68.602  1.00  0.00    -0.198 OA 
HETATM    9  O   UNL     1      -8.417  13.971  68.545  1.00  0.00    -0.160 OA 
HETATM   10  N   UNL     1     -12.165  14.869  71.238  1.00  0.00    -0.303 NA 
HETATM   11  H1  UNL     1     -12.254  15.279  72.168  1.00  0.00     0.000 HD 
ENDROOT
BRANCH   3  12
HETATM   12  C   UNL     1     -11.696  14.570  66.797  1.00  0.00    -0.393 A  
HETATM   13  C   UNL     1     -12.565  13.569  66.328  1.00  0.00    -0.298 A  
HETATM   14  C   UNL     1     -12.427  13.092  65.028  1.00  0.00    -0.477 A  
HETATM   15  C   UNL     1     -11.447  13.610  64.186  1.00  0.00    -0.329 A  
HETATM   16  O   UNL     1     -13.229  12.101  64.532  1.00  0.00    -0.724 OA 
HETATM   17  H   UNL     1     -13.135  11.775  63.645  1.00  0.00     0.000 HD 
HETATM   18  C   UNL     1     -10.594  14.609  64.624  1.00  0.00    -0.268 A  
HETATM   19  O   UNL     1     -11.316  13.132  62.914  1.00  0.00    -0.498 OA 
HETATM   20  C   UNL     1     -10.719  15.091  65.929  1.00  0.00    -0.337 A  
HETATM   21  H   UNL     1     -10.647  13.486  62.340  1.00  0.00     0.000 HD 
ENDBRANCH   3  12
TORSDOF 1
ENDMDL
MODEL       66
REMARK 921   NORMALIZED FREE ENERGY PREDICTED BY IDOCK:   -5.63 KCAL/MOL
REMARK 922        TOTAL FREE ENERGY PREDICTED BY IDOCK:   -5.14 KCAL/MOL
REMARK 923 INTER-LIGAND FREE ENERGY PREDICTED BY IDOCK:   -5.28 KCAL/MOL
REMARK 924 INTRA-LIGAND FREE ENERGY PREDICTED BY IDOCK:    0.14 KCAL/MOL
REMARK 927      BINDING AFFINITY PREDICTED BY RF-SCORE:    0.00 PKD
ROOT
HETATM    1  C   UNL     1     -11.390  16.136  66.885  1.00  0.00     0.262 C  
HETATM    2  C   UNL     1     -10.406  16.907  65.988  1.00  0.00    -0.325 C  
HETATM    3  C   UNL     1      -9.096  16.094  65.748  1.00  0.00    -0.143 C  
HETATM    4  N   UNL     1     -11.093  17.250  64.701  1.00  0.00    -0.959 NA 
HETATM    5  C   UNL     1      -9.984  18.296  66.566  1.00  0.00    -0.373 C  
HETATM    6  H2  UNL     1     -12.117  15.513  64.476  1.00  0.00     0.000 HD 
HETATM    7  H   UNL     1     -10.501  17.862  64.140  1.00  0.00     0.000 HD 
HETATM    8  O   UNL     1      -9.198  19.034  65.978  1.00  0.00    -0.460 OA 
HETATM    9  O   UNL     1     -10.542  18.687  67.732  1.00  0.00    -0.406 OA 
HETATM   10  N   UNL     1     -11.525  16.125  63.915  1.00  0.00    -1.418 NA 
HETATM   11  H1  UNL     1     -11.993  16.358  63.039  1.00  0.00     0.000 HD 
ENDROOT
BRANCH   3  12
HETATM   12  C   UNL     1      -8.299  15.755  66.995  1.00  0.00    -0.259 A  
HETATM   13  C   UNL     1      -8.373  14.474  67.568  1.00  0.00    -0.201 A  
HETATM   14  C   UNL     1      -7.664  14.200  68.734  1.00  0.00    -0.121 A  
HETATM   15  C   UNL     1      -6.872  15.179  69.326  1.00  0.00    -0.153 A  
HETATM   16  O   UNL     1      -7.722  12.977  69.345  1.00  0.00    -0.245 OA 
HETATM   17  H   UNL     1      -7.238  12.790  70.141  1.00  0.00     0.000 HD 
HETATM   18  C   UNL     1      -6.773  16.443  68.766  1.00  0.00    -0.158 A  
HETATM   19  O   UNL     1      -6.184  14.903  70.472  1.00  0.00    -0.154 OA 
HETATM   20  C   UNL     1      -7.485  16.730  67.600  1.00  0.00    -0.170 A  
HETATM   21  H   UNL     1      -5.644  15.572  70.876  1.00  0.00     0.000 HD 
ENDBRANCH   3  12
TORSDOF 1
ENDMDL
MODEL       67
REMARK 921   NORMALIZED FREE ENERGY PREDICTED BY IDOCK:   -5.63 KCAL/MOL
REMARK 922        TOTAL FREE ENERGY PREDICTED BY IDOCK:   -5.14 KCAL/MOL
REMARK 923 INTER-LIGAND FREE ENERGY PREDICTED BY IDOCK:   -5.25 KCAL/MOL
REMARK 924 INTRA-LIGAND FREE ENERGY PREDICTED BY IDOCK:    0.11 KCAL/MOL
REMARK 927      BINDING AFFINITY PREDICTED BY RF-SCORE:    0.00 PKD
ROOT
HETATM    1  C   UNL     1     -11.638  14.999  66.432  1.00  0.00    -0.172 C  
HETATM    2  C   UNL     1     -10.255  15.037  67.106  1.00  0.00    -0.249 C  
HETATM    3  C   UNL     1     -10.224  14.158  68.395  1.00  0.00    -0.247 C  
HETATM    4  N   UNL     1      -9.221  14.603  66.111  1.00  0.00    -0.492 NA 
HETATM    5  C   UNL     1      -9.796  16.472  67.517  1.00  0.00    -0.248 C  
HETATM    6  H2  UNL     1     -10.304  13.130  65.230  1.00  0.00     0.000 HD 
HETATM    7  H   UNL     1      -8.287  14.733  66.497  1.00  0.00     0.000 HD 
HETATM    8  O   UNL     1      -8.719  16.676  68.074  1.00  0.00    -0.188 OA 
HETATM    9  O   UNL     1     -10.609  17.505  67.210  1.00  0.00    -0.341 OA 
HETATM   10  N   UNL     1      -9.369  13.259  65.616  1.00  0.00    -0.449 NA 
HETATM   11  H1  UNL     1      -8.666  12.964  64.939  1.00  0.00     0.000 HD 
ENDROOT
BRANCH   3  12
HETATM   12  C   UNL     1     -11.198  14.566  69.487  1.00  0.00    -0.300 A  
HETATM   13  C   UNL     1     -10.911  15.650  70.335  1.00  0.00    -0.366 A  
HETATM   14  C   UNL     1     -11.801  15.980  71.354  1.00  0.00    -0.470 A  
HETATM   15  C   UNL     1     -12.976  15.255  71.527  1.00  0.00    -0.412 A  
HETATM   16  O   UNL     1     -11.556  17.008  72.222  1.00  0.00    -0.379 OA 
HETATM   17  H   UNL     1     -12.164  17.233  72.917  1.00  0.00     0.000 HD 
HETATM   18  C   UNL     1     -13.284  14.195  70.690  1.00  0.00    -0.120 A  
HETATM   19  O   UNL     1     -13.840  15.583  72.532  1.00  0.00    -0.517 OA 
HETATM   20  C   UNL     1     -12.396  13.852  69.668  1.00  0.00    -0.301 A  
HETATM   21  H   UNL     1     -14.642  15.088  72.650  1.00  0.00     0.000 HD 
ENDBRANCH   3  12
TORSDOF 1
ENDMDL
MODEL       68
REMARK 921   NORMALIZED FREE ENERGY PREDICTED BY IDOCK:   -5.63 KCAL/MOL
REMARK 922        TOTAL FREE ENERGY PREDICTED BY IDOCK:   -5.14 KCAL/MOL
REMARK 923 INTER-LIGAND FREE ENERGY PREDICTED BY IDOCK:   -5.49 KCAL/MOL
REMARK 924 INTRA-LIGAND FREE ENERGY PREDICTED BY IDOCK:    0.35 KCAL/MOL
REMARK 927      BINDING AFFINITY PREDICTED BY RF-SCORE:    0.00 PKD
ROOT
HETATM    1  C   UNL     1      -9.395  15.234  69.375  1.00  0.00    -0.228 C  
HETATM    2  C   UNL     1     -10.484  15.332  68.292  1.00  0.00    -0.244 C  
HETATM    3  C   UNL     1     -11.866  14.846  68.828  1.00  0.00    -0.328 C  
HETATM    4  N   UNL     1     -10.543  16.745  67.795  1.00  0.00    -0.338 NA 
HETATM    5  C   UNL     1     -10.170  14.499  67.009  1.00  0.00    -0.262 C  
HETATM    6  H2  UNL     1     -10.266  17.666  69.581  1.00  0.00     0.000 HD 
HETATM    7  H   UNL     1     -11.174  16.809  66.996  1.00  0.00     0.000 HD 
HETATM    8  O   UNL     1     -10.941  14.462  66.052  1.00  0.00    -0.305 OA 
HETATM    9  O   UNL     1      -8.995  13.836  66.961  1.00  0.00    -0.227 OA 
HETATM   10  N   UNL     1     -10.897  17.730  68.782  1.00  0.00    -0.242 NA 
HETATM   11  H1  UNL     1     -10.937  18.693  68.444  1.00  0.00     0.000 HD 
ENDROOT
BRANCH   3  12
HETATM   12  C   UNL     1     -11.915  13.403  69.295  1.00  0.00    -0.367 A  
HETATM   13  C   UNL     1     -11.666  12.350  68.399  1.00  0.00    -0.386 A  
HETATM   14  C   UNL     1     -11.756  11.033  68.842  1.00  0.00    -0.330 A  
HETATM   15  C   UNL     1     -12.074  10.754  70.168  1.00  0.00    -0.346 A  
HETATM   16  O   UNL     1     -11.549   9.972  68.004  1.00  0.00    -0.644 OA 
HETATM   17  H   UNL     1     -11.610   9.073  68.307  1.00  0.00     0.000 HD 
HETATM   18  C   UNL     1     -12.305  11.779  71.071  1.00  0.00    -0.386 A  
HETATM   19  O   UNL     1     -12.165   9.460  70.592  1.00  0.00    -0.452 OA 
HETATM   20  C   UNL     1     -12.224  13.104  70.635  1.00  0.00    -0.402 A  
HETATM   21  H   UNL     1     -12.382   9.270  71.497  1.00  0.00     0.000 HD 
ENDBRANCH   3  12
TORSDOF 1
ENDMDL
MODEL       69
REMARK 921   NORMALIZED FREE ENERGY PREDICTED BY IDOCK:   -5.61 KCAL/MOL
REMARK 922        TOTAL FREE ENERGY PREDICTED BY IDOCK:   -5.12 KCAL/MOL
REMARK 923 INTER-LIGAND FREE ENERGY PREDICTED BY IDOCK:   -5.31 KCAL/MOL
REMARK 924 INTRA-LIGAND FREE ENERGY PREDICTED BY IDOCK:    0.19 KCAL/MOL
REMARK 927      BINDING AFFINITY PREDICTED BY RF-SCORE:    0.00 PKD
ROOT
HETATM    1  C   UNL     1     -11.329   6.180  69.269  1.00  0.00    -0.361 C  
HETATM    2  C   UNL     1      -9.996   6.933  69.428  1.00  0.00    -0.160 C  
HETATM    3  C   UNL     1      -9.862   7.559  70.851  1.00  0.00    -0.177 C  
HETATM    4  N   UNL     1      -8.871   5.989  69.127  1.00  0.00    -0.119 NA 
HETATM    5  C   UNL     1      -9.799   8.088  68.396  1.00  0.00    -0.171 C  
HETATM    6  H2  UNL     1      -9.660   4.343  70.015  1.00  0.00     0.000 HD 
HETATM    7  H   UNL     1      -7.985   6.493  69.111  1.00  0.00     0.000 HD 
HETATM    8  O   UNL     1      -8.791   8.792  68.393  1.00  0.00    -0.137 OA 
HETATM    9  O   UNL     1     -10.763   8.276  67.470  1.00  0.00    -0.242 OA 
HETATM   10  N   UNL     1      -8.774   4.848  69.999  1.00  0.00    -0.093 NA 
HETATM   11  H1  UNL     1      -8.008   4.206  69.794  1.00  0.00     0.000 HD 
ENDROOT
BRANCH   3  12
HETATM   12  C   UNL     1     -10.927   8.578  71.218  1.00  0.00    -0.316 A  
HETATM   13  C   UNL     1     -11.948   8.251  72.127  1.00  0.00    -0.429 A  
HETATM   14  C   UNL     1     -12.935   9.189  72.418  1.00  0.00    -0.398 A  
HETATM   15  C   UNL     1     -12.909  10.449  71.828  1.00  0.00    -0.456 A  
HETATM   16  O   UNL     1     -13.965   8.912  73.275  1.00  0.00    -1.203 OA 
HETATM   17  H   UNL     1     -14.639   9.552  73.474  1.00  0.00     0.000 HD 
HETATM   18  C   UNL     1     -11.900  10.795  70.944  1.00  0.00    -0.400 A  
HETATM   19  O   UNL     1     -13.884  11.359  72.116  1.00  0.00    -0.255 OA 
HETATM   20  C   UNL     1     -10.908   9.860  70.640  1.00  0.00    -0.400 A  
HETATM   21  H   UNL     1     -13.865  12.220  71.713  1.00  0.00     0.000 HD 
ENDBRANCH   3  12
TORSDOF 1
ENDMDL
MODEL       70
REMARK 921   NORMALIZED FREE ENERGY PREDICTED BY IDOCK:   -5.61 KCAL/MOL
REMARK 922        TOTAL FREE ENERGY PREDICTED BY IDOCK:   -5.12 KCAL/MOL
REMARK 923 INTER-LIGAND FREE ENERGY PREDICTED BY IDOCK:   -5.15 KCAL/MOL
REMARK 924 INTRA-LIGAND FREE ENERGY PREDICTED BY IDOCK:    0.03 KCAL/MOL
REMARK 927      BINDING AFFINITY PREDICTED BY RF-SCORE:    0.00 PKD
ROOT
HETATM    1  C   UNL     1     -10.500  13.961  64.532  1.00  0.00    -0.334 C  
HETATM    2  C   UNL     1     -10.583  14.247  66.042  1.00  0.00    -0.300 C  
HETATM    3  C   UNL     1      -9.637  13.307  66.852  1.00  0.00    -0.249 C  
HETATM    4  N   UNL     1     -10.267  15.693  66.277  1.00  0.00    -0.283 NA 
HETATM    5  C   UNL     1     -12.017  14.078  66.636  1.00  0.00    -0.445 C  
HETATM    6  H2  UNL     1      -8.783  15.867  64.903  1.00  0.00     0.000 HD 
HETATM    7  H   UNL     1     -10.430  15.933  67.255  1.00  0.00     0.000 HD 
HETATM    8  O   UNL     1     -12.253  14.261  67.828  1.00  0.00    -0.325 OA 
HETATM    9  O   UNL     1     -13.016  13.755  65.787  1.00  0.00    -0.477 OA 
HETATM   10  N   UNL     1      -8.946  16.107  65.880  1.00  0.00    -0.397 NA 
HETATM   11  H1  UNL     1      -8.731  17.092  66.040  1.00  0.00     0.000 HD 
ENDROOT
BRANCH   3  12
HETATM   12  C   UNL     1      -9.925  11.822  66.724  1.00  0.00    -0.224 A  
HETATM   13  C   UNL     1     -10.568  11.123  67.760  1.00  0.00    -0.248 A  
HETATM   14  C   UNL     1     -10.785   9.754  67.636  1.00  0.00    -0.274 A  
HETATM   15  C   UNL     1     -10.385   9.077  66.487  1.00  0.00    -0.193 A  
HETATM   16  O   UNL     1     -11.382   9.024  68.626  1.00  0.00    -0.343 OA 
HETATM   17  H   UNL     1     -11.531   8.089  68.540  1.00  0.00     0.000 HD 
HETATM   18  C   UNL     1      -9.767   9.752  65.447  1.00  0.00    -0.383 A  
HETATM   19  O   UNL     1     -10.599   7.734  66.376  1.00  0.00    -0.412 OA 
HETATM   20  C   UNL     1      -9.538  11.125  65.565  1.00  0.00    -0.263 A  
HETATM   21  H   UNL     1     -10.326   7.272  65.592  1.00  0.00     0.000 HD 
ENDBRANCH   3  12
TORSDOF 1
ENDMDL
MODEL       71
REMARK 921   NORMALIZED FREE ENERGY PREDICTED BY IDOCK:   -5.56 KCAL/MOL
REMARK 922        TOTAL FREE ENERGY PREDICTED BY IDOCK:   -5.06 KCAL/MOL
REMARK 923 INTER-LIGAND FREE ENERGY PREDICTED BY IDOCK:   -5.12 KCAL/MOL
REMARK 924 INTRA-LIGAND FREE ENERGY PREDICTED BY IDOCK:    0.06 KCAL/MOL
REMARK 927      BINDING AFFINITY PREDICTED BY RF-SCORE:    0.00 PKD
ROOT
HETATM    1  C   UNL     1      -8.802  14.863  68.416  1.00  0.00    -0.178 C  
HETATM    2  C   UNL     1      -9.802  14.658  67.265  1.00  0.00    -0.231 C  
HETATM    3  C   UNL     1      -9.474  15.584  66.053  1.00  0.00    -0.387 C  
HETATM    4  N   UNL     1      -9.800  13.210  66.876  1.00  0.00    -0.243 NA 
HETATM    5  C   UNL     1     -11.287  14.933  67.665  1.00  0.00    -0.337 C  
HETATM    6  H2  UNL     1      -7.805  12.888  67.065  1.00  0.00     0.000 HD 
HETATM    7  H   UNL     1     -10.538  13.028  66.196  1.00  0.00     0.000 HD 
HETATM    8  O   UNL     1     -12.209  14.823  66.860  1.00  0.00    -0.230 OA 
HETATM    9  O   UNL     1     -11.540  15.267  68.948  1.00  0.00    -0.310 OA 
HETATM   10  N   UNL     1      -8.544  12.706  66.386  1.00  0.00    -0.417 NA 
HETATM   11  H1  UNL     1      -8.542  11.720  66.121  1.00  0.00     0.000 HD 
ENDROOT
BRANCH   3  12
HETATM   12  C   UNL     1      -9.516  17.075  66.341  1.00  0.00    -0.294 A  
HETATM   13  C   UNL     1      -8.454  17.706  67.011  1.00  0.00    -0.252 A  
HETATM   14  C   UNL     1      -8.533  19.066  67.298  1.00  0.00    -0.277 A  
HETATM   15  C   UNL     1      -9.647  19.806  66.913  1.00  0.00    -0.377 A  
HETATM   16  O   UNL     1      -7.539  19.722  67.971  1.00  0.00    -0.287 OA 
HETATM   17  H   UNL     1      -7.593  20.650  68.167  1.00  0.00     0.000 HD 
HETATM   18  C   UNL     1     -10.696  19.204  66.235  1.00  0.00    -0.444 A  
HETATM   19  O   UNL     1      -9.718  21.137  67.203  1.00  0.00    -0.655 OA 
HETATM   20  C   UNL     1     -10.629  17.839  65.947  1.00  0.00    -0.205 A  
HETATM   21  H   UNL     1     -10.479  21.641  66.940  1.00  0.00     0.000 HD 
ENDBRANCH   3  12
TORSDOF 1
ENDMDL
MODEL       72
REMARK 921   NORMALIZED FREE ENERGY PREDICTED BY IDOCK:   -5.55 KCAL/MOL
REMARK 922        TOTAL FREE ENERGY PREDICTED BY IDOCK:   -5.05 KCAL/MOL
REMARK 923 INTER-LIGAND FREE ENERGY PREDICTED BY IDOCK:   -5.93 KCAL/MOL
REMARK 924 INTRA-LIGAND FREE ENERGY PREDICTED BY IDOCK:    0.87 KCAL/MOL
REMARK 927      BINDING AFFINITY PREDICTED BY RF-SCORE:    0.00 PKD
ROOT
HETATM    1  C   UNL     1     -12.050  13.825  66.556  1.00  0.00    -0.483 C  
HETATM    2  C   UNL     1     -10.612  13.811  67.102  1.00  0.00    -0.277 C  
HETATM    3  C   UNL     1     -10.409  12.667  68.144  1.00  0.00    -0.238 C  
HETATM    4  N   UNL     1      -9.659  13.692  65.951  1.00  0.00    -0.490 NA 
HETATM    5  C   UNL     1     -10.191  15.145  67.797  1.00  0.00    -0.236 C  
HETATM    6  H2  UNL     1     -10.744  12.381  64.844  1.00  0.00     0.000 HD 
HETATM    7  H   UNL     1      -8.699  13.799  66.278  1.00  0.00     0.000 HD 
HETATM    8  O   UNL     1      -9.077  15.296  68.294  1.00  0.00    -0.175 OA 
HETATM    9  O   UNL     1     -11.083  16.158  67.808  1.00  0.00    -0.323 OA 
HETATM   10  N   UNL     1      -9.784  12.489  65.171  1.00  0.00    -0.465 NA 
HETATM   11  H1  UNL     1      -9.135  12.408  64.387  1.00  0.00     0.000 HD 
ENDROOT
BRANCH   3  12
HETATM   12  C   UNL     1     -11.291  12.743  69.377  1.00  0.00    -0.267 A  
HETATM   13  C   UNL     1     -11.769  11.573  69.991  1.00  0.00    -0.414 A  
HETATM   14  C   UNL     1     -12.609  11.669  71.097  1.00  0.00    -0.335 A  
HETATM   15  C   UNL     1     -12.963  12.914  71.608  1.00  0.00    -0.313 A  
HETATM   16  O   UNL     1     -13.123  10.561  71.714  1.00  0.00    -0.432 OA 
HETATM   17  H   UNL     1     -13.695  10.628  72.469  1.00  0.00     0.000 HD 
HETATM   18  C   UNL     1     -12.486  14.079  71.029  1.00  0.00    -0.444 A  
HETATM   19  O   UNL     1     -13.790  12.999  72.690  1.00  0.00    -0.713 OA 
HETATM   20  C   UNL     1     -11.649  13.993  69.914  1.00  0.00    -0.320 A  
HETATM   21  H   UNL     1     -14.032  13.849  73.039  1.00  0.00     0.000 HD 
ENDBRANCH   3  12
TORSDOF 1
ENDMDL
MODEL       73
REMARK 921   NORMALIZED FREE ENERGY PREDICTED BY IDOCK:   -5.55 KCAL/MOL
REMARK 922        TOTAL FREE ENERGY PREDICTED BY IDOCK:   -5.05 KCAL/MOL
REMARK 923 INTER-LIGAND FREE ENERGY PREDICTED BY IDOCK:   -5.13 KCAL/MOL
REMARK 924 INTRA-LIGAND FREE ENERGY PREDICTED BY IDOCK:    0.08 KCAL/MOL
REMARK 927      BINDING AFFINITY PREDICTED BY RF-SCORE:    0.00 PKD
ROOT
HETATM    1  C   UNL     1     -10.037  13.759  65.206  1.00  0.00    -0.312 C  
HETATM    2  C   UNL     1     -11.256  14.478  65.812  1.00  0.00    -0.334 C  
HETATM    3  C   UNL     1     -11.073  16.027  65.789  1.00  0.00    -0.032 C  
HETATM    4  N   UNL     1     -12.486  14.051  65.069  1.00  0.00    -0.560 NA 
HETATM    5  C   UNL     1     -11.555  14.073  67.290  1.00  0.00    -0.369 C  
HETATM    6  H2  UNL     1     -11.672  14.009  63.210  1.00  0.00     0.000 HD 
HETATM    7  H   UNL     1     -13.318  14.422  65.526  1.00  0.00     0.000 HD 
HETATM    8  O   UNL     1     -12.488  14.561  67.923  1.00  0.00    -0.072 OA 
HETATM    9  O   UNL     1     -10.769  13.131  67.855  1.00  0.00    -0.227 OA 
HETATM   10  N   UNL     1     -12.504  14.380  63.668  1.00  0.00    -1.086 NA 
HETATM   11  H1  UNL     1     -13.342  14.089  63.162  1.00  0.00     0.000 HD 
ENDROOT
BRANCH   3  12
HETATM   12  C   UNL     1      -9.884  16.556  66.571  1.00  0.00    -0.292 A  
HETATM   13  C   UNL     1      -8.575  16.388  66.088  1.00  0.00    -0.343 A  
HETATM   14  C   UNL     1      -7.499  16.846  66.843  1.00  0.00    -0.219 A  
HETATM   15  C   UNL     1      -7.711  17.483  68.062  1.00  0.00    -0.211 A  
HETATM   16  O   UNL     1      -6.205  16.684  66.430  1.00  0.00    -0.266 OA 
HETATM   17  H   UNL     1      -5.470  16.997  66.945  1.00  0.00     0.000 HD 
HETATM   18  C   UNL     1      -8.995  17.675  68.545  1.00  0.00    -0.289 A  
HETATM   19  O   UNL     1      -6.650  17.925  68.796  1.00  0.00    -0.216 OA 
HETATM   20  C   UNL     1     -10.082  17.213  67.799  1.00  0.00    -0.306 A  
HETATM   21  H   UNL     1      -6.795  18.360  69.629  1.00  0.00     0.000 HD 
ENDBRANCH   3  12
TORSDOF 1
ENDMDL
MODEL       74
REMARK 921   NORMALIZED FREE ENERGY PREDICTED BY IDOCK:   -5.54 KCAL/MOL
REMARK 922        TOTAL FREE ENERGY PREDICTED BY IDOCK:   -5.05 KCAL/MOL
REMARK 923 INTER-LIGAND FREE ENERGY PREDICTED BY IDOCK:   -5.18 KCAL/MOL
REMARK 924 INTRA-LIGAND FREE ENERGY PREDICTED BY IDOCK:    0.13 KCAL/MOL
REMARK 927      BINDING AFFINITY PREDICTED BY RF-SCORE:    0.00 PKD
ROOT
HETATM    1  C   UNL     1      -9.178  14.621  66.778  1.00  0.00    -0.285 C  
HETATM    2  C   UNL     1      -8.682  14.760  68.229  1.00  0.00    -0.170 C  
HETATM    3  C   UNL     1      -9.513  15.819  69.017  1.00  0.00    -0.247 C  
HETATM    4  N   UNL     1      -8.730  13.413  68.885  1.00  0.00    -0.363 NA 
HETATM    5  C   UNL     1      -7.181  15.175  68.342  1.00  0.00    -0.114 C  
HETATM    6  H2  UNL     1     -10.473  12.778  68.061  1.00  0.00     0.000 HD 
HETATM    7  H   UNL     1      -8.296  13.457  69.807  1.00  0.00     0.000 HD 
HETATM    8  O   UNL     1      -6.631  15.337  69.429  1.00  0.00    -0.129 OA 
HETATM    9  O   UNL     1      -6.480  15.322  67.198  1.00  0.00    -0.299 OA 
HETATM   10  N   UNL     1     -10.039  12.822  68.983  1.00  0.00    -0.421 NA 
HETATM   11  H1  UNL     1     -10.072  11.905  69.430  1.00  0.00     0.000 HD 
ENDROOT
BRANCH   3  12
HETATM   12  C   UNL     1      -9.470  17.230  68.457  1.00  0.00    -0.285 A  
HETATM   13  C   UNL     1      -8.346  18.049  68.661  1.00  0.00    -0.282 A  
HETATM   14  C   UNL     1      -8.347  19.352  68.172  1.00  0.00    -0.328 A  
HETATM   15  C   UNL     1      -9.445  19.844  67.471  1.00  0.00    -0.359 A  
HETATM   16  O   UNL     1      -7.289  20.198  68.366  1.00  0.00    -0.285 OA 
HETATM   17  H   UNL     1      -7.290  21.088  68.032  1.00  0.00     0.000 HD 
HETATM   18  C   UNL     1     -10.554  19.045  67.245  1.00  0.00    -0.554 A  
HETATM   19  O   UNL     1      -9.438  21.124  67.000  1.00  0.00    -0.668 OA 
HETATM   20  C   UNL     1     -10.566  17.738  67.736  1.00  0.00    -0.392 A  
HETATM   21  H   UNL     1     -10.187  21.459  66.521  1.00  0.00     0.000 HD 
ENDBRANCH   3  12
TORSDOF 1
ENDMDL
MODEL       75
REMARK 921   NORMALIZED FREE ENERGY PREDICTED BY IDOCK:   -5.54 KCAL/MOL
REMARK 922        TOTAL FREE ENERGY PREDICTED BY IDOCK:   -5.04 KCAL/MOL
REMARK 923 INTER-LIGAND FREE ENERGY PREDICTED BY IDOCK:   -5.24 KCAL/MOL
REMARK 924 INTRA-LIGAND FREE ENERGY PREDICTED BY IDOCK:    0.20 KCAL/MOL
REMARK 927      BINDING AFFINITY PREDICTED BY RF-SCORE:    0.00 PKD
ROOT
HETATM    1  C   UNL     1      -8.330   9.560  65.980  1.00  0.00    -0.123 C  
HETATM    2  C   UNL     1      -8.961  10.093  67.278  1.00  0.00    -0.135 C  
HETATM    3  C   UNL     1     -10.507  10.253  67.137  1.00  0.00    -0.311 C  
HETATM    4  N   UNL     1      -8.597   9.173  68.404  1.00  0.00    -0.128 NA 
HETATM    5  C   UNL     1      -8.395  11.477  67.730  1.00  0.00    -0.136 C  
HETATM    6  H2  UNL     1      -8.767   7.427  67.386  1.00  0.00     0.000 HD 
HETATM    7  H   UNL     1      -8.904   9.569  69.293  1.00  0.00     0.000 HD 
HETATM    8  O   UNL     1      -8.798  12.046  68.742  1.00  0.00    -0.064 OA 
HETATM    9  O   UNL     1      -7.411  12.027  66.987  1.00  0.00    -0.142 OA 
HETATM   10  N   UNL     1      -9.074   7.822  68.274  1.00  0.00    -0.131 NA 
HETATM   11  H1  UNL     1      -8.825   7.196  69.041  1.00  0.00     0.000 HD 
ENDROOT
BRANCH   3  12
HETATM   12  C   UNL     1     -10.968  11.218  66.059  1.00  0.00    -0.237 A  
HETATM   13  C   UNL     1     -11.807  12.300  66.375  1.00  0.00    -0.382 A  
HETATM   14  C   UNL     1     -12.248  13.147  65.363  1.00  0.00    -0.461 A  
HETATM   15  C   UNL     1     -11.851  12.940  64.045  1.00  0.00    -0.443 A  
HETATM   16  O   UNL     1     -13.087  14.198  65.614  1.00  0.00    -0.617 OA 
HETATM   17  H   UNL     1     -13.388  14.777  64.923  1.00  0.00     0.000 HD 
HETATM   18  C   UNL     1     -11.009  11.890  63.717  1.00  0.00    -0.494 A  
HETATM   19  O   UNL     1     -12.293  13.774  63.059  1.00  0.00    -1.089 OA 
HETATM   20  C   UNL     1     -10.566  11.030  64.724  1.00  0.00    -0.350 A  
HETATM   21  H   UNL     1     -12.021  13.632  62.160  1.00  0.00     0.000 HD 
ENDBRANCH   3  12
TORSDOF 1
ENDMDL
MODEL       76
REMARK 921   NORMALIZED FREE ENERGY PREDICTED BY IDOCK:   -5.51 KCAL/MOL
REMARK 922        TOTAL FREE ENERGY PREDICTED BY IDOCK:   -5.01 KCAL/MOL
REMARK 923 INTER-LIGAND FREE ENERGY PREDICTED BY IDOCK:   -5.08 KCAL/MOL
REMARK 924 INTRA-LIGAND FREE ENERGY PREDICTED BY IDOCK:    0.06 KCAL/MOL
REMARK 927      BINDING AFFINITY PREDICTED BY RF-SCORE:    0.00 PKD
ROOT
HETATM    1  C   UNL     1     -12.034  14.153  68.148  1.00  0.00    -0.367 C  
HETATM    2  C   UNL     1     -11.356  13.297  67.063  1.00  0.00    -0.312 C  
HETATM    3  C   UNL     1     -11.849  11.818  67.115  1.00  0.00    -0.157 C  
HETATM    4  N   UNL     1     -11.612  13.923  65.725  1.00  0.00    -0.328 NA 
HETATM    5  C   UNL     1      -9.799  13.267  67.169  1.00  0.00    -0.237 C  
HETATM    6  H2  UNL     1     -13.532  14.488  66.059  1.00  0.00     0.000 HD 
HETATM    7  H   UNL     1     -11.075  13.441  65.005  1.00  0.00     0.000 HD 
HETATM    8  O   UNL     1      -9.106  12.623  66.384  1.00  0.00    -0.202 OA 
HETATM    9  O   UNL     1      -9.219  14.006  68.139  1.00  0.00    -0.184 OA 
HETATM   10  N   UNL     1     -12.996  14.006  65.338  1.00  0.00    -0.743 NA 
HETATM   11  H1  UNL     1     -13.170  14.432  64.427  1.00  0.00     0.000 HD 
ENDROOT
BRANCH   3  12
HETATM   12  C   UNL     1     -11.574  11.083  68.415  1.00  0.00    -0.372 A  
HETATM   13  C   UNL     1     -12.371  11.311  69.550  1.00  0.00    -0.243 A  
HETATM   14  C   UNL     1     -12.075  10.655  70.742  1.00  0.00    -0.374 A  
HETATM   15  C   UNL     1     -11.007   9.765  70.812  1.00  0.00    -0.336 A  
HETATM   16  O   UNL     1     -12.803  10.862  71.881  1.00  0.00    -0.425 OA 
HETATM   17  H   UNL     1     -12.601  10.414  72.695  1.00  0.00     0.000 HD 
HETATM   18  C   UNL     1     -10.221   9.514  69.699  1.00  0.00    -0.234 A  
HETATM   19  O   UNL     1     -10.721   9.131  71.986  1.00  0.00    -0.341 OA 
HETATM   20  C   UNL     1     -10.506  10.172  68.500  1.00  0.00    -0.221 A  
HETATM   21  H   UNL     1      -9.992   8.524  72.034  1.00  0.00     0.000 HD 
ENDBRANCH   3  12
TORSDOF 1
ENDMDL
MODEL       77
REMARK 921   NORMALIZED FREE ENERGY PREDICTED BY IDOCK:   -5.50 KCAL/MOL
REMARK 922        TOTAL FREE ENERGY PREDICTED BY IDOCK:   -5.00 KCAL/MOL
REMARK 923 INTER-LIGAND FREE ENERGY PREDICTED BY IDOCK:   -5.05 KCAL/MOL
REMARK 924 INTRA-LIGAND FREE ENERGY PREDICTED BY IDOCK:    0.05 KCAL/MOL
REMARK 927      BINDING AFFINITY PREDICTED BY RF-SCORE:    0.00 PKD
ROOT
HETATM    1  C   UNL     1     -12.010  14.117  68.191  1.00  0.00    -0.367 C  
HETATM    2  C   UNL     1     -11.328  13.255  67.114  1.00  0.00    -0.317 C  
HETATM    3  C   UNL     1     -11.812  11.773  67.179  1.00  0.00    -0.157 C  
HETATM    4  N   UNL     1     -11.588  13.868  65.770  1.00  0.00    -0.328 NA 
HETATM    5  C   UNL     1      -9.770  13.235  67.218  1.00  0.00    -0.231 C  
HETATM    6  H2  UNL     1     -13.511  14.425  66.101  1.00  0.00     0.000 HD 
HETATM    7  H   UNL     1     -11.049  13.382  65.054  1.00  0.00     0.000 HD 
HETATM    8  O   UNL     1      -9.074  12.588  66.439  1.00  0.00    -0.208 OA 
HETATM    9  O   UNL     1      -9.194  13.986  68.181  1.00  0.00    -0.184 OA 
HETATM   10  N   UNL     1     -12.973  13.939  65.384  1.00  0.00    -0.748 NA 
HETATM   11  H1  UNL     1     -13.150  14.356  64.469  1.00  0.00     0.000 HD 
ENDROOT
BRANCH   3  12
HETATM   12  C   UNL     1     -11.532  11.052  68.486  1.00  0.00    -0.379 A  
HETATM   13  C   UNL     1     -10.538  10.062  68.560  1.00  0.00    -0.245 A  
HETATM   14  C   UNL     1     -10.327   9.387  69.759  1.00  0.00    -0.223 A  
HETATM   15  C   UNL     1     -11.082   9.697  70.887  1.00  0.00    -0.352 A  
HETATM   16  O   UNL     1      -9.390   8.397  69.877  1.00  0.00    -0.154 OA 
HETATM   17  H   UNL     1      -9.246   7.937  70.696  1.00  0.00     0.000 HD 
HETATM   18  C   UNL     1     -12.054  10.683  70.838  1.00  0.00    -0.489 A  
HETATM   19  O   UNL     1     -10.871   9.027  72.056  1.00  0.00    -0.352 OA 
HETATM   20  C   UNL     1     -12.278  11.362  69.638  1.00  0.00    -0.316 A  
HETATM   21  H   UNL     1     -11.387   9.239  72.826  1.00  0.00     0.000 HD 
ENDBRANCH   3  12
TORSDOF 1
ENDMDL
MODEL       78
REMARK 921   NORMALIZED FREE ENERGY PREDICTED BY IDOCK:   -5.47 KCAL/MOL
REMARK 922        TOTAL FREE ENERGY PREDICTED BY IDOCK:   -4.97 KCAL/MOL
REMARK 923 INTER-LIGAND FREE ENERGY PREDICTED BY IDOCK:   -5.15 KCAL/MOL
REMARK 924 INTRA-LIGAND FREE ENERGY PREDICTED BY IDOCK:    0.18 KCAL/MOL
REMARK 927      BINDING AFFINITY PREDICTED BY RF-SCORE:    0.00 PKD
ROOT
HETATM    1  C   UNL     1     -12.451   7.336  71.725  1.00  0.00    -0.378 C  
HETATM    2  C   UNL     1     -10.920   7.280  71.575  1.00  0.00    -0.233 C  
HETATM    3  C   UNL     1     -10.299   8.710  71.525  1.00  0.00    -0.341 C  
HETATM    4  N   UNL     1     -10.355   6.465  72.699  1.00  0.00    -0.190 NA 
HETATM    5  C   UNL     1     -10.442   6.527  70.293  1.00  0.00    -0.216 C  
HETATM    6  H2  UNL     1     -11.590   7.140  74.162  1.00  0.00     0.000 HD 
HETATM    7  H   UNL     1      -9.357   6.315  72.556  1.00  0.00     0.000 HD 
HETATM    8  O   UNL     1      -9.250   6.399  70.020  1.00  0.00    -0.154 OA 
HETATM    9  O   UNL     1     -11.384   5.979  69.496  1.00  0.00    -0.405 OA 
HETATM   10  N   UNL     1     -10.591   6.990  74.019  1.00  0.00    -0.487 NA 
HETATM   11  H1  UNL     1     -10.207   6.435  74.784  1.00  0.00     0.000 HD 
ENDROOT
BRANCH   3  12
HETATM   12  C   UNL     1     -10.768   9.586  70.377  1.00  0.00    -0.341 A  
HETATM   13  C   UNL     1     -10.336   9.339  69.063  1.00  0.00    -0.228 A  
HETATM   14  C   UNL     1     -10.748  10.180  68.033  1.00  0.00    -0.260 A  
HETATM   15  C   UNL     1     -11.596  11.253  68.294  1.00  0.00    -0.300 A  
HETATM   16  O   UNL     1     -10.336   9.998  66.742  1.00  0.00    -0.225 OA 
HETATM   17  H   UNL     1     -10.617  10.572  66.039  1.00  0.00     0.000 HD 
HETATM   18  C   UNL     1     -12.047  11.502  69.580  1.00  0.00    -0.363 A  
HETATM   19  O   UNL     1     -11.991  12.075  67.279  1.00  0.00    -0.591 OA 
HETATM   20  C   UNL     1     -11.634  10.668  70.622  1.00  0.00    -0.432 A  
HETATM   21  H   UNL     1     -12.569  12.807  67.457  1.00  0.00     0.000 HD 
ENDBRANCH   3  12
TORSDOF 1
ENDMDL
MODEL       79
REMARK 921   NORMALIZED FREE ENERGY PREDICTED BY IDOCK:   -5.46 KCAL/MOL
REMARK 922        TOTAL FREE ENERGY PREDICTED BY IDOCK:   -4.96 KCAL/MOL
REMARK 923 INTER-LIGAND FREE ENERGY PREDICTED BY IDOCK:   -4.98 KCAL/MOL
REMARK 924 INTRA-LIGAND FREE ENERGY PREDICTED BY IDOCK:    0.02 KCAL/MOL
REMARK 927      BINDING AFFINITY PREDICTED BY RF-SCORE:    0.00 PKD
ROOT
HETATM    1  C   UNL     1      -9.976  13.765  66.983  1.00  0.00    -0.251 C  
HETATM    2  C   UNL     1      -9.866  12.489  66.130  1.00  0.00    -0.258 C  
HETATM    3  C   UNL     1     -11.048  11.510  66.413  1.00  0.00    -0.328 C  
HETATM    4  N   UNL     1      -9.800  12.879  64.684  1.00  0.00    -0.569 NA 
HETATM    5  C   UNL     1      -8.543  11.691  66.361  1.00  0.00    -0.143 C  
HETATM    6  H2  UNL     1     -11.145  14.397  64.757  1.00  0.00     0.000 HD 
HETATM    7  H   UNL     1      -9.608  12.060  64.108  1.00  0.00     0.000 HD 
HETATM    8  O   UNL     1      -8.302  10.644  65.764  1.00  0.00    -0.156 OA 
HETATM    9  O   UNL     1      -7.640  12.207  67.222  1.00  0.00    -0.145 OA 
HETATM   10  N   UNL     1     -10.954  13.577  64.182  1.00  0.00    -0.556 NA 
HETATM   11  H1  UNL     1     -10.909  13.843  63.197  1.00  0.00     0.000 HD 
ENDROOT
BRANCH   3  12
HETATM   12  C   UNL     1     -11.154  11.012  67.843  1.00  0.00    -0.347 A  
HETATM   13  C   UNL     1     -10.556   9.799  68.227  1.00  0.00    -0.271 A  
HETATM   14  C   UNL     1     -10.702   9.343  69.534  1.00  0.00    -0.222 A  
HETATM   15  C   UNL     1     -11.420  10.087  70.466  1.00  0.00    -0.330 A  
HETATM   16  O   UNL     1     -10.162   8.157  69.951  1.00  0.00    -0.196 OA 
HETATM   17  H   UNL     1     -10.261   7.847  70.843  1.00  0.00     0.000 HD 
HETATM   18  C   UNL     1     -12.001  11.293  70.111  1.00  0.00    -0.452 A  
HETATM   19  O   UNL     1     -11.561   9.630  71.743  1.00  0.00    -0.378 OA 
HETATM   20  C   UNL     1     -11.867  11.757  68.800  1.00  0.00    -0.380 A  
HETATM   21  H   UNL     1     -12.052  10.137  72.379  1.00  0.00     0.000 HD 
ENDBRANCH   3  12
TORSDOF 1
ENDMDL
MODEL       80
REMARK 921   NORMALIZED FREE ENERGY PREDICTED BY IDOCK:   -5.45 KCAL/MOL
REMARK 922        TOTAL FREE ENERGY PREDICTED BY IDOCK:   -4.95 KCAL/MOL
REMARK 923 INTER-LIGAND FREE ENERGY PREDICTED BY IDOCK:   -5.05 KCAL/MOL
REMARK 924 INTRA-LIGAND FREE ENERGY PREDICTED BY IDOCK:    0.10 KCAL/MOL
REMARK 927      BINDING AFFINITY PREDICTED BY RF-SCORE:    0.00 PKD
ROOT
HETATM    1  C   UNL     1     -11.141  12.496  69.219  1.00  0.00    -0.203 C  
HETATM    2  C   UNL     1     -10.743  13.976  69.358  1.00  0.00    -0.052 C  
HETATM    3  C   UNL     1     -11.720  14.904  68.572  1.00  0.00    -0.338 C  
HETATM    4  N   UNL     1     -10.690  14.327  70.814  1.00  0.00     0.175 NA 
HETATM    5  C   UNL     1      -9.301  14.289  68.847  1.00  0.00    -0.053 C  
HETATM    6  H2  UNL     1     -12.310  13.256  71.404  1.00  0.00     0.000 HD 
HETATM    7  H   UNL     1     -10.315  15.268  70.934  1.00  0.00     0.000 HD 
HETATM    8  O   UNL     1      -8.832  15.425  68.879  1.00  0.00    -0.181 OA 
HETATM    9  O   UNL     1      -8.556  13.259  68.393  1.00  0.00    -0.173 OA 
HETATM   10  N   UNL     1     -11.935  14.197  71.524  1.00  0.00    -0.382 NA 
HETATM   11  H1  UNL     1     -11.899  14.436  72.516  1.00  0.00     0.000 HD 
ENDROOT
BRANCH   3  12
HETATM   12  C   UNL     1     -11.791  14.661  67.075  1.00  0.00    -0.358 A  
HETATM   13  C   UNL     1     -11.334  15.633  66.168  1.00  0.00     0.069 A  
HETATM   14  C   UNL     1     -11.446  15.403  64.800  1.00  0.00    -0.336 A  
HETATM   15  C   UNL     1     -11.991  14.214  64.325  1.00  0.00    -0.435 A  
HETATM   16  O   UNL     1     -11.040  16.328  63.876  1.00  0.00    -1.111 OA 
HETATM   17  H   UNL     1     -11.117  16.170  62.942  1.00  0.00     0.000 HD 
HETATM   18  C   UNL     1     -12.430  13.237  65.204  1.00  0.00    -0.525 A  
HETATM   19  O   UNL     1     -12.101  14.000  62.982  1.00  0.00    -0.791 OA 
HETATM   20  C   UNL     1     -12.328  13.460  66.579  1.00  0.00    -0.354 A  
HETATM   21  H   UNL     1     -12.473  13.188  62.659  1.00  0.00     0.000 HD 
ENDBRANCH   3  12
TORSDOF 1
ENDMDL
MODEL       81
REMARK 921   NORMALIZED FREE ENERGY PREDICTED BY IDOCK:   -5.42 KCAL/MOL
REMARK 922        TOTAL FREE ENERGY PREDICTED BY IDOCK:   -4.92 KCAL/MOL
REMARK 923 INTER-LIGAND FREE ENERGY PREDICTED BY IDOCK:   -5.34 KCAL/MOL
REMARK 924 INTRA-LIGAND FREE ENERGY PREDICTED BY IDOCK:    0.42 KCAL/MOL
REMARK 927      BINDING AFFINITY PREDICTED BY RF-SCORE:    0.00 PKD
ROOT
HETATM    1  C   UNL     1     -10.242  14.327  66.625  1.00  0.00    -0.272 C  
HETATM    2  C   UNL     1     -11.576  13.559  66.636  1.00  0.00    -0.363 C  
HETATM    3  C   UNL     1     -11.440  12.191  67.374  1.00  0.00    -0.415 C  
HETATM    4  N   UNL     1     -12.627  14.428  67.260  1.00  0.00    -0.416 NA 
HETATM    5  C   UNL     1     -12.140  13.258  65.211  1.00  0.00    -0.418 C  
HETATM    6  H2  UNL     1     -11.470  15.237  68.718  1.00  0.00     0.000 HD 
HETATM    7  H   UNL     1     -13.542  13.988  67.172  1.00  0.00     0.000 HD 
HETATM    8  O   UNL     1     -13.192  12.647  65.043  1.00  0.00    -0.753 OA 
HETATM    9  O   UNL     1     -11.448  13.725  64.150  1.00  0.00    -0.364 OA 
HETATM   10  N   UNL     1     -12.386  14.797  68.630  1.00  0.00    -0.591 NA 
HETATM   11  H1  UNL     1     -13.102  15.388  69.055  1.00  0.00     0.000 HD 
ENDROOT
BRANCH   3  12
HETATM   12  C   UNL     1     -10.441  11.220  66.772  1.00  0.00    -0.291 A  
HETATM   13  C   UNL     1     -10.733   9.848  66.690  1.00  0.00    -0.116 A  
HETATM   14  C   UNL     1      -9.785   8.972  66.170  1.00  0.00    -0.283 A  
HETATM   15  C   UNL     1      -8.557   9.448  65.717  1.00  0.00    -0.145 A  
HETATM   16  O   UNL     1     -10.010   7.625  66.093  1.00  0.00    -0.456 OA 
HETATM   17  H   UNL     1      -9.362   7.027  65.737  1.00  0.00     0.000 HD 
HETATM   18  C   UNL     1      -8.258  10.799  65.773  1.00  0.00    -0.146 A  
HETATM   19  O   UNL     1      -7.632   8.581  65.213  1.00  0.00    -0.083 OA 
HETATM   20  C   UNL     1      -9.200  11.686  66.299  1.00  0.00    -0.225 A  
HETATM   21  H   UNL     1      -6.795   8.906  64.904  1.00  0.00     0.000 HD 
ENDBRANCH   3  12
TORSDOF 1
ENDMDL
MODEL       82
REMARK 921   NORMALIZED FREE ENERGY PREDICTED BY IDOCK:   -5.42 KCAL/MOL
REMARK 922        TOTAL FREE ENERGY PREDICTED BY IDOCK:   -4.91 KCAL/MOL
REMARK 923 INTER-LIGAND FREE ENERGY PREDICTED BY IDOCK:   -5.32 KCAL/MOL
REMARK 924 INTRA-LIGAND FREE ENERGY PREDICTED BY IDOCK:    0.41 KCAL/MOL
REMARK 927      BINDING AFFINITY PREDICTED BY RF-SCORE:    0.00 PKD
ROOT
HETATM    1  C   UNL     1      -8.895   6.870  70.015  1.00  0.00    -0.142 C  
HETATM    2  C   UNL     1      -9.175   8.087  69.116  1.00  0.00    -0.151 C  
HETATM    3  C   UNL     1      -9.520   9.352  69.960  1.00  0.00    -0.257 C  
HETATM    4  N   UNL     1      -7.988   8.315  68.229  1.00  0.00    -0.118 NA 
HETATM    5  C   UNL     1     -10.352   7.869  68.113  1.00  0.00    -0.200 C  
HETATM    6  H2  UNL     1      -6.550   7.894  69.598  1.00  0.00     0.000 HD 
HETATM    7  H   UNL     1      -8.197   9.041  67.544  1.00  0.00     0.000 HD 
HETATM    8  O   UNL     1     -10.710   8.745  67.329  1.00  0.00    -0.276 OA 
HETATM    9  O   UNL     1     -10.955   6.661  68.103  1.00  0.00    -0.260 OA 
HETATM   10  N   UNL     1      -6.759   8.620  68.913  1.00  0.00    -0.053 NA 
HETATM   11  H1  UNL     1      -5.951   8.775  68.309  1.00  0.00     0.000 HD 
ENDROOT
BRANCH   3  12
HETATM   12  C   UNL     1     -10.750   9.233  70.843  1.00  0.00    -0.371 A  
HETATM   13  C   UNL     1     -11.659  10.298  70.955  1.00  0.00    -0.454 A  
HETATM   14  C   UNL     1     -12.758  10.180  71.802  1.00  0.00    -0.434 A  
HETATM   15  C   UNL     1     -12.969   9.009  72.525  1.00  0.00    -0.361 A  
HETATM   16  O   UNL     1     -13.658  11.197  71.966  1.00  0.00    -0.372 OA 
HETATM   17  H   UNL     1     -14.408  11.115  72.544  1.00  0.00     0.000 HD 
HETATM   18  C   UNL     1     -12.094   7.941  72.413  1.00  0.00    -0.336 A  
HETATM   19  O   UNL     1     -14.046   8.904  73.355  1.00  0.00    -1.256 OA 
HETATM   20  C   UNL     1     -10.985   8.052  71.572  1.00  0.00    -0.279 A  
HETATM   21  H   UNL     1     -14.190   8.104  73.849  1.00  0.00     0.000 HD 
ENDBRANCH   3  12
TORSDOF 1
ENDMDL
MODEL       83
REMARK 921   NORMALIZED FREE ENERGY PREDICTED BY IDOCK:   -5.41 KCAL/MOL
REMARK 922        TOTAL FREE ENERGY PREDICTED BY IDOCK:   -4.90 KCAL/MOL
REMARK 923 INTER-LIGAND FREE ENERGY PREDICTED BY IDOCK:   -4.93 KCAL/MOL
REMARK 924 INTRA-LIGAND FREE ENERGY PREDICTED BY IDOCK:    0.02 KCAL/MOL
REMARK 927      BINDING AFFINITY PREDICTED BY RF-SCORE:    0.00 PKD
ROOT
HETATM    1  C   UNL     1     -11.928  14.327  67.627  1.00  0.00    -0.400 C  
HETATM    2  C   UNL     1     -10.526  13.886  68.084  1.00  0.00    -0.245 C  
HETATM    3  C   UNL     1      -9.792  15.029  68.852  1.00  0.00    -0.233 C  
HETATM    4  N   UNL     1     -10.658  12.648  68.919  1.00  0.00    -0.399 NA 
HETATM    5  C   UNL     1      -9.592  13.447  66.912  1.00  0.00    -0.257 C  
HETATM    6  H2  UNL     1     -12.347  13.177  69.912  1.00  0.00     0.000 HD 
HETATM    7  H   UNL     1      -9.735  12.271  69.135  1.00  0.00     0.000 HD 
HETATM    8  O   UNL     1      -8.437  13.075  67.105  1.00  0.00    -0.191 OA 
HETATM    9  O   UNL     1     -10.105  13.453  65.663  1.00  0.00    -0.289 OA 
HETATM   10  N   UNL     1     -11.424  12.800  70.128  1.00  0.00    -0.519 NA 
HETATM   11  H1  UNL     1     -11.513  11.957  70.697  1.00  0.00     0.000 HD 
ENDROOT
BRANCH   3  12
HETATM   12  C   UNL     1      -9.558  16.303  68.060  1.00  0.00    -0.224 A  
HETATM   13  C   UNL     1      -8.311  16.559  67.465  1.00  0.00    -0.179 A  
HETATM   14  C   UNL     1      -8.109  17.753  66.778  1.00  0.00    -0.239 A  
HETATM   15  C   UNL     1      -9.137  18.684  66.661  1.00  0.00    -0.306 A  
HETATM   16  O   UNL     1      -6.906  18.062  66.204  1.00  0.00    -0.226 OA 
HETATM   17  H   UNL     1      -6.768  18.876  65.734  1.00  0.00     0.000 HD 
HETATM   18  C   UNL     1     -10.378  18.441  67.225  1.00  0.00    -0.417 A  
HETATM   19  O   UNL     1      -8.927  19.853  65.989  1.00  0.00    -0.419 OA 
HETATM   20  C   UNL     1     -10.590  17.249  67.923  1.00  0.00    -0.384 A  
HETATM   21  H   UNL     1      -9.629  20.488  65.910  1.00  0.00     0.000 HD 
ENDBRANCH   3  12
TORSDOF 1
ENDMDL
MODEL       84
REMARK 921   NORMALIZED FREE ENERGY PREDICTED BY IDOCK:   -5.38 KCAL/MOL
REMARK 922        TOTAL FREE ENERGY PREDICTED BY IDOCK:   -4.88 KCAL/MOL
REMARK 923 INTER-LIGAND FREE ENERGY PREDICTED BY IDOCK:   -4.90 KCAL/MOL
REMARK 924 INTRA-LIGAND FREE ENERGY PREDICTED BY IDOCK:    0.02 KCAL/MOL
REMARK 927      BINDING AFFINITY PREDICTED BY RF-SCORE:    0.00 PKD
ROOT
HETATM    1  C   UNL     1      -9.554  13.557  68.287  1.00  0.00    -0.218 C  
HETATM    2  C   UNL     1     -10.971  14.154  68.230  1.00  0.00    -0.251 C  
HETATM    3  C   UNL     1     -11.158  15.057  66.971  1.00  0.00    -0.334 C  
HETATM    4  N   UNL     1     -11.968  13.035  68.267  1.00  0.00    -0.318 NA 
HETATM    5  C   UNL     1     -11.339  15.022  69.475  1.00  0.00    -0.288 C  
HETATM    6  H2  UNL     1     -10.952  11.736  67.084  1.00  0.00     0.000 HD 
HETATM    7  H   UNL     1     -12.913  13.410  68.348  1.00  0.00     0.000 HD 
HETATM    8  O   UNL     1     -12.430  15.577  69.582  1.00  0.00    -0.270 OA 
HETATM    9  O   UNL     1     -10.426  15.120  70.465  1.00  0.00    -0.179 OA 
HETATM   10  N   UNL     1     -11.897  12.111  67.166  1.00  0.00    -0.591 NA 
HETATM   11  H1  UNL     1     -12.575  11.349  67.191  1.00  0.00     0.000 HD 
ENDROOT
BRANCH   3  12
HETATM   12  C   UNL     1     -10.230  16.255  66.882  1.00  0.00    -0.288 A  
HETATM   13  C   UNL     1     -10.631  17.511  67.369  1.00  0.00    -0.311 A  
HETATM   14  C   UNL     1      -9.778  18.603  67.240  1.00  0.00    -0.302 A  
HETATM   15  C   UNL     1      -8.527  18.456  66.648  1.00  0.00    -0.269 A  
HETATM   16  O   UNL     1     -10.131  19.852  67.674  1.00  0.00    -0.380 OA 
HETATM   17  H   UNL     1      -9.548  20.597  67.586  1.00  0.00     0.000 HD 
HETATM   18  C   UNL     1      -8.107  17.222  66.179  1.00  0.00    -0.272 A  
HETATM   19  O   UNL     1      -7.699  19.534  66.523  1.00  0.00    -0.252 OA 
HETATM   20  C   UNL     1      -8.957  16.121  66.297  1.00  0.00    -0.379 A  
HETATM   21  H   UNL     1      -6.845  19.433  66.119  1.00  0.00     0.000 HD 
ENDBRANCH   3  12
TORSDOF 1
ENDMDL
MODEL       85
REMARK 921   NORMALIZED FREE ENERGY PREDICTED BY IDOCK:   -5.34 KCAL/MOL
REMARK 922        TOTAL FREE ENERGY PREDICTED BY IDOCK:   -4.84 KCAL/MOL
REMARK 923 INTER-LIGAND FREE ENERGY PREDICTED BY IDOCK:   -4.91 KCAL/MOL
REMARK 924 INTRA-LIGAND FREE ENERGY PREDICTED BY IDOCK:    0.08 KCAL/MOL
REMARK 927      BINDING AFFINITY PREDICTED BY RF-SCORE:    0.00 PKD
ROOT
HETATM    1  C   UNL     1      -9.392  11.336  68.945  1.00  0.00    -0.084 C  
HETATM    2  C   UNL     1     -10.377  12.426  68.487  1.00  0.00    -0.221 C  
HETATM    3  C   UNL     1     -11.394  11.871  67.441  1.00  0.00    -0.389 C  
HETATM    4  N   UNL     1     -11.069  12.988  69.692  1.00  0.00    -0.468 NA 
HETATM    5  C   UNL     1      -9.686  13.668  67.841  1.00  0.00    -0.234 C  
HETATM    6  H2  UNL     1     -11.289  11.245  70.709  1.00  0.00     0.000 HD 
HETATM    7  H   UNL     1     -11.639  13.791  69.427  1.00  0.00     0.000 HD 
HETATM    8  O   UNL     1     -10.330  14.624  67.416  1.00  0.00    -0.240 OA 
HETATM    9  O   UNL     1      -8.337  13.682  67.793  1.00  0.00    -0.153 OA 
HETATM   10  N   UNL     1     -11.859  12.048  70.443  1.00  0.00    -0.519 NA 
HETATM   11  H1  UNL     1     -12.330  12.431  71.264  1.00  0.00     0.000 HD 
ENDROOT
BRANCH   3  12
HETATM   12  C   UNL     1     -10.784  11.337  66.157  1.00  0.00    -0.307 A  
HETATM   13  C   UNL     1     -10.111  10.104  66.141  1.00  0.00    -0.314 A  
HETATM   14  C   UNL     1      -9.526   9.654  64.961  1.00  0.00    -0.245 A  
HETATM   15  C   UNL     1      -9.617  10.409  63.795  1.00  0.00    -0.310 A  
HETATM   16  O   UNL     1      -8.837   8.474  64.899  1.00  0.00    -0.382 OA 
HETATM   17  H   UNL     1      -8.438   8.167  64.093  1.00  0.00     0.000 HD 
HETATM   18  C   UNL     1     -10.293  11.619  63.787  1.00  0.00    -0.445 A  
HETATM   19  O   UNL     1      -9.037   9.962  62.644  1.00  0.00    -0.253 OA 
HETATM   20  C   UNL     1     -10.878  12.082  64.967  1.00  0.00    -0.351 A  
HETATM   21  H   UNL     1      -9.099  10.478  61.848  1.00  0.00     0.000 HD 
ENDBRANCH   3  12
TORSDOF 1
ENDMDL
MODEL       86
REMARK 921   NORMALIZED FREE ENERGY PREDICTED BY IDOCK:   -5.34 KCAL/MOL
REMARK 922        TOTAL FREE ENERGY PREDICTED BY IDOCK:   -4.83 KCAL/MOL
REMARK 923 INTER-LIGAND FREE ENERGY PREDICTED BY IDOCK:   -4.92 KCAL/MOL
REMARK 924 INTRA-LIGAND FREE ENERGY PREDICTED BY IDOCK:    0.09 KCAL/MOL
REMARK 927      BINDING AFFINITY PREDICTED BY RF-SCORE:    0.00 PKD
ROOT
HETATM    1  C   UNL     1      -9.192  15.344  65.344  1.00  0.00     0.358 C  
HETATM    2  C   UNL     1     -10.725  15.464  65.404  1.00  0.00    -0.400 C  
HETATM    3  C   UNL     1     -11.243  15.438  66.875  1.00  0.00    -0.214 C  
HETATM    4  N   UNL     1     -11.139  16.716  64.690  1.00  0.00    -0.898 NA 
HETATM    5  C   UNL     1     -11.475  14.332  64.633  1.00  0.00    -0.385 C  
HETATM    6  H2  UNL     1      -9.621  17.901  65.330  1.00  0.00     0.000 HD 
HETATM    7  H   UNL     1     -12.155  16.757  64.614  1.00  0.00     0.000 HD 
HETATM    8  O   UNL     1     -12.702  14.277  64.588  1.00  0.00    -0.655 OA 
HETATM    9  O   UNL     1     -10.729  13.418  63.976  1.00  0.00    -0.342 OA 
HETATM   10  N   UNL     1     -10.637  17.941  65.254  1.00  0.00    -0.546 NA 
HETATM   11  H1  UNL     1     -10.918  18.794  64.768  1.00  0.00     0.000 HD 
ENDROOT
BRANCH   3  12
HETATM   12  C   UNL     1     -10.923  14.177  67.657  1.00  0.00    -0.278 A  
HETATM   13  C   UNL     1      -9.609  13.904  68.073  1.00  0.00    -0.219 A  
HETATM   14  C   UNL     1      -9.334  12.721  68.754  1.00  0.00     0.147 A  
HETATM   15  C   UNL     1     -10.353  11.817  69.039  1.00  0.00    -0.059 A  
HETATM   16  O   UNL     1      -8.068  12.396  69.158  1.00  0.00    -0.329 OA 
HETATM   17  H   UNL     1      -7.881  11.589  69.623  1.00  0.00     0.000 HD 
HETATM   18  C   UNL     1     -11.658  12.077  68.653  1.00  0.00    -0.372 A  
HETATM   19  O   UNL     1     -10.074  10.658  69.703  1.00  0.00    -0.380 OA 
HETATM   20  C   UNL     1     -11.944  13.258  67.964  1.00  0.00    -0.351 A  
HETATM   21  H   UNL     1     -10.770  10.041  69.898  1.00  0.00     0.000 HD 
ENDBRANCH   3  12
TORSDOF 1
ENDMDL
MODEL       87
REMARK 921   NORMALIZED FREE ENERGY PREDICTED BY IDOCK:   -5.31 KCAL/MOL
REMARK 922        TOTAL FREE ENERGY PREDICTED BY IDOCK:   -4.81 KCAL/MOL
REMARK 923 INTER-LIGAND FREE ENERGY PREDICTED BY IDOCK:   -4.90 KCAL/MOL
REMARK 924 INTRA-LIGAND FREE ENERGY PREDICTED BY IDOCK:    0.09 KCAL/MOL
REMARK 927      BINDING AFFINITY PREDICTED BY RF-SCORE:    0.00 PKD
ROOT
HETATM    1  C   UNL     1      -8.915  12.478  68.420  1.00  0.00    -0.130 C  
HETATM    2  C   UNL     1      -9.704  11.226  67.997  1.00  0.00    -0.179 C  
HETATM    3  C   UNL     1     -11.239  11.507  67.957  1.00  0.00    -0.335 C  
HETATM    4  N   UNL     1      -9.188  10.757  66.670  1.00  0.00    -0.163 NA 
HETATM    5  C   UNL     1      -9.486   9.998  68.937  1.00  0.00    -0.172 C  
HETATM    6  H2  UNL     1      -8.915  12.584  65.830  1.00  0.00     0.000 HD 
HETATM    7  H   UNL     1      -9.614   9.863  66.425  1.00  0.00     0.000 HD 
HETATM    8  O   UNL     1     -10.050   8.923  68.744  1.00  0.00    -0.188 OA 
HETATM    9  O   UNL     1      -8.622  10.138  69.964  1.00  0.00    -0.152 OA 
HETATM   10  N   UNL     1      -9.340  11.690  65.585  1.00  0.00    -0.316 NA 
HETATM   11  H1  UNL     1      -8.989  11.370  64.682  1.00  0.00     0.000 HD 
ENDROOT
BRANCH   3  12
HETATM   12  C   UNL     1     -11.860  11.928  69.276  1.00  0.00    -0.379 A  
HETATM   13  C   UNL     1     -12.018  13.288  69.593  1.00  0.00    -0.376 A  
HETATM   14  C   UNL     1     -12.554  13.650  70.826  1.00  0.00    -0.325 A  
HETATM   15  C   UNL     1     -12.949  12.675  71.738  1.00  0.00    -0.313 A  
HETATM   16  O   UNL     1     -12.703  14.959  71.193  1.00  0.00    -0.298 OA 
HETATM   17  H   UNL     1     -13.070  15.206  72.035  1.00  0.00     0.000 HD 
HETATM   18  C   UNL     1     -12.819  11.330  71.435  1.00  0.00    -0.515 A  
HETATM   19  O   UNL     1     -13.469  13.040  72.945  1.00  0.00    -0.634 OA 
HETATM   20  C   UNL     1     -12.276  10.956  70.204  1.00  0.00    -0.423 A  
HETATM   21  H   UNL     1     -13.739  12.374  73.567  1.00  0.00     0.000 HD 
ENDBRANCH   3  12
TORSDOF 1
ENDMDL
MODEL       88
REMARK 921   NORMALIZED FREE ENERGY PREDICTED BY IDOCK:   -5.31 KCAL/MOL
REMARK 922        TOTAL FREE ENERGY PREDICTED BY IDOCK:   -4.80 KCAL/MOL
REMARK 923 INTER-LIGAND FREE ENERGY PREDICTED BY IDOCK:   -4.89 KCAL/MOL
REMARK 924 INTRA-LIGAND FREE ENERGY PREDICTED BY IDOCK:    0.08 KCAL/MOL
REMARK 927      BINDING AFFINITY PREDICTED BY RF-SCORE:    0.00 PKD
ROOT
HETATM    1  C   UNL     1     -10.560   5.027  72.259  1.00  0.00    -0.269 C  
HETATM    2  C   UNL     1      -9.330   5.659  71.583  1.00  0.00    -0.146 C  
HETATM    3  C   UNL     1      -9.050   7.092  72.134  1.00  0.00    -0.141 C  
HETATM    4  N   UNL     1      -8.154   4.749  71.774  1.00  0.00    -0.106 NA 
HETATM    5  C   UNL     1      -9.458   5.781  70.031  1.00  0.00    -0.158 C  
HETATM    6  H2  UNL     1      -8.562   4.184  73.679  1.00  0.00     0.000 HD 
HETATM    7  H   UNL     1      -7.357   5.089  71.235  1.00  0.00     0.000 HD 
HETATM    8  O   UNL     1      -8.568   6.271  69.341  1.00  0.00    -0.123 OA 
HETATM    9  O   UNL     1     -10.577   5.294  69.452  1.00  0.00    -0.252 OA 
HETATM   10  N   UNL     1      -7.766   4.524  73.141  1.00  0.00    -0.086 NA 
HETATM   11  H1  UNL     1      -6.965   3.904  73.271  1.00  0.00     0.000 HD 
ENDROOT
BRANCH   3  12
HETATM   12  C   UNL     1     -10.166   8.100  71.927  1.00  0.00    -0.289 A  
HETATM   13  C   UNL     1     -11.348   8.028  72.684  1.00  0.00    -0.469 A  
HETATM   14  C   UNL     1     -12.373   8.940  72.448  1.00  0.00    -0.315 A  
HETATM   15  C   UNL     1     -12.229   9.930  71.481  1.00  0.00    -0.416 A  
HETATM   16  O   UNL     1     -13.553   8.896  73.139  1.00  0.00    -0.997 OA 
HETATM   17  H   UNL     1     -14.253   9.519  72.978  1.00  0.00     0.000 HD 
HETATM   18  C   UNL     1     -11.064  10.029  70.738  1.00  0.00    -0.407 A  
HETATM   19  O   UNL     1     -13.241  10.817  71.254  1.00  0.00    -0.347 OA 
HETATM   20  C   UNL     1     -10.032   9.115  70.962  1.00  0.00    -0.367 A  
HETATM   21  H   UNL     1     -13.142  11.493  70.594  1.00  0.00     0.000 HD 
ENDBRANCH   3  12
TORSDOF 1
ENDMDL
MODEL       89
REMARK 921   NORMALIZED FREE ENERGY PREDICTED BY IDOCK:   -5.28 KCAL/MOL
REMARK 922        TOTAL FREE ENERGY PREDICTED BY IDOCK:   -4.77 KCAL/MOL
REMARK 923 INTER-LIGAND FREE ENERGY PREDICTED BY IDOCK:   -4.92 KCAL/MOL
REMARK 924 INTRA-LIGAND FREE ENERGY PREDICTED BY IDOCK:    0.15 KCAL/MOL
REMARK 927      BINDING AFFINITY PREDICTED BY RF-SCORE:    0.00 PKD
ROOT
HETATM    1  C   UNL     1     -10.026  14.592  68.652  1.00  0.00    -0.237 C  
HETATM    2  C   UNL     1     -11.406  14.232  68.074  1.00  0.00    -0.294 C  
HETATM    3  C   UNL     1     -11.861  12.810  68.528  1.00  0.00    -0.345 C  
HETATM    4  N   UNL     1     -12.390  15.288  68.481  1.00  0.00    -0.508 NA 
HETATM    5  C   UNL     1     -11.460  14.255  66.514  1.00  0.00    -0.360 C  
HETATM    6  H2  UNL     1     -11.700  15.580  70.367  1.00  0.00     0.000 HD 
HETATM    7  H   UNL     1     -13.283  15.134  68.014  1.00  0.00     0.000 HD 
HETATM    8  O   UNL     1     -12.486  13.984  65.894  1.00  0.00    -0.470 OA 
HETATM    9  O   UNL     1     -10.342  14.621  65.851  1.00  0.00    -0.289 OA 
HETATM   10  N   UNL     1     -12.593  15.426  69.900  1.00  0.00    -0.615 NA 
HETATM   11  H1  UNL     1     -13.262  16.145  70.177  1.00  0.00     0.000 HD 
ENDROOT
BRANCH   3  12
HETATM   12  C   UNL     1     -10.955  11.668  68.104  1.00  0.00    -0.275 A  
HETATM   13  C   UNL     1     -10.952  11.210  66.775  1.00  0.00    -0.309 A  
HETATM   14  C   UNL     1     -10.141  10.136  66.419  1.00  0.00    -0.236 A  
HETATM   15  C   UNL     1      -9.323   9.524  67.365  1.00  0.00    -0.130 A  
HETATM   16  O   UNL     1     -10.122   9.635  65.146  1.00  0.00    -0.387 OA 
HETATM   17  H   UNL     1      -9.568   8.902  64.904  1.00  0.00     0.000 HD 
HETATM   18  C   UNL     1      -9.299   9.974  68.675  1.00  0.00    -0.156 A  
HETATM   19  O   UNL     1      -8.536   8.469  67.008  1.00  0.00    -0.112 OA 
HETATM   20  C   UNL     1     -10.113  11.047  69.044  1.00  0.00    -0.197 A  
HETATM   21  H   UNL     1      -7.978   8.052  67.654  1.00  0.00     0.000 HD 
ENDBRANCH   3  12
TORSDOF 1
ENDMDL
MODEL       90
REMARK 921   NORMALIZED FREE ENERGY PREDICTED BY IDOCK:   -5.24 KCAL/MOL
REMARK 922        TOTAL FREE ENERGY PREDICTED BY IDOCK:   -4.73 KCAL/MOL
REMARK 923 INTER-LIGAND FREE ENERGY PREDICTED BY IDOCK:   -4.75 KCAL/MOL
REMARK 924 INTRA-LIGAND FREE ENERGY PREDICTED BY IDOCK:    0.02 KCAL/MOL
REMARK 927      BINDING AFFINITY PREDICTED BY RF-SCORE:    0.00 PKD
ROOT
HETATM    1  C   UNL     1      -9.838  11.639  68.678  1.00  0.00    -0.173 C  
HETATM    2  C   UNL     1     -11.062  11.321  67.800  1.00  0.00    -0.271 C  
HETATM    3  C   UNL     1     -10.838  10.026  66.959  1.00  0.00    -0.196 C  
HETATM    4  N   UNL     1     -12.271  11.212  68.680  1.00  0.00    -0.705 NA 
HETATM    5  C   UNL     1     -11.431  12.461  66.799  1.00  0.00    -0.362 C  
HETATM    6  H2  UNL     1     -11.383  10.258  70.235  1.00  0.00     0.000 HD 
HETATM    7  H   UNL     1     -13.112  11.119  68.110  1.00  0.00     0.000 HD 
HETATM    8  O   UNL     1     -12.377  12.363  66.021  1.00  0.00    -0.627 OA 
HETATM    9  O   UNL     1     -10.694  13.592  66.834  1.00  0.00    -0.272 OA 
HETATM   10  N   UNL     1     -12.224  10.164  69.665  1.00  0.00    -0.499 NA 
HETATM   11  H1  UNL     1     -13.047  10.091  70.264  1.00  0.00     0.000 HD 
ENDROOT
BRANCH   3  12
HETATM   12  C   UNL     1      -9.669  10.070  65.991  1.00  0.00    -0.301 A  
HETATM   13  C   UNL     1      -9.872  10.372  64.634  1.00  0.00    -0.405 A  
HETATM   14  C   UNL     1      -8.790  10.366  63.759  1.00  0.00    -0.212 A  
HETATM   15  C   UNL     1      -7.509  10.081  64.221  1.00  0.00    -0.137 A  
HETATM   16  O   UNL     1      -8.938  10.628  62.424  1.00  0.00    -0.237 OA 
HETATM   17  H   UNL     1      -8.199  10.625  61.827  1.00  0.00     0.000 HD 
HETATM   18  C   UNL     1      -7.286   9.798  65.559  1.00  0.00    -0.112 A  
HETATM   19  O   UNL     1      -6.455  10.073  63.354  1.00  0.00    -0.125 OA 
HETATM   20  C   UNL     1      -8.366   9.795  66.445  1.00  0.00    -0.120 A  
HETATM   21  H   UNL     1      -5.580   9.878  63.670  1.00  0.00     0.000 HD 
ENDBRANCH   3  12
TORSDOF 1
ENDMDL
MODEL       91
REMARK 921   NORMALIZED FREE ENERGY PREDICTED BY IDOCK:   -5.24 KCAL/MOL
REMARK 922        TOTAL FREE ENERGY PREDICTED BY IDOCK:   -4.72 KCAL/MOL
REMARK 923 INTER-LIGAND FREE ENERGY PREDICTED BY IDOCK:   -5.09 KCAL/MOL
REMARK 924 INTRA-LIGAND FREE ENERGY PREDICTED BY IDOCK:    0.36 KCAL/MOL
REMARK 927      BINDING AFFINITY PREDICTED BY RF-SCORE:    0.00 PKD
ROOT
HETATM    1  C   UNL     1     -10.145  18.254  66.139  1.00  0.00    -0.354 C  
HETATM    2  C   UNL     1      -8.867  17.744  66.829  1.00  0.00    -0.260 C  
HETATM    3  C   UNL     1      -8.390  16.390  66.217  1.00  0.00    -0.362 C  
HETATM    4  N   UNL     1      -7.810  18.803  66.729  1.00  0.00    -0.237 NA 
HETATM    5  C   UNL     1      -9.027  17.523  68.366  1.00  0.00    -0.276 C  
HETATM    6  H2  UNL     1      -8.227  19.417  64.840  1.00  0.00     0.000 HD 
HETATM    7  H   UNL     1      -6.994  18.537  67.280  1.00  0.00     0.000 HD 
HETATM    8  O   UNL     1      -8.104  17.111  69.065  1.00  0.00    -0.220 OA 
HETATM    9  O   UNL     1     -10.216  17.833  68.926  1.00  0.00    -0.368 OA 
HETATM   10  N   UNL     1      -7.411  19.150  65.391  1.00  0.00    -0.426 NA 
HETATM   11  H1  UNL     1      -6.691  19.871  65.323  1.00  0.00     0.000 HD 
ENDROOT
BRANCH   3  12
HETATM   12  C   UNL     1      -9.375  15.240  66.330  1.00  0.00    -0.328 A  
HETATM   13  C   UNL     1      -8.944  13.963  66.728  1.00  0.00    -0.206 A  
HETATM   14  C   UNL     1      -9.858  12.915  66.786  1.00  0.00    -0.241 A  
HETATM   15  C   UNL     1     -11.197  13.128  66.469  1.00  0.00    -0.310 A  
HETATM   16  O   UNL     1      -9.485  11.648  67.141  1.00  0.00    -0.174 OA 
HETATM   17  H   UNL     1     -10.109  10.933  67.181  1.00  0.00     0.000 HD 
HETATM   18  C   UNL     1     -11.644  14.384  66.093  1.00  0.00    -0.372 A  
HETATM   19  O   UNL     1     -12.085  12.093  66.524  1.00  0.00    -0.627 OA 
HETATM   20  C   UNL     1     -10.733  15.440  66.025  1.00  0.00    -0.326 A  
HETATM   21  H   UNL     1     -12.999  12.239  66.308  1.00  0.00     0.000 HD 
ENDBRANCH   3  12
TORSDOF 1
ENDMDL
MODEL       92
REMARK 921   NORMALIZED FREE ENERGY PREDICTED BY IDOCK:   -5.22 KCAL/MOL
REMARK 922        TOTAL FREE ENERGY PREDICTED BY IDOCK:   -4.70 KCAL/MOL
REMARK 923 INTER-LIGAND FREE ENERGY PREDICTED BY IDOCK:   -4.74 KCAL/MOL
REMARK 924 INTRA-LIGAND FREE ENERGY PREDICTED BY IDOCK:    0.04 KCAL/MOL
REMARK 927      BINDING AFFINITY PREDICTED BY RF-SCORE:    0.00 PKD
ROOT
HETATM    1  C   UNL     1      -8.835   6.004  65.754  1.00  0.00    -0.143 C  
HETATM    2  C   UNL     1      -9.920   5.593  66.765  1.00  0.00    -0.178 C  
HETATM    3  C   UNL     1     -10.990   6.716  66.940  1.00  0.00    -0.396 C  
HETATM    4  N   UNL     1     -10.535   4.303  66.314  1.00  0.00    -0.364 NA 
HETATM    5  C   UNL     1      -9.363   5.264  68.186  1.00  0.00    -0.118 C  
HETATM    6  H2  UNL     1     -10.561   4.702  64.324  1.00  0.00     0.000 HD 
HETATM    7  H   UNL     1     -11.174   3.951  67.027  1.00  0.00     0.000 HD 
HETATM    8  O   UNL     1     -10.099   4.927  69.111  1.00  0.00    -0.199 OA 
HETATM    9  O   UNL     1      -8.027   5.325  68.367  1.00  0.00    -0.087 OA 
HETATM   10  N   UNL     1     -11.199   4.350  65.037  1.00  0.00    -1.057 NA 
HETATM   11  H1  UNL     1     -11.618   3.471  64.730  1.00  0.00     0.000 HD 
ENDROOT
BRANCH   3  12
HETATM   12  C   UNL     1     -10.465   8.044  67.455  1.00  0.00    -0.357 A  
HETATM   13  C   UNL     1     -10.408   8.306  68.834  1.00  0.00    -0.230 A  
HETATM   14  C   UNL     1      -9.960   9.546  69.281  1.00  0.00    -0.187 A  
HETATM   15  C   UNL     1      -9.553  10.520  68.373  1.00  0.00    -0.160 A  
HETATM   16  O   UNL     1      -9.910   9.861  70.611  1.00  0.00    -0.353 OA 
HETATM   17  H   UNL     1      -9.603  10.707  70.916  1.00  0.00     0.000 HD 
HETATM   18  C   UNL     1      -9.585  10.273  67.010  1.00  0.00    -0.205 A  
HETATM   19  O   UNL     1      -9.120  11.734  68.820  1.00  0.00    -0.351 OA 
HETATM   20  C   UNL     1     -10.039   9.034  66.551  1.00  0.00    -0.354 A  
HETATM   21  H   UNL     1      -8.843  12.398  68.199  1.00  0.00     0.000 HD 
ENDBRANCH   3  12
TORSDOF 1
ENDMDL
MODEL       93
REMARK 921   NORMALIZED FREE ENERGY PREDICTED BY IDOCK:   -5.17 KCAL/MOL
REMARK 922        TOTAL FREE ENERGY PREDICTED BY IDOCK:   -4.66 KCAL/MOL
REMARK 923 INTER-LIGAND FREE ENERGY PREDICTED BY IDOCK:   -4.73 KCAL/MOL
REMARK 924 INTRA-LIGAND FREE ENERGY PREDICTED BY IDOCK:    0.07 KCAL/MOL
REMARK 927      BINDING AFFINITY PREDICTED BY RF-SCORE:    0.00 PKD
ROOT
HETATM    1  C   UNL     1      -8.514  10.152  66.271  1.00  0.00    -0.132 C  
HETATM    2  C   UNL     1      -9.201   9.336  67.380  1.00  0.00    -0.126 C  
HETATM    3  C   UNL     1     -10.737   9.605  67.417  1.00  0.00    -0.308 C  
HETATM    4  N   UNL     1      -8.894   7.884  67.172  1.00  0.00    -0.130 NA 
HETATM    5  C   UNL     1      -8.648   9.632  68.811  1.00  0.00    -0.125 C  
HETATM    6  H2  UNL     1      -9.026   7.873  65.147  1.00  0.00     0.000 HD 
HETATM    7  H   UNL     1      -9.239   7.336  67.960  1.00  0.00     0.000 HD 
HETATM    8  O   UNL     1      -9.094   9.071  69.809  1.00  0.00    -0.146 OA 
HETATM    9  O   UNL     1      -7.628  10.508  68.923  1.00  0.00    -0.091 OA 
HETATM   10  N   UNL     1      -9.372   7.325  65.935  1.00  0.00    -0.389 NA 
HETATM   11  H1  UNL     1      -9.163   6.336  65.793  1.00  0.00     0.000 HD 
ENDROOT
BRANCH   3  12
HETATM   12  C   UNL     1     -11.142  11.043  67.687  1.00  0.00    -0.363 A  
HETATM   13  C   UNL     1     -11.218  11.533  69.002  1.00  0.00    -0.324 A  
HETATM   14  C   UNL     1     -11.630  12.843  69.226  1.00  0.00    -0.310 A  
HETATM   15  C   UNL     1     -11.951  13.675  68.157  1.00  0.00    -0.355 A  
HETATM   16  O   UNL     1     -11.746  13.360  70.488  1.00  0.00    -0.519 OA 
HETATM   17  H   UNL     1     -12.027  14.254  70.640  1.00  0.00     0.000 HD 
HETATM   18  C   UNL     1     -11.865  13.216  66.853  1.00  0.00    -0.444 A  
HETATM   19  O   UNL     1     -12.359  14.957  68.387  1.00  0.00    -0.586 OA 
HETATM   20  C   UNL     1     -11.459  11.901  66.617  1.00  0.00    -0.382 A  
HETATM   21  H   UNL     1     -12.578  15.525  67.657  1.00  0.00     0.000 HD 
ENDBRANCH   3  12
TORSDOF 1
ENDMDL
MODEL       94
REMARK 921   NORMALIZED FREE ENERGY PREDICTED BY IDOCK:   -5.17 KCAL/MOL
REMARK 922        TOTAL FREE ENERGY PREDICTED BY IDOCK:   -4.65 KCAL/MOL
REMARK 923 INTER-LIGAND FREE ENERGY PREDICTED BY IDOCK:   -4.82 KCAL/MOL
REMARK 924 INTRA-LIGAND FREE ENERGY PREDICTED BY IDOCK:    0.16 KCAL/MOL
REMARK 927      BINDING AFFINITY PREDICTED BY RF-SCORE:    0.00 PKD
ROOT
HETATM    1  C   UNL     1      -6.693  17.355  68.190  1.00  0.00    -0.178 C  
HETATM    2  C   UNL     1      -7.699  18.471  67.858  1.00  0.00    -0.251 C  
HETATM    3  C   UNL     1      -9.087  18.202  68.519  1.00  0.00    -0.318 C  
HETATM    4  N   UNL     1      -7.121  19.785  68.290  1.00  0.00    -0.293 NA 
HETATM    5  C   UNL     1      -7.947  18.659  66.328  1.00  0.00    -0.252 C  
HETATM    6  H2  UNL     1      -6.267  19.145  70.016  1.00  0.00     0.000 HD 
HETATM    7  H   UNL     1      -7.717  20.551  67.975  1.00  0.00     0.000 HD 
HETATM    8  O   UNL     1      -8.729  19.502  65.894  1.00  0.00    -0.417 OA 
HETATM    9  O   UNL     1      -7.244  17.882  65.477  1.00  0.00    -0.510 OA 
HETATM   10  N   UNL     1      -6.863  19.910  69.701  1.00  0.00    -0.315 NA 
HETATM   11  H1  UNL     1      -6.469  20.805  69.995  1.00  0.00     0.000 HD 
ENDROOT
BRANCH   3  12
HETATM   12  C   UNL     1      -9.777  16.919  68.090  1.00  0.00    -0.254 A  
HETATM   13  C   UNL     1      -9.781  15.792  68.929  1.00  0.00    -0.225 A  
HETATM   14  C   UNL     1     -10.386  14.615  68.497  1.00  0.00    -0.238 A  
HETATM   15  C   UNL     1     -10.999  14.553  67.249  1.00  0.00    -0.305 A  
HETATM   16  O   UNL     1     -10.395  13.483  69.264  1.00  0.00    -0.431 OA 
HETATM   17  H   UNL     1     -10.808  12.679  68.969  1.00  0.00     0.000 HD 
HETATM   18  C   UNL     1     -11.020  15.659  66.415  1.00  0.00    -0.197 A  
HETATM   19  O   UNL     1     -11.585  13.393  66.832  1.00  0.00    -0.329 OA 
HETATM   20  C   UNL     1     -10.411  16.843  66.836  1.00  0.00    -0.304 A  
HETATM   21  H   UNL     1     -12.003  13.351  65.980  1.00  0.00     0.000 HD 
ENDBRANCH   3  12
TORSDOF 1
ENDMDL
MODEL       95
REMARK 921   NORMALIZED FREE ENERGY PREDICTED BY IDOCK:   -5.15 KCAL/MOL
REMARK 922        TOTAL FREE ENERGY PREDICTED BY IDOCK:   -4.63 KCAL/MOL
REMARK 923 INTER-LIGAND FREE ENERGY PREDICTED BY IDOCK:   -4.83 KCAL/MOL
REMARK 924 INTRA-LIGAND FREE ENERGY PREDICTED BY IDOCK:    0.20 KCAL/MOL
REMARK 927      BINDING AFFINITY PREDICTED BY RF-SCORE:    0.00 PKD
ROOT
HETATM    1  C   UNL     1      -9.723  15.571  69.139  1.00  0.00    -0.252 C  
HETATM    2  C   UNL     1     -10.293  15.103  67.788  1.00  0.00    -0.243 C  
HETATM    3  C   UNL     1     -11.780  14.649  67.923  1.00  0.00    -0.379 C  
HETATM    4  N   UNL     1     -10.137  16.210  66.790  1.00  0.00    -0.263 NA 
HETATM    5  C   UNL     1      -9.505  13.914  67.152  1.00  0.00    -0.246 C  
HETATM    6  H2  UNL     1     -10.580  17.752  68.032  1.00  0.00     0.000 HD 
HETATM    7  H   UNL     1     -10.399  15.883  65.860  1.00  0.00     0.000 HD 
HETATM    8  O   UNL     1      -9.835  13.416  66.078  1.00  0.00    -0.286 OA 
HETATM    9  O   UNL     1      -8.414  13.461  67.805  1.00  0.00    -0.155 OA 
HETATM   10  N   UNL     1     -10.842  17.425  67.102  1.00  0.00    -0.173 NA 
HETATM   11  H1  UNL     1     -10.736  18.179  66.422  1.00  0.00     0.000 HD 
ENDROOT
BRANCH   3  12
HETATM   12  C   UNL     1     -12.024  13.486  68.869  1.00  0.00    -0.378 A  
HETATM   13  C   UNL     1     -12.618  13.697  70.125  1.00  0.00    -0.215 A  
HETATM   14  C   UNL     1     -12.796  12.621  70.991  1.00  0.00    -0.166 A  
HETATM   15  C   UNL     1     -12.404  11.340  70.616  1.00  0.00    -0.383 A  
HETATM   16  O   UNL     1     -13.345  12.777  72.235  1.00  0.00    -0.532 OA 
HETATM   17  H   UNL     1     -13.466  12.042  72.825  1.00  0.00     0.000 HD 
HETATM   18  C   UNL     1     -11.833  11.110  69.374  1.00  0.00    -0.415 A  
HETATM   19  O   UNL     1     -12.578  10.293  71.473  1.00  0.00    -0.374 OA 
HETATM   20  C   UNL     1     -11.645  12.183  68.500  1.00  0.00    -0.366 A  
HETATM   21  H   UNL     1     -12.310   9.418  71.216  1.00  0.00     0.000 HD 
ENDBRANCH   3  12
TORSDOF 1
ENDMDL
MODEL       96
REMARK 921   NORMALIZED FREE ENERGY PREDICTED BY IDOCK:   -5.12 KCAL/MOL
REMARK 922        TOTAL FREE ENERGY PREDICTED BY IDOCK:   -4.60 KCAL/MOL
REMARK 923 INTER-LIGAND FREE ENERGY PREDICTED BY IDOCK:   -4.66 KCAL/MOL
REMARK 924 INTRA-LIGAND FREE ENERGY PREDICTED BY IDOCK:    0.06 KCAL/MOL
REMARK 927      BINDING AFFINITY PREDICTED BY RF-SCORE:    0.00 PKD
ROOT
HETATM    1  C   UNL     1     -12.235   6.884  71.110  1.00  0.00    -0.428 C  
HETATM    2  C   UNL     1     -11.508   7.937  71.966  1.00  0.00    -0.300 C  
HETATM    3  C   UNL     1     -11.152   9.205  71.129  1.00  0.00    -0.393 C  
HETATM    4  N   UNL     1     -12.367   8.273  73.148  1.00  0.00    -0.479 NA 
HETATM    5  C   UNL     1     -10.181   7.420  72.605  1.00  0.00    -0.227 C  
HETATM    6  H2  UNL     1     -14.157   8.245  72.192  1.00  0.00     0.000 HD 
HETATM    7  H   UNL     1     -11.857   8.879  73.791  1.00  0.00     0.000 HD 
HETATM    8  O   UNL     1      -9.476   8.138  73.311  1.00  0.00    -0.270 OA 
HETATM    9  O   UNL     1      -9.838   6.132  72.389  1.00  0.00    -0.165 OA 
HETATM   10  N   UNL     1     -13.647   8.851  72.835  1.00  0.00    -0.908 NA 
HETATM   11  H1  UNL     1     -14.232   9.080  73.639  1.00  0.00     0.000 HD 
ENDROOT
BRANCH   3  12
HETATM   12  C   UNL     1     -10.232   8.968  69.945  1.00  0.00    -0.214 A  
HETATM   13  C   UNL     1     -10.750   8.561  68.704  1.00  0.00    -0.082 A  
HETATM   14  C   UNL     1      -9.882   8.312  67.644  1.00  0.00    -0.169 A  
HETATM   15  C   UNL     1      -8.509   8.478  67.801  1.00  0.00    -0.130 A  
HETATM   16  O   UNL     1     -10.334   7.889  66.424  1.00  0.00    -0.482 OA 
HETATM   17  H   UNL     1      -9.741   7.719  65.701  1.00  0.00     0.000 HD 
HETATM   18  C   UNL     1      -7.981   8.895  69.012  1.00  0.00    -0.106 A  
HETATM   19  O   UNL     1      -7.666   8.226  66.758  1.00  0.00    -0.092 OA 
HETATM   20  C   UNL     1      -8.843   9.142  70.083  1.00  0.00    -0.215 A  
HETATM   21  H   UNL     1      -6.729   8.340  66.866  1.00  0.00     0.000 HD 
ENDBRANCH   3  12
TORSDOF 1
ENDMDL
MODEL       97
REMARK 921   NORMALIZED FREE ENERGY PREDICTED BY IDOCK:   -5.06 KCAL/MOL
REMARK 922        TOTAL FREE ENERGY PREDICTED BY IDOCK:   -4.54 KCAL/MOL
REMARK 923 INTER-LIGAND FREE ENERGY PREDICTED BY IDOCK:   -4.60 KCAL/MOL
REMARK 924 INTRA-LIGAND FREE ENERGY PREDICTED BY IDOCK:    0.06 KCAL/MOL
REMARK 927      BINDING AFFINITY PREDICTED BY RF-SCORE:    0.00 PKD
ROOT
HETATM    1  C   UNL     1      -8.248   9.881  70.006  1.00  0.00    -0.187 C  
HETATM    2  C   UNL     1      -9.560   9.908  69.203  1.00  0.00    -0.199 C  
HETATM    3  C   UNL     1     -10.804   9.934  70.146  1.00  0.00    -0.356 C  
HETATM    4  N   UNL     1      -9.537  11.089  68.280  1.00  0.00    -0.165 NA 
HETATM    5  C   UNL     1      -9.736   8.689  68.243  1.00  0.00    -0.155 C  
HETATM    6  H2  UNL     1      -8.649  12.400  69.550  1.00  0.00     0.000 HD 
HETATM    7  H   UNL     1     -10.342  11.062  67.656  1.00  0.00     0.000 HD 
HETATM    8  O   UNL     1     -10.733   8.555  67.537  1.00  0.00    -0.248 OA 
HETATM    9  O   UNL     1      -8.733   7.788  68.181  1.00  0.00    -0.126 OA 
HETATM   10  N   UNL     1      -9.455  12.373  68.926  1.00  0.00    -0.391 NA 
HETATM   11  H1  UNL     1      -9.439  13.177  68.297  1.00  0.00     0.000 HD 
ENDROOT
BRANCH   3  12
HETATM   12  C   UNL     1     -10.944   8.741  71.075  1.00  0.00    -0.328 A  
HETATM   13  C   UNL     1     -10.232   8.687  72.285  1.00  0.00    -0.372 A  
HETATM   14  C   UNL     1     -10.346   7.564  73.101  1.00  0.00    -0.347 A  
HETATM   15  C   UNL     1     -11.171   6.505  72.734  1.00  0.00    -0.224 A  
HETATM   16  O   UNL     1      -9.654   7.451  74.276  1.00  0.00    -0.413 OA 
HETATM   17  H   UNL     1      -9.732   6.685  74.833  1.00  0.00     0.000 HD 
HETATM   18  C   UNL     1     -11.894   6.549  71.554  1.00  0.00    -0.386 A  
HETATM   19  O   UNL     1     -11.272   5.408  73.538  1.00  0.00    -0.438 OA 
HETATM   20  C   UNL     1     -11.782   7.667  70.725  1.00  0.00    -0.260 A  
HETATM   21  H   UNL     1     -11.836   4.685  73.287  1.00  0.00     0.000 HD 
ENDBRANCH   3  12
TORSDOF 1
ENDMDL
MODEL       98
REMARK 921   NORMALIZED FREE ENERGY PREDICTED BY IDOCK:   -5.06 KCAL/MOL
REMARK 922        TOTAL FREE ENERGY PREDICTED BY IDOCK:   -4.54 KCAL/MOL
REMARK 923 INTER-LIGAND FREE ENERGY PREDICTED BY IDOCK:   -4.61 KCAL/MOL
REMARK 924 INTRA-LIGAND FREE ENERGY PREDICTED BY IDOCK:    0.08 KCAL/MOL
REMARK 927      BINDING AFFINITY PREDICTED BY RF-SCORE:    0.00 PKD
ROOT
HETATM    1  C   UNL     1     -12.715   6.676  71.718  1.00  0.00    -0.280 C  
HETATM    2  C   UNL     1     -11.179   6.580  71.689  1.00  0.00    -0.270 C  
HETATM    3  C   UNL     1     -10.516   7.897  72.198  1.00  0.00    -0.308 C  
HETATM    4  N   UNL     1     -10.756   5.393  72.501  1.00  0.00    -0.226 NA 
HETATM    5  C   UNL     1     -10.594   6.288  70.271  1.00  0.00    -0.248 C  
HETATM    6  H2  UNL     1     -12.114   5.595  73.996  1.00  0.00     0.000 HD 
HETATM    7  H   UNL     1      -9.752   5.239  72.401  1.00  0.00     0.000 HD 
HETATM    8  O   UNL     1      -9.385   6.189  70.074  1.00  0.00    -0.152 OA 
HETATM    9  O   UNL     1     -11.465   6.111  69.255  1.00  0.00    -0.404 OA 
HETATM   10  N   UNL     1     -11.110   5.442  73.895  1.00  0.00    -0.427 NA 
HETATM   11  H1  UNL     1     -10.822   4.634  74.448  1.00  0.00     0.000 HD 
ENDROOT
BRANCH   3  12
HETATM   12  C   UNL     1     -10.839   9.144  71.394  1.00  0.00    -0.419 A  
HETATM   13  C   UNL     1     -11.935   9.954  71.738  1.00  0.00    -0.329 A  
HETATM   14  C   UNL     1     -12.235  11.070  70.961  1.00  0.00    -0.351 A  
HETATM   15  C   UNL     1     -11.450  11.397  69.860  1.00  0.00    -0.273 A  
HETATM   16  O   UNL     1     -13.306  11.876  71.237  1.00  0.00    -0.109 OA 
HETATM   17  H   UNL     1     -13.510  12.638  70.707  1.00  0.00     0.000 HD 
HETATM   18  C   UNL     1     -10.355  10.620  69.517  1.00  0.00    -0.214 A  
HETATM   19  O   UNL     1     -11.754  12.490  69.103  1.00  0.00    -0.289 OA 
HETATM   20  C   UNL     1     -10.048   9.495  70.285  1.00  0.00    -0.314 A  
HETATM   21  H   UNL     1     -11.218  12.713  68.351  1.00  0.00     0.000 HD 
ENDBRANCH   3  12
TORSDOF 1
ENDMDL
MODEL       99
REMARK 921   NORMALIZED FREE ENERGY PREDICTED BY IDOCK:   -5.05 KCAL/MOL
REMARK 922        TOTAL FREE ENERGY PREDICTED BY IDOCK:   -4.52 KCAL/MOL
REMARK 923 INTER-LIGAND FREE ENERGY PREDICTED BY IDOCK:   -4.56 KCAL/MOL
REMARK 924 INTRA-LIGAND FREE ENERGY PREDICTED BY IDOCK:    0.03 KCAL/MOL
REMARK 927      BINDING AFFINITY PREDICTED BY RF-SCORE:    0.00 PKD
ROOT
HETATM    1  C   UNL     1     -12.228   7.090  70.907  1.00  0.00    -0.388 C  
HETATM    2  C   UNL     1     -11.586   8.040  71.933  1.00  0.00    -0.298 C  
HETATM    3  C   UNL     1     -11.177   9.395  71.277  1.00  0.00    -0.437 C  
HETATM    4  N   UNL     1     -12.542   8.237  73.071  1.00  0.00    -0.592 NA 
HETATM    5  C   UNL     1     -10.309   7.457  72.617  1.00  0.00    -0.244 C  
HETATM    6  H2  UNL     1     -14.248   8.314  71.974  1.00  0.00     0.000 HD 
HETATM    7  H   UNL     1     -12.093   8.768  73.818  1.00  0.00     0.000 HD 
HETATM    8  O   UNL     1      -9.672   8.091  73.455  1.00  0.00    -0.280 OA 
HETATM    9  O   UNL     1      -9.935   6.203  72.285  1.00  0.00    -0.167 OA 
HETATM   10  N   UNL     1     -13.799   8.845  72.721  1.00  0.00    -0.889 NA 
HETATM   11  H1  UNL     1     -14.450   8.979  73.496  1.00  0.00     0.000 HD 
ENDROOT
BRANCH   3  12
HETATM   12  C   UNL     1     -10.161   9.297  70.153  1.00  0.00    -0.251 A  
HETATM   13  C   UNL     1      -8.784   9.376  70.422  1.00  0.00    -0.278 A  
HETATM   14  C   UNL     1      -7.874   9.323  69.371  1.00  0.00    -0.083 A  
HETATM   15  C   UNL     1      -8.316   9.175  68.059  1.00  0.00    -0.120 A  
HETATM   16  O   UNL     1      -6.525   9.423  69.576  1.00  0.00    -0.042 OA 
HETATM   17  H   UNL     1      -5.903   9.386  68.858  1.00  0.00     0.000 HD 
HETATM   18  C   UNL     1      -9.669   9.077  67.777  1.00  0.00    -0.190 A  
HETATM   19  O   UNL     1      -7.416   9.129  67.035  1.00  0.00    -0.090 OA 
HETATM   20  C   UNL     1     -10.591   9.135  68.823  1.00  0.00    -0.208 A  
HETATM   21  H   UNL     1      -7.719   9.028  66.140  1.00  0.00     0.000 HD 
ENDBRANCH   3  12
TORSDOF 1
ENDMDL
MODEL      100
REMARK 921   NORMALIZED FREE ENERGY PREDICTED BY IDOCK:   -5.03 KCAL/MOL
REMARK 922        TOTAL FREE ENERGY PREDICTED BY IDOCK:   -4.51 KCAL/MOL
REMARK 923 INTER-LIGAND FREE ENERGY PREDICTED BY IDOCK:   -4.56 KCAL/MOL
REMARK 924 INTRA-LIGAND FREE ENERGY PREDICTED BY IDOCK:    0.05 KCAL/MOL
REMARK 927      BINDING AFFINITY PREDICTED BY RF-SCORE:    0.00 PKD
ROOT
HETATM    1  C   UNL     1     -10.164  12.780  64.721  1.00  0.00    -0.304 C  
HETATM    2  C   UNL     1     -11.029  12.830  65.993  1.00  0.00    -0.278 C  
HETATM    3  C   UNL     1     -11.254  14.298  66.472  1.00  0.00    -0.333 C  
HETATM    4  N   UNL     1     -12.326  12.128  65.722  1.00  0.00    -0.450 NA 
HETATM    5  C   UNL     1     -10.424  12.041  67.197  1.00  0.00    -0.220 C  
HETATM    6  H2  UNL     1     -12.596  12.793  63.823  1.00  0.00     0.000 HD 
HETATM    7  H   UNL     1     -12.866  12.045  66.583  1.00  0.00     0.000 HD 
HETATM    8  O   UNL     1     -10.985  11.987  68.288  1.00  0.00    -0.208 OA 
HETATM    9  O   UNL     1      -9.265  11.379  66.995  1.00  0.00    -0.164 OA 
HETATM   10  N   UNL     1     -13.136  12.710  64.684  1.00  0.00    -0.848 NA 
HETATM   11  H1  UNL     1     -14.019  12.232  64.500  1.00  0.00     0.000 HD 
ENDROOT
BRANCH   3  12
HETATM   12  C   UNL     1      -9.995  15.067  66.831  1.00  0.00    -0.247 A  
HETATM   13  C   UNL     1      -9.460  15.002  68.129  1.00  0.00    -0.196 A  
HETATM   14  C   UNL     1      -8.328  15.748  68.444  1.00  0.00    -0.164 A  
HETATM   15  C   UNL     1      -7.714  16.543  67.480  1.00  0.00    -0.149 A  
HETATM   16  O   UNL     1      -7.783  15.740  69.699  1.00  0.00    -0.196 OA 
HETATM   17  H   UNL     1      -7.010  16.250  69.914  1.00  0.00     0.000 HD 
HETATM   18  C   UNL     1      -8.217  16.606  66.191  1.00  0.00    -0.295 A  
HETATM   19  O   UNL     1      -6.608  17.274  67.800  1.00  0.00    -0.150 OA 
HETATM   20  C   UNL     1      -9.356  15.866  65.866  1.00  0.00    -0.353 A  
HETATM   21  H   UNL     1      -6.189  17.817  67.142  1.00  0.00     0.000 HD 
ENDBRANCH   3  12
TORSDOF 1
ENDMDL
MODEL      101
REMARK 921   NORMALIZED FREE ENERGY PREDICTED BY IDOCK:   -5.02 KCAL/MOL
REMARK 922        TOTAL FREE ENERGY PREDICTED BY IDOCK:   -4.49 KCAL/MOL
REMARK 923 INTER-LIGAND FREE ENERGY PREDICTED BY IDOCK:   -4.79 KCAL/MOL
REMARK 924 INTRA-LIGAND FREE ENERGY PREDICTED BY IDOCK:    0.30 KCAL/MOL
REMARK 927      BINDING AFFINITY PREDICTED BY RF-SCORE:    0.00 PKD
ROOT
HETATM    1  C   UNL     1      -9.238  10.760  68.489  1.00  0.00    -0.174 C  
HETATM    2  C   UNL     1      -8.851  10.343  67.059  1.00  0.00    -0.136 C  
HETATM    3  C   UNL     1      -8.823  11.570  66.096  1.00  0.00    -0.167 C  
HETATM    4  N   UNL     1      -7.527   9.640  67.104  1.00  0.00    -0.088 NA 
HETATM    5  C   UNL     1      -9.813   9.286  66.430  1.00  0.00    -0.277 C  
HETATM    6  H2  UNL     1      -6.647  10.820  68.501  1.00  0.00     0.000 HD 
HETATM    7  H   UNL     1      -7.306   9.251  66.187  1.00  0.00     0.000 HD 
HETATM    8  O   UNL     1      -9.649   8.854  65.291  1.00  0.00    -0.074 OA 
HETATM    9  O   UNL     1     -10.827   8.825  67.193  1.00  0.00    -0.209 OA 
HETATM   10  N   UNL     1      -6.425  10.431  67.584  1.00  0.00    -0.058 NA 
HETATM   11  H1  UNL     1      -5.525   9.952  67.615  1.00  0.00     0.000 HD 
ENDROOT
BRANCH   3  12
HETATM   12  C   UNL     1     -10.141  12.308  65.940  1.00  0.00    -0.272 A  
HETATM   13  C   UNL     1     -10.644  12.615  64.664  1.00  0.00    -0.357 A  
HETATM   14  C   UNL     1     -11.835  13.327  64.548  1.00  0.00    -0.387 A  
HETATM   15  C   UNL     1     -12.537  13.721  65.683  1.00  0.00    -0.509 A  
HETATM   16  O   UNL     1     -12.354  13.673  63.330  1.00  0.00    -0.916 OA 
HETATM   17  H   UNL     1     -13.167  14.159  63.251  1.00  0.00     0.000 HD 
HETATM   18  C   UNL     1     -12.066  13.411  66.949  1.00  0.00    -0.406 A  
HETATM   19  O   UNL     1     -13.701  14.422  65.559  1.00  0.00    -0.476 OA 
HETATM   20  C   UNL     1     -10.869  12.703  67.077  1.00  0.00    -0.282 A  
HETATM   21  H   UNL     1     -14.179  14.691  66.334  1.00  0.00     0.000 HD 
ENDBRANCH   3  12
TORSDOF 1
ENDMDL
MODEL      102
REMARK 921   NORMALIZED FREE ENERGY PREDICTED BY IDOCK:   -5.01 KCAL/MOL
REMARK 922        TOTAL FREE ENERGY PREDICTED BY IDOCK:   -4.48 KCAL/MOL
REMARK 923 INTER-LIGAND FREE ENERGY PREDICTED BY IDOCK:   -4.55 KCAL/MOL
REMARK 924 INTRA-LIGAND FREE ENERGY PREDICTED BY IDOCK:    0.07 KCAL/MOL
REMARK 927      BINDING AFFINITY PREDICTED BY RF-SCORE:    0.00 PKD
ROOT
HETATM    1  C   UNL     1      -6.584  15.921  66.958  1.00  0.00    -0.028 C  
HETATM    2  C   UNL     1      -7.658  16.843  67.563  1.00  0.00    -0.165 C  
HETATM    3  C   UNL     1      -8.930  16.041  67.977  1.00  0.00    -0.187 C  
HETATM    4  N   UNL     1      -7.061  17.580  68.724  1.00  0.00    -0.239 NA 
HETATM    5  C   UNL     1      -8.125  17.981  66.600  1.00  0.00    -0.260 C  
HETATM    6  H2  UNL     1      -5.954  16.051  69.468  1.00  0.00     0.000 HD 
HETATM    7  H   UNL     1      -7.716  18.282  69.067  1.00  0.00     0.000 HD 
HETATM    8  O   UNL     1      -8.982  18.798  66.927  1.00  0.00    -0.280 OA 
HETATM    9  O   UNL     1      -7.528  18.067  65.392  1.00  0.00    -0.482 OA 
HETATM   10  N   UNL     1      -6.609  16.753  69.812  1.00  0.00    -0.147 NA 
HETATM   11  H1  UNL     1      -6.203  17.255  70.602  1.00  0.00     0.000 HD 
ENDROOT
BRANCH   3  12
HETATM   12  C   UNL     1      -9.638  15.312  66.849  1.00  0.00    -0.245 A  
HETATM   13  C   UNL     1      -9.285  13.994  66.514  1.00  0.00    -0.240 A  
HETATM   14  C   UNL     1      -9.922  13.360  65.450  1.00  0.00    -0.192 A  
HETATM   15  C   UNL     1     -10.914  14.017  64.728  1.00  0.00    -0.402 A  
HETATM   16  O   UNL     1      -9.597  12.088  65.067  1.00  0.00    -0.404 OA 
HETATM   17  H   UNL     1     -10.032  11.656  64.341  1.00  0.00     0.000 HD 
HETATM   18  C   UNL     1     -11.288  15.310  65.056  1.00  0.00    -0.359 A  
HETATM   19  O   UNL     1     -11.529  13.390  63.684  1.00  0.00    -0.611 OA 
HETATM   20  C   UNL     1     -10.652  15.957  66.117  1.00  0.00    -0.310 A  
HETATM   21  H   UNL     1     -12.206  13.839  63.192  1.00  0.00     0.000 HD 
ENDBRANCH   3  12
TORSDOF 1
ENDMDL
MODEL      103
REMARK 921   NORMALIZED FREE ENERGY PREDICTED BY IDOCK:   -4.99 KCAL/MOL
REMARK 922        TOTAL FREE ENERGY PREDICTED BY IDOCK:   -4.47 KCAL/MOL
REMARK 923 INTER-LIGAND FREE ENERGY PREDICTED BY IDOCK:   -4.49 KCAL/MOL
REMARK 924 INTRA-LIGAND FREE ENERGY PREDICTED BY IDOCK:    0.02 KCAL/MOL
REMARK 927      BINDING AFFINITY PREDICTED BY RF-SCORE:    0.00 PKD
ROOT
HETATM    1  C   UNL     1      -8.277   8.111  68.227  1.00  0.00    -0.129 C  
HETATM    2  C   UNL     1      -9.725   7.885  67.756  1.00  0.00    -0.155 C  
HETATM    3  C   UNL     1     -10.744   8.640  68.665  1.00  0.00    -0.092 C  
HETATM    4  N   UNL     1      -9.838   8.308  66.322  1.00  0.00    -0.435 NA 
HETATM    5  C   UNL     1     -10.152   6.383  67.735  1.00  0.00    -0.146 C  
HETATM    6  H2  UNL     1      -8.647   9.948  66.435  1.00  0.00     0.000 HD 
HETATM    7  H   UNL     1     -10.756   8.059  65.954  1.00  0.00     0.000 HD 
HETATM    8  O   UNL     1     -11.279   6.031  67.392  1.00  0.00    -0.228 OA 
HETATM    9  O   UNL     1      -9.227   5.461  68.076  1.00  0.00    -0.108 OA 
HETATM   10  N   UNL     1      -9.565   9.698  66.067  1.00  0.00    -0.221 NA 
HETATM   11  H1  UNL     1      -9.641   9.986  65.091  1.00  0.00     0.000 HD 
ENDROOT
BRANCH   3  12
HETATM   12  C   UNL     1     -10.744   8.229  70.127  1.00  0.00    -0.239 A  
HETATM   13  C   UNL     1     -11.677   7.295  70.610  1.00  0.00    -0.310 A  
HETATM   14  C   UNL     1     -11.683   6.965  71.962  1.00  0.00    -0.300 A  
HETATM   15  C   UNL     1     -10.762   7.538  72.834  1.00  0.00    -0.358 A  
HETATM   16  O   UNL     1     -12.587   6.082  72.487  1.00  0.00    -0.540 OA 
HETATM   17  H   UNL     1     -12.591   5.856  73.410  1.00  0.00     0.000 HD 
HETATM   18  C   UNL     1      -9.823   8.446  72.373  1.00  0.00    -0.378 A  
HETATM   19  O   UNL     1     -10.778   7.211  74.158  1.00  0.00    -0.555 OA 
HETATM   20  C   UNL     1      -9.812   8.790  71.019  1.00  0.00    -0.293 A  
HETATM   21  H   UNL     1     -10.149   7.603  74.753  1.00  0.00     0.000 HD 
ENDBRANCH   3  12
TORSDOF 1
ENDMDL
MODEL      104
REMARK 921   NORMALIZED FREE ENERGY PREDICTED BY IDOCK:   -4.99 KCAL/MOL
REMARK 922        TOTAL FREE ENERGY PREDICTED BY IDOCK:   -4.46 KCAL/MOL
REMARK 923 INTER-LIGAND FREE ENERGY PREDICTED BY IDOCK:   -4.95 KCAL/MOL
REMARK 924 INTRA-LIGAND FREE ENERGY PREDICTED BY IDOCK:    0.49 KCAL/MOL
REMARK 927      BINDING AFFINITY PREDICTED BY RF-SCORE:    0.00 PKD
ROOT
HETATM    1  C   UNL     1      -8.809  14.087  66.823  1.00  0.00    -0.178 C  
HETATM    2  C   UNL     1      -8.988  15.610  66.955  1.00  0.00    -0.241 C  
HETATM    3  C   UNL     1      -9.140  16.039  68.447  1.00  0.00    -0.192 C  
HETATM    4  N   UNL     1      -7.826  16.290  66.295  1.00  0.00    -0.216 NA 
HETATM    5  C   UNL     1     -10.229  16.166  66.188  1.00  0.00    -0.336 C  
HETATM    6  H2  UNL     1      -6.384  14.997  66.899  1.00  0.00     0.000 HD 
HETATM    7  H   UNL     1      -7.981  17.298  66.266  1.00  0.00     0.000 HD 
HETATM    8  O   UNL     1     -10.519  17.360  66.197  1.00  0.00    -0.347 OA 
HETATM    9  O   UNL     1     -10.970  15.293  65.473  1.00  0.00    -0.336 OA 
HETATM   10  N   UNL     1      -6.538  16.005  66.870  1.00  0.00    -0.280 NA 
HETATM   11  H1  UNL     1      -5.747  16.468  66.420  1.00  0.00     0.000 HD 
ENDROOT
BRANCH   3  12
HETATM   12  C   UNL     1     -10.331  15.446  69.179  1.00  0.00    -0.240 A  
HETATM   13  C   UNL     1     -11.028  16.196  70.141  1.00  0.00    -0.359 A  
HETATM   14  C   UNL     1     -12.091  15.616  70.827  1.00  0.00    -0.412 A  
HETATM   15  C   UNL     1     -12.478  14.307  70.556  1.00  0.00    -0.361 A  
HETATM   16  O   UNL     1     -12.786  16.295  71.792  1.00  0.00    -0.512 OA 
HETATM   17  H   UNL     1     -13.512  15.899  72.260  1.00  0.00     0.000 HD 
HETATM   18  C   UNL     1     -11.814  13.558  69.597  1.00  0.00    -0.398 A  
HETATM   19  O   UNL     1     -13.519  13.746  71.237  1.00  0.00    -0.272 OA 
HETATM   20  C   UNL     1     -10.742  14.128  68.908  1.00  0.00    -0.270 A  
HETATM   21  H   UNL     1     -13.782  12.853  71.051  1.00  0.00     0.000 HD 
ENDBRANCH   3  12
TORSDOF 1
ENDMDL
MODEL      105
REMARK 921   NORMALIZED FREE ENERGY PREDICTED BY IDOCK:   -4.96 KCAL/MOL
REMARK 922        TOTAL FREE ENERGY PREDICTED BY IDOCK:   -4.43 KCAL/MOL
REMARK 923 INTER-LIGAND FREE ENERGY PREDICTED BY IDOCK:   -4.72 KCAL/MOL
REMARK 924 INTRA-LIGAND FREE ENERGY PREDICTED BY IDOCK:    0.28 KCAL/MOL
REMARK 927      BINDING AFFINITY PREDICTED BY RF-SCORE:    0.00 PKD
ROOT
HETATM    1  C   UNL     1     -10.125   9.946  66.128  1.00  0.00    -0.315 C  
HETATM    2  C   UNL     1      -9.670  11.259  66.788  1.00  0.00    -0.193 C  
HETATM    3  C   UNL     1      -8.983  10.997  68.165  1.00  0.00    -0.152 C  
HETATM    4  N   UNL     1      -8.762  11.986  65.842  1.00  0.00    -0.396 NA 
HETATM    5  C   UNL     1     -10.832  12.272  67.040  1.00  0.00    -0.250 C  
HETATM    6  H2  UNL     1      -7.770  10.365  65.130  1.00  0.00     0.000 HD 
HETATM    7  H   UNL     1      -8.542  12.912  66.209  1.00  0.00     0.000 HD 
HETATM    8  O   UNL     1     -10.639  13.365  67.567  1.00  0.00    -0.247 OA 
HETATM    9  O   UNL     1     -12.069  11.926  66.626  1.00  0.00    -0.587 OA 
HETATM   10  N   UNL     1      -7.550  11.291  65.497  1.00  0.00    -0.285 NA 
HETATM   11  H1  UNL     1      -6.931  11.785  64.852  1.00  0.00     0.000 HD 
ENDROOT
BRANCH   3  12
HETATM   12  C   UNL     1      -9.853  10.320  69.209  1.00  0.00    -0.244 A  
HETATM   13  C   UNL     1     -10.978  10.973  69.739  1.00  0.00    -0.258 A  
HETATM   14  C   UNL     1     -11.737  10.348  70.725  1.00  0.00    -0.368 A  
HETATM   15  C   UNL     1     -11.398   9.075  71.176  1.00  0.00    -0.307 A  
HETATM   16  O   UNL     1     -12.826  10.952  71.291  1.00  0.00    -0.382 OA 
HETATM   17  H   UNL     1     -13.343  10.524  71.964  1.00  0.00     0.000 HD 
HETATM   18  C   UNL     1     -10.302   8.408  70.652  1.00  0.00    -0.224 A  
HETATM   19  O   UNL     1     -12.144   8.472  72.146  1.00  0.00    -0.336 OA 
HETATM   20  C   UNL     1      -9.531   9.029  69.668  1.00  0.00    -0.174 A  
HETATM   21  H   UNL     1     -11.912   7.604  72.453  1.00  0.00     0.000 HD 
ENDBRANCH   3  12
TORSDOF 1
ENDMDL
MODEL      106
REMARK 921   NORMALIZED FREE ENERGY PREDICTED BY IDOCK:   -4.92 KCAL/MOL
REMARK 922        TOTAL FREE ENERGY PREDICTED BY IDOCK:   -4.39 KCAL/MOL
REMARK 923 INTER-LIGAND FREE ENERGY PREDICTED BY IDOCK:   -4.49 KCAL/MOL
REMARK 924 INTRA-LIGAND FREE ENERGY PREDICTED BY IDOCK:    0.10 KCAL/MOL
REMARK 927      BINDING AFFINITY PREDICTED BY RF-SCORE:    0.00 PKD
ROOT
HETATM    1  C   UNL     1      -8.571   7.082  71.831  1.00  0.00    -0.122 C  
HETATM    2  C   UNL     1     -10.054   7.486  71.742  1.00  0.00    -0.176 C  
HETATM    3  C   UNL     1     -10.949   6.279  71.322  1.00  0.00    -0.330 C  
HETATM    4  N   UNL     1     -10.477   8.063  73.059  1.00  0.00    -0.333 NA 
HETATM    5  C   UNL     1     -10.331   8.639  70.725  1.00  0.00    -0.204 C  
HETATM    6  H2  UNL     1      -9.449   6.781  74.251  1.00  0.00     0.000 HD 
HETATM    7  H   UNL     1     -11.419   8.445  72.988  1.00  0.00     0.000 HD 
HETATM    8  O   UNL     1     -11.463   9.075  70.528  1.00  0.00    -0.259 OA 
HETATM    9  O   UNL     1      -9.273   9.179  70.082  1.00  0.00    -0.174 OA 
HETATM   10  N   UNL     1     -10.392   7.164  74.180  1.00  0.00    -0.425 NA 
HETATM   11  H1  UNL     1     -10.680   7.556  75.077  1.00  0.00     0.000 HD 
ENDROOT
BRANCH   3  12
HETATM   12  C   UNL     1     -10.632   5.671  69.968  1.00  0.00    -0.388 A  
HETATM   13  C   UNL     1     -11.093   6.273  68.785  1.00  0.00    -0.424 A  
HETATM   14  C   UNL     1     -10.823   5.674  67.558  1.00  0.00    -0.095 A  
HETATM   15  C   UNL     1     -10.088   4.494  67.493  1.00  0.00    -0.039 A  
HETATM   16  O   UNL     1     -11.272   6.207  66.380  1.00  0.00    -0.725 OA 
HETATM   17  H   UNL     1     -11.087   5.798  65.542  1.00  0.00     0.000 HD 
HETATM   18  C   UNL     1      -9.610   3.896  68.648  1.00  0.00    -0.181 A  
HETATM   19  O   UNL     1      -9.833   3.913  66.286  1.00  0.00    -0.320 OA 
HETATM   20  C   UNL     1      -9.880   4.484  69.885  1.00  0.00    -0.298 A  
HETATM   21  H   UNL     1      -9.331   3.107  66.243  1.00  0.00     0.000 HD 
ENDBRANCH   3  12
TORSDOF 1
ENDMDL
MODEL      107
REMARK 921   NORMALIZED FREE ENERGY PREDICTED BY IDOCK:   -4.89 KCAL/MOL
REMARK 922        TOTAL FREE ENERGY PREDICTED BY IDOCK:   -4.36 KCAL/MOL
REMARK 923 INTER-LIGAND FREE ENERGY PREDICTED BY IDOCK:   -4.59 KCAL/MOL
REMARK 924 INTRA-LIGAND FREE ENERGY PREDICTED BY IDOCK:    0.23 KCAL/MOL
REMARK 927      BINDING AFFINITY PREDICTED BY RF-SCORE:    0.00 PKD
ROOT
HETATM    1  C   UNL     1      -9.098   8.998  66.729  1.00  0.00    -0.178 C  
HETATM    2  C   UNL     1     -10.080   9.191  67.898  1.00  0.00    -0.199 C  
HETATM    3  C   UNL     1     -11.268  10.119  67.497  1.00  0.00    -0.123 C  
HETATM    4  N   UNL     1     -10.554   7.845  68.357  1.00  0.00    -0.367 NA 
HETATM    5  C   UNL     1      -9.424   9.809  69.174  1.00  0.00    -0.188 C  
HETATM    6  H2  UNL     1     -10.716   6.984  66.526  1.00  0.00     0.000 HD 
HETATM    7  H   UNL     1     -11.113   7.940  69.204  1.00  0.00     0.000 HD 
HETATM    8  O   UNL     1     -10.072  10.035  70.194  1.00  0.00    -0.255 OA 
HETATM    9  O   UNL     1      -8.098  10.060  69.141  1.00  0.00    -0.105 OA 
HETATM   10  N   UNL     1     -11.275   7.079  67.374  1.00  0.00    -0.607 NA 
HETATM   11  H1  UNL     1     -11.598   6.162  67.686  1.00  0.00     0.000 HD 
ENDROOT
BRANCH   3  12
HETATM   12  C   UNL     1     -10.884  11.528  67.078  1.00  0.00    -0.320 A  
HETATM   13  C   UNL     1     -10.982  11.928  65.735  1.00  0.00    -0.359 A  
HETATM   14  C   UNL     1     -10.587  13.212  65.369  1.00  0.00    -0.299 A  
HETATM   15  C   UNL     1     -10.111  14.104  66.326  1.00  0.00    -0.300 A  
HETATM   16  O   UNL     1     -10.638  13.642  64.071  1.00  0.00    -0.535 OA 
HETATM   17  H   UNL     1     -10.368  14.519  63.822  1.00  0.00     0.000 HD 
HETATM   18  C   UNL     1     -10.024  13.733  67.658  1.00  0.00    -0.238 A  
HETATM   19  O   UNL     1      -9.721  15.358  65.957  1.00  0.00    -0.287 OA 
HETATM   20  C   UNL     1     -10.412  12.445  68.034  1.00  0.00    -0.227 A  
HETATM   21  H   UNL     1      -9.396  15.967  66.610  1.00  0.00     0.000 HD 
ENDBRANCH   3  12
TORSDOF 1
ENDMDL
MODEL      108
REMARK 921   NORMALIZED FREE ENERGY PREDICTED BY IDOCK:   -4.85 KCAL/MOL
REMARK 922        TOTAL FREE ENERGY PREDICTED BY IDOCK:   -4.32 KCAL/MOL
REMARK 923 INTER-LIGAND FREE ENERGY PREDICTED BY IDOCK:   -4.34 KCAL/MOL
REMARK 924 INTRA-LIGAND FREE ENERGY PREDICTED BY IDOCK:    0.03 KCAL/MOL
REMARK 927      BINDING AFFINITY PREDICTED BY RF-SCORE:    0.00 PKD
ROOT
HETATM    1  C   UNL     1     -10.992  15.530  65.977  1.00  0.00    -0.251 C  
HETATM    2  C   UNL     1      -9.940  15.582  67.099  1.00  0.00    -0.242 C  
HETATM    3  C   UNL     1      -8.946  14.384  67.003  1.00  0.00    -0.257 C  
HETATM    4  N   UNL     1      -9.231  16.902  67.034  1.00  0.00    -0.228 NA 
HETATM    5  C   UNL     1     -10.552  15.559  68.536  1.00  0.00    -0.246 C  
HETATM    6  H2  UNL     1      -9.124  17.046  65.013  1.00  0.00     0.000 HD 
HETATM    7  H   UNL     1      -8.613  17.007  67.838  1.00  0.00     0.000 HD 
HETATM    8  O   UNL     1      -9.848  15.586  69.543  1.00  0.00    -0.255 OA 
HETATM    9  O   UNL     1     -11.897  15.542  68.647  1.00  0.00    -0.362 OA 
HETATM   10  N   UNL     1      -8.505  17.151  65.817  1.00  0.00    -0.479 NA 
HETATM   11  H1  UNL     1      -8.023  18.049  65.772  1.00  0.00     0.000 HD 
ENDROOT
BRANCH   3  12
HETATM   12  C   UNL     1      -9.571  13.005  67.123  1.00  0.00    -0.230 A  
HETATM   13  C   UNL     1      -9.497  12.287  68.329  1.00  0.00    -0.209 A  
HETATM   14  C   UNL     1     -10.043  11.008  68.402  1.00  0.00    -0.184 A  
HETATM   15  C   UNL     1     -10.674  10.445  67.297  1.00  0.00    -0.273 A  
HETATM   16  O   UNL     1      -9.975  10.257  69.544  1.00  0.00    -0.223 OA 
HETATM   17  H   UNL     1     -10.348   9.385  69.594  1.00  0.00     0.000 HD 
HETATM   18  C   UNL     1     -10.773  11.146  66.106  1.00  0.00    -0.285 A  
HETATM   19  O   UNL     1     -11.202   9.190  67.377  1.00  0.00    -0.353 OA 
HETATM   20  C   UNL     1     -10.223  12.426  66.019  1.00  0.00    -0.267 A  
HETATM   21  H   UNL     1     -11.633   8.806  66.623  1.00  0.00     0.000 HD 
ENDBRANCH   3  12
TORSDOF 1
ENDMDL
MODEL      109
REMARK 921   NORMALIZED FREE ENERGY PREDICTED BY IDOCK:   -4.85 KCAL/MOL
REMARK 922        TOTAL FREE ENERGY PREDICTED BY IDOCK:   -4.32 KCAL/MOL
REMARK 923 INTER-LIGAND FREE ENERGY PREDICTED BY IDOCK:   -4.34 KCAL/MOL
REMARK 924 INTRA-LIGAND FREE ENERGY PREDICTED BY IDOCK:    0.03 KCAL/MOL
REMARK 927      BINDING AFFINITY PREDICTED BY RF-SCORE:    0.00 PKD
ROOT
HETATM    1  C   UNL     1      -7.328   6.487  70.908  1.00  0.00    -0.083 C  
HETATM    2  C   UNL     1      -7.463   6.821  72.404  1.00  0.00    -0.088 C  
HETATM    3  C   UNL     1      -8.733   6.157  73.023  1.00  0.00    -0.121 C  
HETATM    4  N   UNL     1      -6.211   6.394  73.109  1.00  0.00    -0.061 NA 
HETATM    5  C   UNL     1      -7.554   8.351  72.700  1.00  0.00    -0.077 C  
HETATM    6  H2  UNL     1      -5.907   4.667  72.087  1.00  0.00     0.000 HD 
HETATM    7  H   UNL     1      -6.229   6.711  74.078  1.00  0.00     0.000 HD 
HETATM    8  O   UNL     1      -7.674   8.787  73.843  1.00  0.00    -0.417 OA 
HETATM    9  O   UNL     1      -7.461   9.201  71.655  1.00  0.00    -0.326 OA 
HETATM   10  N   UNL     1      -5.925   4.984  73.056  1.00  0.00    -0.025 NA 
HETATM   11  H1  UNL     1      -5.072   4.694  73.536  1.00  0.00     0.000 HD 
ENDROOT
BRANCH   3  12
HETATM   12  C   UNL     1     -10.056   6.581  72.410  1.00  0.00    -0.187 A  
HETATM   13  C   UNL     1     -10.874   7.525  73.054  1.00  0.00    -0.445 A  
HETATM   14  C   UNL     1     -12.101   7.868  72.493  1.00  0.00    -0.246 A  
HETATM   15  C   UNL     1     -12.514   7.296  71.293  1.00  0.00    -0.366 A  
HETATM   16  O   UNL     1     -12.947   8.761  73.092  1.00  0.00    -0.710 OA 
HETATM   17  H   UNL     1     -13.784   8.995  72.709  1.00  0.00     0.000 HD 
HETATM   18  C   UNL     1     -11.712   6.378  70.635  1.00  0.00    -0.377 A  
HETATM   19  O   UNL     1     -13.720   7.635  70.753  1.00  0.00    -0.526 OA 
HETATM   20  C   UNL     1     -10.482   6.022  71.192  1.00  0.00    -0.284 A  
HETATM   21  H   UNL     1     -14.002   7.244  69.934  1.00  0.00     0.000 HD 
ENDBRANCH   3  12
TORSDOF 1
ENDMDL
MODEL      110
REMARK 921   NORMALIZED FREE ENERGY PREDICTED BY IDOCK:   -4.85 KCAL/MOL
REMARK 922        TOTAL FREE ENERGY PREDICTED BY IDOCK:   -4.31 KCAL/MOL
REMARK 923 INTER-LIGAND FREE ENERGY PREDICTED BY IDOCK:   -5.01 KCAL/MOL
REMARK 924 INTRA-LIGAND FREE ENERGY PREDICTED BY IDOCK:    0.70 KCAL/MOL
REMARK 927      BINDING AFFINITY PREDICTED BY RF-SCORE:    0.00 PKD
ROOT
HETATM    1  C   UNL     1      -8.767  10.418  69.267  1.00  0.00    -0.160 C  
HETATM    2  C   UNL     1      -9.985  11.165  68.697  1.00  0.00    -0.205 C  
HETATM    3  C   UNL     1     -11.057  11.433  69.799  1.00  0.00    -0.198 C  
HETATM    4  N   UNL     1      -9.515  12.436  68.056  1.00  0.00    -0.202 NA 
HETATM    5  C   UNL     1     -10.702  10.406  67.535  1.00  0.00    -0.287 C  
HETATM    6  H2  UNL     1      -8.100  12.917  69.429  1.00  0.00     0.000 HD 
HETATM    7  H   UNL     1     -10.287  12.890  67.569  1.00  0.00     0.000 HD 
HETATM    8  O   UNL     1     -11.696  10.862  66.975  1.00  0.00    -0.330 OA 
HETATM    9  O   UNL     1     -10.172   9.232  67.130  1.00  0.00    -0.219 OA 
HETATM   10  N   UNL     1      -8.872  13.371  68.942  1.00  0.00    -0.370 NA 
HETATM   11  H1  UNL     1      -8.552  14.236  68.506  1.00  0.00     0.000 HD 
ENDROOT
BRANCH   3  12
HETATM   12  C   UNL     1     -11.637  10.196  70.460  1.00  0.00    -0.411 A  
HETATM   13  C   UNL     1     -10.939   8.976  70.437  1.00  0.00    -0.283 A  
HETATM   14  C   UNL     1     -11.510   7.846  71.015  1.00  0.00    -0.280 A  
HETATM   15  C   UNL     1     -12.757   7.920  71.629  1.00  0.00    -0.330 A  
HETATM   16  O   UNL     1     -10.885   6.629  70.996  1.00  0.00    -0.229 OA 
HETATM   17  H   UNL     1     -11.275   5.858  71.392  1.00  0.00     0.000 HD 
HETATM   18  C   UNL     1     -13.451   9.117  71.678  1.00  0.00    -0.452 A  
HETATM   19  O   UNL     1     -13.311   6.805  72.190  1.00  0.00    -0.546 OA 
HETATM   20  C   UNL     1     -12.891  10.256  71.095  1.00  0.00    -0.504 A  
HETATM   21  H   UNL     1     -14.162   6.856  72.609  1.00  0.00     0.000 HD 
ENDBRANCH   3  12
TORSDOF 1
ENDMDL
MODEL      111
REMARK 921   NORMALIZED FREE ENERGY PREDICTED BY IDOCK:   -4.84 KCAL/MOL
REMARK 922        TOTAL FREE ENERGY PREDICTED BY IDOCK:   -4.31 KCAL/MOL
REMARK 923 INTER-LIGAND FREE ENERGY PREDICTED BY IDOCK:   -4.37 KCAL/MOL
REMARK 924 INTRA-LIGAND FREE ENERGY PREDICTED BY IDOCK:    0.07 KCAL/MOL
REMARK 927      BINDING AFFINITY PREDICTED BY RF-SCORE:    0.00 PKD
ROOT
HETATM    1  C   UNL     1      -9.423   7.671  72.213  1.00  0.00    -0.209 C  
HETATM    2  C   UNL     1     -10.745   6.909  72.014  1.00  0.00    -0.216 C  
HETATM    3  C   UNL     1     -10.594   5.773  70.955  1.00  0.00    -0.329 C  
HETATM    4  N   UNL     1     -11.200   6.377  73.340  1.00  0.00    -0.455 NA 
HETATM    5  C   UNL     1     -11.929   7.815  71.550  1.00  0.00    -0.300 C  
HETATM    6  H2  UNL     1      -9.376   5.845  74.052  1.00  0.00     0.000 HD 
HETATM    7  H   UNL     1     -12.131   5.970  73.254  1.00  0.00     0.000 HD 
HETATM    8  O   UNL     1     -13.052   7.361  71.338  1.00  0.00    -0.364 OA 
HETATM    9  O   UNL     1     -11.695   9.138  71.419  1.00  0.00    -0.293 OA 
HETATM   10  N   UNL     1     -10.307   5.438  73.966  1.00  0.00    -0.250 NA 
HETATM   11  H1  UNL     1     -10.616   5.076  74.869  1.00  0.00     0.000 HD 
ENDROOT
BRANCH   3  12
HETATM   12  C   UNL     1     -10.196   6.228  69.562  1.00  0.00    -0.239 A  
HETATM   13  C   UNL     1      -8.871   6.603  69.281  1.00  0.00    -0.133 A  
HETATM   14  C   UNL     1      -8.540   7.054  68.006  1.00  0.00    -0.124 A  
HETATM   15  C   UNL     1      -9.506   7.121  67.007  1.00  0.00    -0.155 A  
HETATM   16  O   UNL     1      -7.271   7.456  67.689  1.00  0.00    -0.088 OA 
HETATM   17  H   UNL     1      -7.045   7.764  66.819  1.00  0.00     0.000 HD 
HETATM   18  C   UNL     1     -10.813   6.738  67.260  1.00  0.00    -0.443 A  
HETATM   19  O   UNL     1      -9.173   7.569  65.762  1.00  0.00    -0.381 OA 
HETATM   20  C   UNL     1     -11.158   6.289  68.537  1.00  0.00    -0.397 A  
HETATM   21  H   UNL     1      -9.833   7.614  65.080  1.00  0.00     0.000 HD 
ENDBRANCH   3  12
TORSDOF 1
ENDMDL
MODEL      112
REMARK 921   NORMALIZED FREE ENERGY PREDICTED BY IDOCK:   -4.84 KCAL/MOL
REMARK 922        TOTAL FREE ENERGY PREDICTED BY IDOCK:   -4.30 KCAL/MOL
REMARK 923 INTER-LIGAND FREE ENERGY PREDICTED BY IDOCK:   -4.38 KCAL/MOL
REMARK 924 INTRA-LIGAND FREE ENERGY PREDICTED BY IDOCK:    0.08 KCAL/MOL
REMARK 927      BINDING AFFINITY PREDICTED BY RF-SCORE:    0.00 PKD
ROOT
HETATM    1  C   UNL     1      -9.413   8.865  68.268  1.00  0.00    -0.150 C  
HETATM    2  C   UNL     1      -9.996   8.618  69.671  1.00  0.00    -0.191 C  
HETATM    3  C   UNL     1     -11.467   9.126  69.774  1.00  0.00     0.106 C  
HETATM    4  N   UNL     1      -9.887   7.157  69.988  1.00  0.00    -0.178 NA 
HETATM    5  C   UNL     1      -9.189   9.308  70.817  1.00  0.00    -0.253 C  
HETATM    6  H2  UNL     1     -10.347   6.450  68.142  1.00  0.00     0.000 HD 
HETATM    7  H   UNL     1     -10.158   6.987  70.956  1.00  0.00     0.000 HD 
HETATM    8  O   UNL     1      -9.526   9.217  71.995  1.00  0.00    -0.323 OA 
HETATM    9  O   UNL     1      -8.075   9.990  70.479  1.00  0.00    -0.194 OA 
HETATM   10  N   UNL     1     -10.618   6.281  69.110  1.00  0.00    -0.237 NA 
HETATM   11  H1  UNL     1     -10.544   5.286  69.326  1.00  0.00     0.000 HD 
ENDROOT
BRANCH   3  12
HETATM   12  C   UNL     1     -11.664  10.612  69.530  1.00  0.00    -0.356 A  
HETATM   13  C   UNL     1     -11.563  11.145  68.234  1.00  0.00    -0.359 A  
HETATM   14  C   UNL     1     -11.708  12.516  68.041  1.00  0.00    -0.355 A  
HETATM   15  C   UNL     1     -11.967  13.358  69.119  1.00  0.00    -0.317 A  
HETATM   16  O   UNL     1     -11.593  13.088  66.803  1.00  0.00    -0.330 OA 
HETATM   17  H   UNL     1     -11.692  14.024  66.672  1.00  0.00     0.000 HD 
HETATM   18  C   UNL     1     -12.087  12.848  70.401  1.00  0.00    -0.385 A  
HETATM   19  O   UNL     1     -12.102  14.701  68.920  1.00  0.00    -0.472 OA 
HETATM   20  C   UNL     1     -11.938  11.475  70.607  1.00  0.00    -0.391 A  
HETATM   21  H   UNL     1     -12.279  15.275  69.656  1.00  0.00     0.000 HD 
ENDBRANCH   3  12
TORSDOF 1
ENDMDL
MODEL      113
REMARK 921   NORMALIZED FREE ENERGY PREDICTED BY IDOCK:   -4.83 KCAL/MOL
REMARK 922        TOTAL FREE ENERGY PREDICTED BY IDOCK:   -4.30 KCAL/MOL
REMARK 923 INTER-LIGAND FREE ENERGY PREDICTED BY IDOCK:   -5.22 KCAL/MOL
REMARK 924 INTRA-LIGAND FREE ENERGY PREDICTED BY IDOCK:    0.92 KCAL/MOL
REMARK 927      BINDING AFFINITY PREDICTED BY RF-SCORE:    0.00 PKD
ROOT
HETATM    1  C   UNL     1     -12.026  13.254  68.199  1.00  0.00    -0.340 C  
HETATM    2  C   UNL     1     -11.300  12.361  67.177  1.00  0.00    -0.329 C  
HETATM    3  C   UNL     1      -9.767  12.648  67.157  1.00  0.00    -0.211 C  
HETATM    4  N   UNL     1     -11.594  10.926  67.497  1.00  0.00    -0.522 NA 
HETATM    5  C   UNL     1     -11.819  12.529  65.714  1.00  0.00    -0.437 C  
HETATM    6  H2  UNL     1     -11.515  11.084  69.519  1.00  0.00     0.000 HD 
HETATM    7  H   UNL     1     -11.221  10.320  66.767  1.00  0.00     0.000 HD 
HETATM    8  O   UNL     1     -11.340  11.895  64.777  1.00  0.00    -0.316 OA 
HETATM    9  O   UNL     1     -12.847  13.378  65.505  1.00  0.00    -0.521 OA 
HETATM   10  N   UNL     1     -11.142  10.478  68.788  1.00  0.00    -0.249 NA 
HETATM   11  H1  UNL     1     -11.342   9.501  69.006  1.00  0.00     0.000 HD 
ENDROOT
BRANCH   3  12
HETATM   12  C   UNL     1      -9.373  14.065  66.780  1.00  0.00    -0.289 A  
HETATM   13  C   UNL     1      -8.200  14.645  67.294  1.00  0.00    -0.235 A  
HETATM   14  C   UNL     1      -7.882  15.959  66.965  1.00  0.00    -0.232 A  
HETATM   15  C   UNL     1      -8.706  16.696  66.119  1.00  0.00    -0.287 A  
HETATM   16  O   UNL     1      -6.766  16.578  67.459  1.00  0.00    -0.122 OA 
HETATM   17  H   UNL     1      -6.548  17.476  67.234  1.00  0.00     0.000 HD 
HETATM   18  C   UNL     1      -9.856  16.135  65.588  1.00  0.00    -0.290 A  
HETATM   19  O   UNL     1      -8.387  17.985  65.806  1.00  0.00    -0.508 OA 
HETATM   20  C   UNL     1     -10.189  14.819  65.917  1.00  0.00    -0.331 A  
HETATM   21  H   UNL     1      -8.950  18.487  65.228  1.00  0.00     0.000 HD 
ENDBRANCH   3  12
TORSDOF 1
ENDMDL
MODEL      114
REMARK 921   NORMALIZED FREE ENERGY PREDICTED BY IDOCK:   -4.81 KCAL/MOL
REMARK 922        TOTAL FREE ENERGY PREDICTED BY IDOCK:   -4.27 KCAL/MOL
REMARK 923 INTER-LIGAND FREE ENERGY PREDICTED BY IDOCK:   -4.33 KCAL/MOL
REMARK 924 INTRA-LIGAND FREE ENERGY PREDICTED BY IDOCK:    0.06 KCAL/MOL
REMARK 927      BINDING AFFINITY PREDICTED BY RF-SCORE:    0.00 PKD
ROOT
HETATM    1  C   UNL     1     -11.562   5.904  72.671  1.00  0.00    -0.289 C  
HETATM    2  C   UNL     1     -11.879   7.188  71.885  1.00  0.00    -0.300 C  
HETATM    3  C   UNL     1     -11.853   6.935  70.346  1.00  0.00    -0.351 C  
HETATM    4  N   UNL     1     -13.205   7.717  72.341  1.00  0.00    -0.505 NA 
HETATM    5  C   UNL     1     -10.890   8.362  72.174  1.00  0.00    -0.337 C  
HETATM    6  H2  UNL     1     -14.150   5.932  72.537  1.00  0.00     0.000 HD 
HETATM    7  H   UNL     1     -13.382   8.629  71.920  1.00  0.00     0.000 HD 
HETATM    8  O   UNL     1     -10.998   9.455  71.621  1.00  0.00    -0.369 OA 
HETATM    9  O   UNL     1      -9.918   8.155  73.087  1.00  0.00    -0.282 OA 
HETATM   10  N   UNL     1     -14.327   6.844  72.116  1.00  0.00    -0.634 NA 
HETATM   11  H1  UNL     1     -15.230   7.205  72.426  1.00  0.00     0.000 HD 
ENDROOT
BRANCH   3  12
HETATM   12  C   UNL     1     -10.526   6.455  69.785  1.00  0.00    -0.266 A  
HETATM   13  C   UNL     1      -9.531   7.375  69.412  1.00  0.00    -0.155 A  
HETATM   14  C   UNL     1      -8.338   6.913  68.863  1.00  0.00    -0.121 A  
HETATM   15  C   UNL     1      -8.119   5.549  68.696  1.00  0.00    -0.102 A  
HETATM   16  O   UNL     1      -7.348   7.767  68.460  1.00  0.00    -0.086 OA 
HETATM   17  H   UNL     1      -6.534   7.451  68.086  1.00  0.00     0.000 HD 
HETATM   18  C   UNL     1      -9.081   4.626  69.074  1.00  0.00    -0.165 A  
HETATM   19  O   UNL     1      -6.948   5.105  68.153  1.00  0.00    -0.058 OA 
HETATM   20  C   UNL     1     -10.284   5.079  69.620  1.00  0.00    -0.306 A  
HETATM   21  H   UNL     1      -6.799   4.174  68.039  1.00  0.00     0.000 HD 
ENDBRANCH   3  12
TORSDOF 1
ENDMDL
MODEL      115
REMARK 921   NORMALIZED FREE ENERGY PREDICTED BY IDOCK:   -4.80 KCAL/MOL
REMARK 922        TOTAL FREE ENERGY PREDICTED BY IDOCK:   -4.27 KCAL/MOL
REMARK 923 INTER-LIGAND FREE ENERGY PREDICTED BY IDOCK:   -4.33 KCAL/MOL
REMARK 924 INTRA-LIGAND FREE ENERGY PREDICTED BY IDOCK:    0.07 KCAL/MOL
REMARK 927      BINDING AFFINITY PREDICTED BY RF-SCORE:    0.00 PKD
ROOT
HETATM    1  C   UNL     1     -11.418   6.853  70.263  1.00  0.00    -0.373 C  
HETATM    2  C   UNL     1     -11.712   6.792  71.773  1.00  0.00    -0.312 C  
HETATM    3  C   UNL     1     -11.166   8.054  72.511  1.00  0.00    -0.452 C  
HETATM    4  N   UNL     1     -13.189   6.626  71.970  1.00  0.00    -0.489 NA 
HETATM    5  C   UNL     1     -11.099   5.543  72.482  1.00  0.00    -0.270 C  
HETATM    6  H2  UNL     1     -13.796   7.862  70.479  1.00  0.00     0.000 HD 
HETATM    7  H   UNL     1     -13.395   6.466  72.955  1.00  0.00     0.000 HD 
HETATM    8  O   UNL     1     -11.235   5.348  73.688  1.00  0.00    -0.235 OA 
HETATM    9  O   UNL     1     -10.435   4.649  71.719  1.00  0.00    -0.171 OA 
HETATM   10  N   UNL     1     -14.002   7.701  71.464  1.00  0.00    -0.514 NA 
HETATM   11  H1  UNL     1     -15.007   7.588  71.599  1.00  0.00     0.000 HD 
ENDROOT
BRANCH   3  12
HETATM   12  C   UNL     1      -9.666   8.267  72.418  1.00  0.00    -0.373 A  
HETATM   13  C   UNL     1      -9.084   8.765  71.240  1.00  0.00    -0.300 A  
HETATM   14  C   UNL     1      -7.701   8.914  71.165  1.00  0.00    -0.129 A  
HETATM   15  C   UNL     1      -6.896   8.589  72.252  1.00  0.00    -0.077 A  
HETATM   16  O   UNL     1      -7.084   9.370  70.032  1.00  0.00    -0.062 OA 
HETATM   17  H   UNL     1      -6.140   9.472  69.982  1.00  0.00     0.000 HD 
HETATM   18  C   UNL     1      -7.453   8.113  73.428  1.00  0.00    -0.193 A  
HETATM   19  O   UNL     1      -5.542   8.734  72.167  1.00  0.00    -0.048 OA 
HETATM   20  C   UNL     1      -8.838   7.954  73.511  1.00  0.00    -0.333 A  
HETATM   21  H   UNL     1      -4.992   8.511  72.910  1.00  0.00     0.000 HD 
ENDBRANCH   3  12
TORSDOF 1
ENDMDL
MODEL      116
REMARK 921   NORMALIZED FREE ENERGY PREDICTED BY IDOCK:   -4.78 KCAL/MOL
REMARK 922        TOTAL FREE ENERGY PREDICTED BY IDOCK:   -4.24 KCAL/MOL
REMARK 923 INTER-LIGAND FREE ENERGY PREDICTED BY IDOCK:   -4.26 KCAL/MOL
REMARK 924 INTRA-LIGAND FREE ENERGY PREDICTED BY IDOCK:    0.03 KCAL/MOL
REMARK 927      BINDING AFFINITY PREDICTED BY RF-SCORE:    0.00 PKD
ROOT
HETATM    1  C   UNL     1     -10.644   7.476  73.420  1.00  0.00    -0.409 C  
HETATM    2  C   UNL     1     -11.467   6.778  72.323  1.00  0.00    -0.276 C  
HETATM    3  C   UNL     1     -10.613   6.531  71.040  1.00  0.00    -0.275 C  
HETATM    4  N   UNL     1     -12.023   5.500  72.877  1.00  0.00    -0.530 NA 
HETATM    5  C   UNL     1     -12.735   7.576  71.884  1.00  0.00    -0.289 C  
HETATM    6  H2  UNL     1     -10.399   4.954  73.964  1.00  0.00     0.000 HD 
HETATM    7  H   UNL     1     -12.667   5.079  72.207  1.00  0.00     0.000 HD 
HETATM    8  O   UNL     1     -13.496   7.162  71.013  1.00  0.00    -0.249 OA 
HETATM    9  O   UNL     1     -12.999   8.737  72.521  1.00  0.00    -0.397 OA 
HETATM   10  N   UNL     1     -11.043   4.533  73.294  1.00  0.00    -0.288 NA 
HETATM   11  H1  UNL     1     -11.421   3.663  73.671  1.00  0.00     0.000 HD 
ENDROOT
BRANCH   3  12
HETATM   12  C   UNL     1     -10.060   7.779  70.374  1.00  0.00    -0.194 A  
HETATM   13  C   UNL     1     -10.658   8.297  69.213  1.00  0.00    -0.191 A  
HETATM   14  C   UNL     1     -10.109   9.418  68.598  1.00  0.00    -0.190 A  
HETATM   15  C   UNL     1      -8.984  10.038  69.133  1.00  0.00    -0.169 A  
HETATM   16  O   UNL     1     -10.638   9.946  67.451  1.00  0.00    -0.253 OA 
HETATM   17  H   UNL     1     -10.262  10.712  67.032  1.00  0.00     0.000 HD 
HETATM   18  C   UNL     1      -8.391   9.552  70.288  1.00  0.00    -0.221 A  
HETATM   19  O   UNL     1      -8.450  11.134  68.521  1.00  0.00    -0.143 OA 
HETATM   20  C   UNL     1      -8.930   8.424  70.909  1.00  0.00    -0.188 A  
HETATM   21  H   UNL     1      -7.682  11.557  68.887  1.00  0.00     0.000 HD 
ENDBRANCH   3  12
TORSDOF 1
ENDMDL
MODEL      117
REMARK 921   NORMALIZED FREE ENERGY PREDICTED BY IDOCK:   -4.75 KCAL/MOL
REMARK 922        TOTAL FREE ENERGY PREDICTED BY IDOCK:   -4.21 KCAL/MOL
REMARK 923 INTER-LIGAND FREE ENERGY PREDICTED BY IDOCK:   -4.34 KCAL/MOL
REMARK 924 INTRA-LIGAND FREE ENERGY PREDICTED BY IDOCK:    0.13 KCAL/MOL
REMARK 927      BINDING AFFINITY PREDICTED BY RF-SCORE:    0.00 PKD
ROOT
HETATM    1  C   UNL     1      -8.026  10.154  64.052  1.00  0.00    -0.154 C  
HETATM    2  C   UNL     1      -8.333   9.341  65.323  1.00  0.00    -0.145 C  
HETATM    3  C   UNL     1      -9.859   9.350  65.650  1.00  0.00    -0.294 C  
HETATM    4  N   UNL     1      -7.811   7.948  65.142  1.00  0.00    -0.107 NA 
HETATM    5  C   UNL     1      -7.588   9.856  66.594  1.00  0.00    -0.103 C  
HETATM    6  H2  UNL     1      -8.314   7.727  63.188  1.00  0.00     0.000 HD 
HETATM    7  H   UNL     1      -7.897   7.425  66.013  1.00  0.00     0.000 HD 
HETATM    8  O   UNL     1      -7.730   9.323  67.693  1.00  0.00    -0.091 OA 
HETATM    9  O   UNL     1      -6.742  10.898  66.449  1.00  0.00    -0.121 OA 
HETATM   10  N   UNL     1      -8.400   7.204  64.060  1.00  0.00    -0.355 NA 
HETATM   11  H1  UNL     1      -8.044   6.256  63.937  1.00  0.00     0.000 HD 
ENDROOT
BRANCH   3  12
HETATM   12  C   UNL     1     -10.463  10.719  65.911  1.00  0.00    -0.270 A  
HETATM   13  C   UNL     1     -10.557  11.669  64.880  1.00  0.00    -0.349 A  
HETATM   14  C   UNL     1     -11.078  12.931  65.154  1.00  0.00    -0.292 A  
HETATM   15  C   UNL     1     -11.519  13.251  66.435  1.00  0.00    -0.329 A  
HETATM   16  O   UNL     1     -11.167  13.901  64.193  1.00  0.00    -0.577 OA 
HETATM   17  H   UNL     1     -11.523  14.762  64.380  1.00  0.00     0.000 HD 
HETATM   18  C   UNL     1     -11.451  12.320  67.459  1.00  0.00    -0.414 A  
HETATM   19  O   UNL     1     -12.024  14.492  66.694  1.00  0.00    -0.393 OA 
HETATM   20  C   UNL     1     -10.924  11.054  67.197  1.00  0.00    -0.344 A  
HETATM   21  H   UNL     1     -12.325  14.709  67.569  1.00  0.00     0.000 HD 
ENDBRANCH   3  12
TORSDOF 1
ENDMDL
MODEL      118
REMARK 921   NORMALIZED FREE ENERGY PREDICTED BY IDOCK:   -4.75 KCAL/MOL
REMARK 922        TOTAL FREE ENERGY PREDICTED BY IDOCK:   -4.21 KCAL/MOL
REMARK 923 INTER-LIGAND FREE ENERGY PREDICTED BY IDOCK:   -4.30 KCAL/MOL
REMARK 924 INTRA-LIGAND FREE ENERGY PREDICTED BY IDOCK:    0.09 KCAL/MOL
REMARK 927      BINDING AFFINITY PREDICTED BY RF-SCORE:    0.00 PKD
ROOT
HETATM    1  C   UNL     1     -10.185   8.303  72.116  1.00  0.00    -0.355 C  
HETATM    2  C   UNL     1      -9.852   7.242  71.052  1.00  0.00    -0.183 C  
HETATM    3  C   UNL     1      -9.021   7.852  69.881  1.00  0.00    -0.146 C  
HETATM    4  N   UNL     1      -9.132   6.106  71.714  1.00  0.00    -0.145 NA 
HETATM    5  C   UNL     1     -11.111   6.568  70.421  1.00  0.00    -0.332 C  
HETATM    6  H2  UNL     1      -8.000   7.212  72.984  1.00  0.00     0.000 HD 
HETATM    7  H   UNL     1      -9.005   5.339  71.053  1.00  0.00     0.000 HD 
HETATM    8  O   UNL     1     -11.019   5.706  69.550  1.00  0.00    -0.334 OA 
HETATM    9  O   UNL     1     -12.323   6.937  70.887  1.00  0.00    -0.386 OA 
HETATM   10  N   UNL     1      -7.873   6.446  72.323  1.00  0.00    -0.102 NA 
HETATM   11  H1  UNL     1      -7.383   5.672  72.774  1.00  0.00     0.000 HD 
ENDROOT
BRANCH   3  12
HETATM   12  C   UNL     1      -9.700   8.971  69.111  1.00  0.00    -0.167 A  
HETATM   13  C   UNL     1      -9.881  10.236  69.695  1.00  0.00    -0.230 A  
HETATM   14  C   UNL     1     -10.542  11.234  68.984  1.00  0.00    -0.208 A  
HETATM   15  C   UNL     1     -11.010  10.991  67.696  1.00  0.00    -0.275 A  
HETATM   16  O   UNL     1     -10.766  12.474  69.517  1.00  0.00    -0.437 OA 
HETATM   17  H   UNL     1     -11.218  13.155  69.031  1.00  0.00     0.000 HD 
HETATM   18  C   UNL     1     -10.826   9.756  67.097  1.00  0.00    -0.207 A  
HETATM   19  O   UNL     1     -11.661  11.974  67.009  1.00  0.00    -0.510 OA 
HETATM   20  C   UNL     1     -10.169   8.746  67.804  1.00  0.00    -0.285 A  
HETATM   21  H   UNL     1     -11.981  11.808  66.130  1.00  0.00     0.000 HD 
ENDBRANCH   3  12
TORSDOF 1
ENDMDL
MODEL      119
REMARK 921   NORMALIZED FREE ENERGY PREDICTED BY IDOCK:   -4.74 KCAL/MOL
REMARK 922        TOTAL FREE ENERGY PREDICTED BY IDOCK:   -4.20 KCAL/MOL
REMARK 923 INTER-LIGAND FREE ENERGY PREDICTED BY IDOCK:   -4.35 KCAL/MOL
REMARK 924 INTRA-LIGAND FREE ENERGY PREDICTED BY IDOCK:    0.15 KCAL/MOL
REMARK 927      BINDING AFFINITY PREDICTED BY RF-SCORE:    0.00 PKD
ROOT
HETATM    1  C   UNL     1      -8.472  12.251  67.048  1.00  0.00    -0.181 C  
HETATM    2  C   UNL     1      -9.535  11.839  66.014  1.00  0.00    -0.230 C  
HETATM    3  C   UNL     1     -10.856  11.379  66.707  1.00  0.00    -0.336 C  
HETATM    4  N   UNL     1      -9.767  12.986  65.077  1.00  0.00    -0.517 NA 
HETATM    5  C   UNL     1      -9.081  10.677  65.075  1.00  0.00    -0.202 C  
HETATM    6  H2  UNL     1      -9.661  14.476  66.451  1.00  0.00     0.000 HD 
HETATM    7  H   UNL     1     -10.379  12.696  64.314  1.00  0.00     0.000 HD 
HETATM    8  O   UNL     1      -9.814  10.223  64.200  1.00  0.00    -0.317 OA 
HETATM    9  O   UNL     1      -7.828  10.198  65.228  1.00  0.00    -0.133 OA 
HETATM   10  N   UNL     1     -10.273  14.187  65.688  1.00  0.00    -0.324 NA 
HETATM   11  H1  UNL     1     -10.431  14.968  65.050  1.00  0.00     0.000 HD 
ENDROOT
BRANCH   3  12
HETATM   12  C   UNL     1     -10.726  10.180  67.629  1.00  0.00    -0.339 A  
HETATM   13  C   UNL     1     -10.685  10.348  69.023  1.00  0.00    -0.260 A  
HETATM   14  C   UNL     1     -10.526   9.236  69.846  1.00  0.00    -0.227 A  
HETATM   15  C   UNL     1     -10.425   7.960  69.298  1.00  0.00    -0.216 A  
HETATM   16  O   UNL     1     -10.454   9.348  71.207  1.00  0.00    -0.318 OA 
HETATM   17  H   UNL     1     -10.346   8.588  71.768  1.00  0.00     0.000 HD 
HETATM   18  C   UNL     1     -10.481   7.773  67.926  1.00  0.00    -0.263 A  
HETATM   19  O   UNL     1     -10.264   6.877  70.112  1.00  0.00    -0.188 OA 
HETATM   20  C   UNL     1     -10.634   8.883  67.092  1.00  0.00    -0.301 A  
HETATM   21  H   UNL     1     -10.195   6.007  69.737  1.00  0.00     0.000 HD 
ENDBRANCH   3  12
TORSDOF 1
ENDMDL
MODEL      120
REMARK 921   NORMALIZED FREE ENERGY PREDICTED BY IDOCK:   -4.71 KCAL/MOL
REMARK 922        TOTAL FREE ENERGY PREDICTED BY IDOCK:   -4.17 KCAL/MOL
REMARK 923 INTER-LIGAND FREE ENERGY PREDICTED BY IDOCK:   -4.25 KCAL/MOL
REMARK 924 INTRA-LIGAND FREE ENERGY PREDICTED BY IDOCK:    0.08 KCAL/MOL
REMARK 927      BINDING AFFINITY PREDICTED BY RF-SCORE:    0.00 PKD
ROOT
HETATM    1  C   UNL     1     -11.105   8.559  72.370  1.00  0.00    -0.397 C  
HETATM    2  C   UNL     1     -11.210   8.314  70.854  1.00  0.00    -0.265 C  
HETATM    3  C   UNL     1     -11.792   6.900  70.543  1.00  0.00    -0.385 C  
HETATM    4  N   UNL     1     -12.040   9.404  70.246  1.00  0.00    -0.465 NA 
HETATM    5  C   UNL     1      -9.844   8.424  70.104  1.00  0.00    -0.181 C  
HETATM    6  H2  UNL     1     -13.412   9.554  71.733  1.00  0.00     0.000 HD 
HETATM    7  H   UNL     1     -12.025   9.330  69.229  1.00  0.00     0.000 HD 
HETATM    8  O   UNL     1      -9.752   8.248  68.891  1.00  0.00    -0.159 OA 
HETATM    9  O   UNL     1      -8.754   8.756  70.828  1.00  0.00    -0.153 OA 
HETATM   10  N   UNL     1     -13.398   9.479  70.716  1.00  0.00    -0.586 NA 
HETATM   11  H1  UNL     1     -13.963  10.221  70.302  1.00  0.00     0.000 HD 
ENDROOT
BRANCH   3  12
HETATM   12  C   UNL     1     -10.980   5.730  71.069  1.00  0.00    -0.300 A  
HETATM   13  C   UNL     1     -10.959   5.430  72.441  1.00  0.00    -0.298 A  
HETATM   14  C   UNL     1     -10.175   4.376  72.904  1.00  0.00    -0.172 A  
HETATM   15  C   UNL     1      -9.426   3.610  72.015  1.00  0.00    -0.135 A  
HETATM   16  O   UNL     1     -10.100   4.059  74.232  1.00  0.00    -0.138 OA 
HETATM   17  H   UNL     1      -9.565   3.340  74.547  1.00  0.00     0.000 HD 
HETATM   18  C   UNL     1      -9.448   3.879  70.656  1.00  0.00    -0.244 A  
HETATM   19  O   UNL     1      -8.657   2.582  72.478  1.00  0.00    -0.062 OA 
HETATM   20  C   UNL     1     -10.226   4.938  70.183  1.00  0.00    -0.310 A  
HETATM   21  H   UNL     1      -8.146   2.060  71.871  1.00  0.00     0.000 HD 
ENDBRANCH   3  12
TORSDOF 1
ENDMDL
MODEL      121
REMARK 921   NORMALIZED FREE ENERGY PREDICTED BY IDOCK:   -4.70 KCAL/MOL
REMARK 922        TOTAL FREE ENERGY PREDICTED BY IDOCK:   -4.16 KCAL/MOL
REMARK 923 INTER-LIGAND FREE ENERGY PREDICTED BY IDOCK:   -4.23 KCAL/MOL
REMARK 924 INTRA-LIGAND FREE ENERGY PREDICTED BY IDOCK:    0.07 KCAL/MOL
REMARK 927      BINDING AFFINITY PREDICTED BY RF-SCORE:    0.00 PKD
ROOT
HETATM    1  C   UNL     1     -11.872  13.282  66.848  1.00  0.00    -0.446 C  
HETATM    2  C   UNL     1     -10.414  13.757  66.720  1.00  0.00    -0.270 C  
HETATM    3  C   UNL     1      -9.485  12.614  66.206  1.00  0.00    -0.207 C  
HETATM    4  N   UNL     1     -10.375  14.955  65.820  1.00  0.00    -0.310 NA 
HETATM    5  C   UNL     1      -9.803  14.278  68.060  1.00  0.00    -0.224 C  
HETATM    6  H2  UNL     1     -11.759  14.323  64.477  1.00  0.00     0.000 HD 
HETATM    7  H   UNL     1      -9.438  15.358  65.814  1.00  0.00     0.000 HD 
HETATM    8  O   UNL     1      -8.647  14.687  68.132  1.00  0.00    -0.153 OA 
HETATM    9  O   UNL     1     -10.602  14.302  69.148  1.00  0.00    -0.236 OA 
HETATM   10  N   UNL     1     -10.822  14.726  64.471  1.00  0.00    -0.625 NA 
HETATM   11  H1  UNL     1     -10.795  15.542  63.858  1.00  0.00     0.000 HD 
ENDROOT
BRANCH   3  12
HETATM   12  C   UNL     1      -9.414  11.382  67.091  1.00  0.00    -0.186 A  
HETATM   13  C   UNL     1     -10.316  10.319  66.915  1.00  0.00    -0.298 A  
HETATM   14  C   UNL     1     -10.257   9.218  67.764  1.00  0.00    -0.218 A  
HETATM   15  C   UNL     1      -9.301   9.156  68.775  1.00  0.00    -0.139 A  
HETATM   16  O   UNL     1     -11.128   8.170  67.652  1.00  0.00    -0.492 OA 
HETATM   17  H   UNL     1     -11.087   7.418  68.232  1.00  0.00     0.000 HD 
HETATM   18  C   UNL     1      -8.392  10.186  68.952  1.00  0.00    -0.130 A  
HETATM   19  O   UNL     1      -9.254   8.075  69.606  1.00  0.00    -0.152 OA 
HETATM   20  C   UNL     1      -8.447  11.298  68.109  1.00  0.00    -0.145 A  
HETATM   21  H   UNL     1      -8.601   8.033  70.295  1.00  0.00     0.000 HD 
ENDBRANCH   3  12
TORSDOF 1
ENDMDL
MODEL      122
REMARK 921   NORMALIZED FREE ENERGY PREDICTED BY IDOCK:   -4.69 KCAL/MOL
REMARK 922        TOTAL FREE ENERGY PREDICTED BY IDOCK:   -4.14 KCAL/MOL
REMARK 923 INTER-LIGAND FREE ENERGY PREDICTED BY IDOCK:   -4.17 KCAL/MOL
REMARK 924 INTRA-LIGAND FREE ENERGY PREDICTED BY IDOCK:    0.02 KCAL/MOL
REMARK 927      BINDING AFFINITY PREDICTED BY RF-SCORE:    0.00 PKD
ROOT
HETATM    1  C   UNL     1      -8.683   7.055  65.779  1.00  0.00    -0.116 C  
HETATM    2  C   UNL     1      -9.634   7.027  66.989  1.00  0.00    -0.157 C  
HETATM    3  C   UNL     1     -10.780   8.075  66.836  1.00  0.00    -0.201 C  
HETATM    4  N   UNL     1     -10.170   5.636  67.149  1.00  0.00    -0.187 NA 
HETATM    5  C   UNL     1      -8.928   7.313  68.351  1.00  0.00    -0.126 C  
HETATM    6  H2  UNL     1     -10.405   5.214  65.178  1.00  0.00     0.000 HD 
HETATM    7  H   UNL     1     -10.709   5.565  68.011  1.00  0.00     0.000 HD 
HETATM    8  O   UNL     1      -9.546   7.336  69.413  1.00  0.00    -0.154 OA 
HETATM    9  O   UNL     1      -7.591   7.504  68.339  1.00  0.00    -0.108 OA 
HETATM   10  N   UNL     1     -10.945   5.143  66.040  1.00  0.00    -0.764 NA 
HETATM   11  H1  UNL     1     -11.309   4.196  66.150  1.00  0.00     0.000 HD 
ENDROOT
BRANCH   3  12
HETATM   12  C   UNL     1     -10.331   9.522  66.731  1.00  0.00    -0.298 A  
HETATM   13  C   UNL     1     -10.268  10.339  67.873  1.00  0.00    -0.217 A  
HETATM   14  C   UNL     1      -9.892  11.673  67.745  1.00  0.00    -0.179 A  
HETATM   15  C   UNL     1      -9.563  12.198  66.498  1.00  0.00    -0.228 A  
HETATM   16  O   UNL     1      -9.840  12.516  68.821  1.00  0.00    -0.400 OA 
HETATM   17  H   UNL     1      -9.583  13.427  68.733  1.00  0.00     0.000 HD 
HETATM   18  C   UNL     1      -9.602  11.403  65.364  1.00  0.00    -0.255 A  
HETATM   19  O   UNL     1      -9.200  13.508  66.382  1.00  0.00    -0.409 OA 
HETATM   20  C   UNL     1      -9.984  10.065  65.480  1.00  0.00    -0.367 A  
HETATM   21  H   UNL     1      -8.976  13.866  65.531  1.00  0.00     0.000 HD 
ENDBRANCH   3  12
TORSDOF 1
ENDMDL
MODEL      123
REMARK 921   NORMALIZED FREE ENERGY PREDICTED BY IDOCK:   -4.66 KCAL/MOL
REMARK 922        TOTAL FREE ENERGY PREDICTED BY IDOCK:   -4.12 KCAL/MOL
REMARK 923 INTER-LIGAND FREE ENERGY PREDICTED BY IDOCK:   -4.59 KCAL/MOL
REMARK 924 INTRA-LIGAND FREE ENERGY PREDICTED BY IDOCK:    0.47 KCAL/MOL
REMARK 927      BINDING AFFINITY PREDICTED BY RF-SCORE:    0.00 PKD
ROOT
HETATM    1  C   UNL     1      -9.070  12.213  65.582  1.00  0.00     0.132 C  
HETATM    2  C   UNL     1     -10.375  13.006  65.773  1.00  0.00    -0.286 C  
HETATM    3  C   UNL     1     -10.727  13.169  67.284  1.00  0.00    -0.262 C  
HETATM    4  N   UNL     1     -10.238  14.332  65.086  1.00  0.00    -0.458 NA 
HETATM    5  C   UNL     1     -11.613  12.354  65.080  1.00  0.00    -0.345 C  
HETATM    6  H2  UNL     1      -8.303  14.689  65.582  1.00  0.00     0.000 HD 
HETATM    7  H   UNL     1     -11.130  14.826  65.098  1.00  0.00     0.000 HD 
HETATM    8  O   UNL     1     -12.733  12.856  65.142  1.00  0.00    -0.587 OA 
HETATM    9  O   UNL     1     -11.414  11.224  64.369  1.00  0.00    -0.165 OA 
HETATM   10  N   UNL     1      -9.195  15.183  65.594  1.00  0.00    -0.407 NA 
HETATM   11  H1  UNL     1      -9.102  16.086  65.127  1.00  0.00     0.000 HD 
ENDROOT
BRANCH   3  12
HETATM   12  C   UNL     1     -10.946  11.874  68.047  1.00  0.00    -0.271 A  
HETATM   13  C   UNL     1     -11.929  11.790  69.048  1.00  0.00    -0.341 A  
HETATM   14  C   UNL     1     -12.084  10.604  69.761  1.00  0.00    -0.272 A  
HETATM   15  C   UNL     1     -11.285   9.499  69.477  1.00  0.00    -0.074 A  
HETATM   16  O   UNL     1     -13.006  10.478  70.763  1.00  0.00    -0.370 OA 
HETATM   17  H   UNL     1     -13.112   9.668  71.249  1.00  0.00     0.000 HD 
HETATM   18  C   UNL     1     -10.325   9.558  68.481  1.00  0.00    -0.234 A  
HETATM   19  O   UNL     1     -11.442   8.343  70.184  1.00  0.00    -0.448 OA 
HETATM   20  C   UNL     1     -10.156  10.745  67.764  1.00  0.00    -0.201 A  
HETATM   21  H   UNL     1     -10.897   7.589  69.990  1.00  0.00     0.000 HD 
ENDBRANCH   3  12
TORSDOF 1
ENDMDL
MODEL      124
REMARK 921   NORMALIZED FREE ENERGY PREDICTED BY IDOCK:   -4.64 KCAL/MOL
REMARK 922        TOTAL FREE ENERGY PREDICTED BY IDOCK:   -4.09 KCAL/MOL
REMARK 923 INTER-LIGAND FREE ENERGY PREDICTED BY IDOCK:   -4.17 KCAL/MOL
REMARK 924 INTRA-LIGAND FREE ENERGY PREDICTED BY IDOCK:    0.08 KCAL/MOL
REMARK 927      BINDING AFFINITY PREDICTED BY RF-SCORE:    0.00 PKD
ROOT
HETATM    1  C   UNL     1      -8.264   7.862  74.391  1.00  0.00    -0.288 C  
HETATM    2  C   UNL     1      -7.563   7.600  73.046  1.00  0.00    -0.098 C  
HETATM    3  C   UNL     1      -8.235   8.400  71.888  1.00  0.00    -0.210 C  
HETATM    4  N   UNL     1      -6.109   7.938  73.186  1.00  0.00    -0.062 NA 
HETATM    5  C   UNL     1      -7.556   6.097  72.623  1.00  0.00    -0.101 C  
HETATM    6  H2  UNL     1      -6.331   9.588  74.346  1.00  0.00     0.000 HD 
HETATM    7  H   UNL     1      -5.602   7.662  72.345  1.00  0.00     0.000 HD 
HETATM    8  O   UNL     1      -7.044   5.719  71.572  1.00  0.00    -0.072 OA 
HETATM    9  O   UNL     1      -8.107   5.202  73.471  1.00  0.00    -0.109 OA 
HETATM   10  N   UNL     1      -5.824   9.312  73.505  1.00  0.00    -0.305 NA 
HETATM   11  H1  UNL     1      -4.835   9.542  73.601  1.00  0.00     0.000 HD 
ENDROOT
BRANCH   3  12
HETATM   12  C   UNL     1      -9.696   8.075  71.632  1.00  0.00    -0.222 A  
HETATM   13  C   UNL     1     -10.088   7.409  70.458  1.00  0.00    -0.192 A  
HETATM   14  C   UNL     1     -11.438   7.158  70.227  1.00  0.00    -0.247 A  
HETATM   15  C   UNL     1     -12.398   7.547  71.157  1.00  0.00    -0.291 A  
HETATM   16  O   UNL     1     -11.873   6.537  69.088  1.00  0.00    -0.570 OA 
HETATM   17  H   UNL     1     -12.795   6.366  68.932  1.00  0.00     0.000 HD 
HETATM   18  C   UNL     1     -12.029   8.188  72.328  1.00  0.00    -0.434 A  
HETATM   19  O   UNL     1     -13.719   7.300  70.920  1.00  0.00    -0.592 OA 
HETATM   20  C   UNL     1     -10.678   8.451  72.567  1.00  0.00    -0.372 A  
HETATM   21  H   UNL     1     -14.373   7.566  71.555  1.00  0.00     0.000 HD 
ENDBRANCH   3  12
TORSDOF 1
ENDMDL
MODEL      125
REMARK 921   NORMALIZED FREE ENERGY PREDICTED BY IDOCK:   -4.62 KCAL/MOL
REMARK 922        TOTAL FREE ENERGY PREDICTED BY IDOCK:   -4.07 KCAL/MOL
REMARK 923 INTER-LIGAND FREE ENERGY PREDICTED BY IDOCK:   -4.21 KCAL/MOL
REMARK 924 INTRA-LIGAND FREE ENERGY PREDICTED BY IDOCK:    0.14 KCAL/MOL
REMARK 927      BINDING AFFINITY PREDICTED BY RF-SCORE:    0.00 PKD
ROOT
HETATM    1  C   UNL     1      -8.792   9.592  68.286  1.00  0.00    -0.120 C  
HETATM    2  C   UNL     1      -8.948   8.067  68.148  1.00  0.00    -0.135 C  
HETATM    3  C   UNL     1     -10.441   7.633  68.280  1.00  0.00    -0.219 C  
HETATM    4  N   UNL     1      -8.357   7.639  66.839  1.00  0.00    -0.122 NA 
HETATM    5  C   UNL     1      -8.138   7.254  69.206  1.00  0.00    -0.124 C  
HETATM    6  H2  UNL     1      -8.998   9.213  65.730  1.00  0.00     0.000 HD 
HETATM    7  H   UNL     1      -8.343   6.621  66.777  1.00  0.00     0.000 HD 
HETATM    8  O   UNL     1      -8.160   6.026  69.240  1.00  0.00    -0.105 OA 
HETATM    9  O   UNL     1      -7.371   7.944  70.077  1.00  0.00    -0.068 OA 
HETATM   10  N   UNL     1      -8.984   8.195  65.669  1.00  0.00    -0.344 NA 
HETATM   11  H1  UNL     1      -8.581   7.903  64.777  1.00  0.00     0.000 HD 
ENDROOT
BRANCH   3  12
HETATM   12  C   UNL     1     -11.105   7.972  69.604  1.00  0.00    -0.021 A  
HETATM   13  C   UNL     1     -11.593   6.955  70.442  1.00  0.00    -0.385 A  
HETATM   14  C   UNL     1     -12.233   7.292  71.631  1.00  0.00    -0.343 A  
HETATM   15  C   UNL     1     -12.378   8.626  72.002  1.00  0.00    -0.371 A  
HETATM   16  O   UNL     1     -12.750   6.342  72.469  1.00  0.00    -0.522 OA 
HETATM   17  H   UNL     1     -13.186   6.573  73.281  1.00  0.00     0.000 HD 
HETATM   18  C   UNL     1     -11.886   9.641  71.198  1.00  0.00    -0.448 A  
HETATM   19  O   UNL     1     -13.011   8.947  73.168  1.00  0.00    -0.697 OA 
HETATM   20  C   UNL     1     -11.248   9.314  69.999  1.00  0.00    -0.190 A  
HETATM   21  H   UNL     1     -13.109   9.858  73.421  1.00  0.00     0.000 HD 
ENDBRANCH   3  12
TORSDOF 1
ENDMDL
MODEL      126
REMARK 921   NORMALIZED FREE ENERGY PREDICTED BY IDOCK:   -4.62 KCAL/MOL
REMARK 922        TOTAL FREE ENERGY PREDICTED BY IDOCK:   -4.07 KCAL/MOL
REMARK 923 INTER-LIGAND FREE ENERGY PREDICTED BY IDOCK:   -4.16 KCAL/MOL
REMARK 924 INTRA-LIGAND FREE ENERGY PREDICTED BY IDOCK:    0.09 KCAL/MOL
REMARK 927      BINDING AFFINITY PREDICTED BY RF-SCORE:    0.00 PKD
ROOT
HETATM    1  C   UNL     1      -8.346   8.692  68.001  1.00  0.00    -0.123 C  
HETATM    2  C   UNL     1      -9.830   8.456  67.668  1.00  0.00    -0.173 C  
HETATM    3  C   UNL     1     -10.764   9.178  68.688  1.00  0.00    -0.156 C  
HETATM    4  N   UNL     1     -10.086   8.907  66.262  1.00  0.00    -0.359 NA 
HETATM    5  C   UNL     1     -10.239   6.949  67.656  1.00  0.00    -0.185 C  
HETATM    6  H2  UNL     1      -8.909  10.560  66.294  1.00  0.00     0.000 HD 
HETATM    7  H   UNL     1     -11.033   8.653  65.979  1.00  0.00     0.000 HD 
HETATM    8  O   UNL     1     -11.390   6.589  67.417  1.00  0.00    -0.304 OA 
HETATM    9  O   UNL     1      -9.274   6.033  67.886  1.00  0.00    -0.114 OA 
HETATM   10  N   UNL     1      -9.856  10.306  66.012  1.00  0.00    -0.219 NA 
HETATM   11  H1  UNL     1     -10.030  10.612  65.054  1.00  0.00     0.000 HD 
ENDROOT
BRANCH   3  12
HETATM   12  C   UNL     1     -10.617   8.737  70.134  1.00  0.00    -0.237 A  
HETATM   13  C   UNL     1      -9.473   9.078  70.875  1.00  0.00    -0.331 A  
HETATM   14  C   UNL     1      -9.343   8.628  72.186  1.00  0.00    -0.273 A  
HETATM   15  C   UNL     1     -10.345   7.859  72.771  1.00  0.00    -0.333 A  
HETATM   16  O   UNL     1      -8.237   8.910  72.941  1.00  0.00    -0.382 OA 
HETATM   17  H   UNL     1      -8.149   8.603  73.836  1.00  0.00     0.000 HD 
HETATM   18  C   UNL     1     -11.488   7.529  72.062  1.00  0.00    -0.319 A  
HETATM   19  O   UNL     1     -10.206   7.419  74.055  1.00  0.00    -0.405 OA 
HETATM   20  C   UNL     1     -11.626   7.969  70.744  1.00  0.00    -0.251 A  
HETATM   21  H   UNL     1     -10.890   6.894  74.455  1.00  0.00     0.000 HD 
ENDBRANCH   3  12
TORSDOF 1
ENDMDL
MODEL      127
REMARK 921   NORMALIZED FREE ENERGY PREDICTED BY IDOCK:   -4.59 KCAL/MOL
REMARK 922        TOTAL FREE ENERGY PREDICTED BY IDOCK:   -4.04 KCAL/MOL
REMARK 923 INTER-LIGAND FREE ENERGY PREDICTED BY IDOCK:   -4.11 KCAL/MOL
REMARK 924 INTRA-LIGAND FREE ENERGY PREDICTED BY IDOCK:    0.07 KCAL/MOL
REMARK 927      BINDING AFFINITY PREDICTED BY RF-SCORE:    0.00 PKD
ROOT
HETATM    1  C   UNL     1      -8.813  10.407  65.183  1.00  0.00    -0.207 C  
HETATM    2  C   UNL     1      -7.864  10.678  66.364  1.00  0.00    -0.144 C  
HETATM    3  C   UNL     1      -7.464   9.355  67.089  1.00  0.00    -0.091 C  
HETATM    4  N   UNL     1      -6.665  11.421  65.858  1.00  0.00    -0.345 NA 
HETATM    5  C   UNL     1      -8.463  11.632  67.446  1.00  0.00    -0.150 C  
HETATM    6  H2  UNL     1      -6.457  10.425  64.102  1.00  0.00     0.000 HD 
HETATM    7  H   UNL     1      -6.079  11.715  66.640  1.00  0.00     0.000 HD 
HETATM    8  O   UNL     1      -7.838  11.944  68.457  1.00  0.00    -0.134 OA 
HETATM    9  O   UNL     1      -9.693  12.142  67.223  1.00  0.00    -0.188 OA 
HETATM   10  N   UNL     1      -5.872  10.719  64.883  1.00  0.00    -0.349 NA 
HETATM   11  H1  UNL     1      -5.055  11.225  64.539  1.00  0.00     0.000 HD 
ENDROOT
BRANCH   3  12
HETATM   12  C   UNL     1      -8.614   8.567  67.691  1.00  0.00    -0.133 A  
HETATM   13  C   UNL     1      -9.475   7.816  66.872  1.00  0.00    -0.238 A  
HETATM   14  C   UNL     1     -10.545   7.134  67.442  1.00  0.00    -0.302 A  
HETATM   15  C   UNL     1     -10.759   7.177  68.817  1.00  0.00    -0.169 A  
HETATM   16  O   UNL     1     -11.427   6.410  66.686  1.00  0.00    -0.700 OA 
HETATM   17  H   UNL     1     -12.158   5.944  67.076  1.00  0.00     0.000 HD 
HETATM   18  C   UNL     1      -9.910   7.896  69.642  1.00  0.00    -0.179 A  
HETATM   19  O   UNL     1     -11.814   6.508  69.366  1.00  0.00    -0.636 OA 
HETATM   20  C   UNL     1      -8.837   8.590  69.079  1.00  0.00    -0.145 A  
HETATM   21  H   UNL     1     -11.959   6.538  70.304  1.00  0.00     0.000 HD 
ENDBRANCH   3  12
TORSDOF 1
ENDMDL
MODEL      128
REMARK 921   NORMALIZED FREE ENERGY PREDICTED BY IDOCK:   -4.59 KCAL/MOL
REMARK 922        TOTAL FREE ENERGY PREDICTED BY IDOCK:   -4.04 KCAL/MOL
REMARK 923 INTER-LIGAND FREE ENERGY PREDICTED BY IDOCK:   -4.60 KCAL/MOL
REMARK 924 INTRA-LIGAND FREE ENERGY PREDICTED BY IDOCK:    0.56 KCAL/MOL
REMARK 927      BINDING AFFINITY PREDICTED BY RF-SCORE:    0.00 PKD
ROOT
HETATM    1  C   UNL     1      -9.206   8.200  69.266  1.00  0.00    -0.151 C  
HETATM    2  C   UNL     1      -9.551   7.332  70.490  1.00  0.00    -0.168 C  
HETATM    3  C   UNL     1     -11.090   7.292  70.743  1.00  0.00    -0.290 C  
HETATM    4  N   UNL     1      -8.984   5.960  70.283  1.00  0.00    -0.145 NA 
HETATM    5  C   UNL     1      -8.880   7.816  71.814  1.00  0.00    -0.119 C  
HETATM    6  H2  UNL     1      -9.389   5.802  68.300  1.00  0.00     0.000 HD 
HETATM    7  H   UNL     1      -9.099   5.402  71.129  1.00  0.00     0.000 HD 
HETATM    8  O   UNL     1      -9.059   7.239  72.884  1.00  0.00    -0.131 OA 
HETATM    9  O   UNL     1      -8.055   8.883  71.747  1.00  0.00    -0.313 OA 
HETATM   10  N   UNL     1      -9.503   5.244  69.147  1.00  0.00    -0.126 NA 
HETATM   11  H1  UNL     1      -9.117   4.310  69.006  1.00  0.00     0.000 HD 
ENDROOT
BRANCH   3  12
HETATM   12  C   UNL     1     -11.741   8.635  71.026  1.00  0.00    -0.319 A  
HETATM   13  C   UNL     1     -11.232   9.813  70.452  1.00  0.00    -0.362 A  
HETATM   14  C   UNL     1     -11.822  11.037  70.757  1.00  0.00    -0.278 A  
HETATM   15  C   UNL     1     -12.918  11.099  71.612  1.00  0.00    -0.443 A  
HETATM   16  O   UNL     1     -11.349  12.214  70.246  1.00  0.00    -0.483 OA 
HETATM   17  H   UNL     1     -11.752  13.050  70.455  1.00  0.00     0.000 HD 
HETATM   18  C   UNL     1     -13.444   9.946  72.173  1.00  0.00    -0.454 A  
HETATM   19  O   UNL     1     -13.486  12.303  71.910  1.00  0.00    -0.409 OA 
HETATM   20  C   UNL     1     -12.857   8.714  71.878  1.00  0.00    -0.411 A  
HETATM   21  H   UNL     1     -14.234  12.345  72.493  1.00  0.00     0.000 HD 
ENDBRANCH   3  12
TORSDOF 1
ENDMDL
MODEL      129
REMARK 921   NORMALIZED FREE ENERGY PREDICTED BY IDOCK:   -4.59 KCAL/MOL
REMARK 922        TOTAL FREE ENERGY PREDICTED BY IDOCK:   -4.04 KCAL/MOL
REMARK 923 INTER-LIGAND FREE ENERGY PREDICTED BY IDOCK:   -4.06 KCAL/MOL
REMARK 924 INTRA-LIGAND FREE ENERGY PREDICTED BY IDOCK:    0.03 KCAL/MOL
REMARK 927      BINDING AFFINITY PREDICTED BY RF-SCORE:    0.00 PKD
ROOT
HETATM    1  C   UNL     1     -11.453  11.529  67.490  1.00  0.00    -0.355 C  
HETATM    2  C   UNL     1     -10.955  11.415  68.942  1.00  0.00    -0.226 C  
HETATM    3  C   UNL     1      -9.740  10.442  69.053  1.00  0.00    -0.216 C  
HETATM    4  N   UNL     1     -10.618  12.786  69.445  1.00  0.00    -0.412 NA 
HETATM    5  C   UNL     1     -12.042  10.909  69.942  1.00  0.00    -0.354 C  
HETATM    6  H2  UNL     1      -9.786  13.499  67.736  1.00  0.00     0.000 HD 
HETATM    7  H   UNL     1     -10.398  12.750  70.440  1.00  0.00     0.000 HD 
HETATM    8  O   UNL     1     -11.806  10.754  71.138  1.00  0.00    -0.306 OA 
HETATM    9  O   UNL     1     -13.281  10.673  69.458  1.00  0.00     0.110 OA 
HETATM   10  N   UNL     1      -9.567  13.463  68.732  1.00  0.00    -0.412 NA 
HETATM   11  H1  UNL     1      -9.337  14.396  69.074  1.00  0.00     0.000 HD 
ENDROOT
BRANCH   3  12
HETATM   12  C   UNL     1     -10.009   9.010  68.623  1.00  0.00    -0.187 A  
HETATM   13  C   UNL     1     -10.403   8.042  69.562  1.00  0.00    -0.221 A  
HETATM   14  C   UNL     1     -10.605   6.727  69.150  1.00  0.00    -0.232 A  
HETATM   15  C   UNL     1     -10.435   6.371  67.816  1.00  0.00    -0.226 A  
HETATM   16  O   UNL     1     -10.963   5.741  70.029  1.00  0.00    -0.336 OA 
HETATM   17  H   UNL     1     -11.101   4.844  69.747  1.00  0.00     0.000 HD 
HETATM   18  C   UNL     1     -10.065   7.316  66.873  1.00  0.00    -0.317 A  
HETATM   19  O   UNL     1     -10.631   5.079  67.423  1.00  0.00    -0.118 OA 
HETATM   20  C   UNL     1      -9.853   8.636  67.276  1.00  0.00    -0.256 A  
HETATM   21  H   UNL     1     -10.515   4.836  66.511  1.00  0.00     0.000 HD 
ENDBRANCH   3  12
TORSDOF 1
ENDMDL
MODEL      130
REMARK 921   NORMALIZED FREE ENERGY PREDICTED BY IDOCK:   -4.57 KCAL/MOL
REMARK 922        TOTAL FREE ENERGY PREDICTED BY IDOCK:   -4.02 KCAL/MOL
REMARK 923 INTER-LIGAND FREE ENERGY PREDICTED BY IDOCK:   -4.18 KCAL/MOL
REMARK 924 INTRA-LIGAND FREE ENERGY PREDICTED BY IDOCK:    0.16 KCAL/MOL
REMARK 927      BINDING AFFINITY PREDICTED BY RF-SCORE:    0.00 PKD
ROOT
HETATM    1  C   UNL     1     -10.555   7.449  67.128  1.00  0.00    -0.413 C  
HETATM    2  C   UNL     1     -10.122   7.973  68.509  1.00  0.00    -0.199 C  
HETATM    3  C   UNL     1     -10.779   9.352  68.827  1.00  0.00    -0.200 C  
HETATM    4  N   UNL     1     -10.461   6.943  69.544  1.00  0.00    -0.213 NA 
HETATM    5  C   UNL     1      -8.578   8.155  68.657  1.00  0.00    -0.127 C  
HETATM    6  H2  UNL     1     -12.244   6.364  68.767  1.00  0.00     0.000 HD 
HETATM    7  H   UNL     1     -10.078   7.216  70.449  1.00  0.00     0.000 HD 
HETATM    8  O   UNL     1      -8.068   8.572  69.694  1.00  0.00    -0.108 OA 
HETATM    9  O   UNL     1      -7.800   7.803  67.610  1.00  0.00    -0.118 OA 
HETATM   10  N   UNL     1     -11.861   6.637  69.672  1.00  0.00    -0.646 NA 
HETATM   11  H1  UNL     1     -12.092   5.935  70.377  1.00  0.00     0.000 HD 
ENDROOT
BRANCH   3  12
HETATM   12  C   UNL     1     -10.439  10.475  67.863  1.00  0.00    -0.247 A  
HETATM   13  C   UNL     1      -9.174  11.087  67.893  1.00  0.00    -0.155 A  
HETATM   14  C   UNL     1      -8.899  12.142  67.026  1.00  0.00    -0.203 A  
HETATM   15  C   UNL     1      -9.861  12.581  66.121  1.00  0.00    -0.258 A  
HETATM   16  O   UNL     1      -7.694  12.788  67.033  1.00  0.00    -0.352 OA 
HETATM   17  H   UNL     1      -7.507  13.508  66.441  1.00  0.00     0.000 HD 
HETATM   18  C   UNL     1     -11.107  11.978  66.065  1.00  0.00    -0.364 A  
HETATM   19  O   UNL     1      -9.585  13.618  65.279  1.00  0.00    -0.534 OA 
HETATM   20  C   UNL     1     -11.395  10.924  66.934  1.00  0.00    -0.044 A  
HETATM   21  H   UNL     1     -10.241  13.918  64.661  1.00  0.00     0.000 HD 
ENDBRANCH   3  12
TORSDOF 1
ENDMDL
MODEL      131
REMARK 921   NORMALIZED FREE ENERGY PREDICTED BY IDOCK:   -4.56 KCAL/MOL
REMARK 922        TOTAL FREE ENERGY PREDICTED BY IDOCK:   -4.01 KCAL/MOL
REMARK 923 INTER-LIGAND FREE ENERGY PREDICTED BY IDOCK:   -4.08 KCAL/MOL
REMARK 924 INTRA-LIGAND FREE ENERGY PREDICTED BY IDOCK:    0.08 KCAL/MOL
REMARK 927      BINDING AFFINITY PREDICTED BY RF-SCORE:    0.00 PKD
ROOT
HETATM    1  C   UNL     1     -10.923  12.143  69.230  1.00  0.00    -0.168 C  
HETATM    2  C   UNL     1     -10.462  12.976  68.021  1.00  0.00    -0.228 C  
HETATM    3  C   UNL     1     -10.955  12.353  66.678  1.00  0.00    -0.309 C  
HETATM    4  N   UNL     1     -10.946  14.384  68.193  1.00  0.00    -0.247 NA 
HETATM    5  C   UNL     1      -8.911  13.126  67.916  1.00  0.00    -0.196 C  
HETATM    6  H2  UNL     1     -12.768  13.946  68.971  1.00  0.00     0.000 HD 
HETATM    7  H   UNL     1     -10.553  14.981  67.465  1.00  0.00     0.000 HD 
HETATM    8  O   UNL     1      -8.378  13.754  67.004  1.00  0.00    -0.176 OA 
HETATM    9  O   UNL     1      -8.158  12.568  68.888  1.00  0.00     0.029 OA 
HETATM   10  N   UNL     1     -12.375  14.542  68.243  1.00  0.00    -0.595 NA 
HETATM   11  H1  UNL     1     -12.705  15.501  68.360  1.00  0.00     0.000 HD 
ENDROOT
BRANCH   3  12
HETATM   12  C   UNL     1     -10.460  10.947  66.390  1.00  0.00    -0.307 A  
HETATM   13  C   UNL     1     -10.982   9.845  67.091  1.00  0.00    -0.147 A  
HETATM   14  C   UNL     1     -10.484   8.570  66.837  1.00  0.00    -0.275 A  
HETATM   15  C   UNL     1      -9.486   8.378  65.885  1.00  0.00    -0.099 A  
HETATM   16  O   UNL     1     -10.939   7.469  67.510  1.00  0.00    -0.502 OA 
HETATM   17  H   UNL     1     -10.598   6.599  67.336  1.00  0.00     0.000 HD 
HETATM   18  C   UNL     1      -8.973   9.449  65.172  1.00  0.00    -0.258 A  
HETATM   19  O   UNL     1      -9.001   7.125  65.647  1.00  0.00    -0.348 OA 
HETATM   20  C   UNL     1      -9.461  10.733  65.423  1.00  0.00    -0.258 A  
HETATM   21  H   UNL     1      -8.321   6.994  64.997  1.00  0.00     0.000 HD 
ENDBRANCH   3  12
TORSDOF 1
ENDMDL
MODEL      132
REMARK 921   NORMALIZED FREE ENERGY PREDICTED BY IDOCK:   -4.52 KCAL/MOL
REMARK 922        TOTAL FREE ENERGY PREDICTED BY IDOCK:   -3.97 KCAL/MOL
REMARK 923 INTER-LIGAND FREE ENERGY PREDICTED BY IDOCK:   -4.07 KCAL/MOL
REMARK 924 INTRA-LIGAND FREE ENERGY PREDICTED BY IDOCK:    0.10 KCAL/MOL
REMARK 927      BINDING AFFINITY PREDICTED BY RF-SCORE:    0.00 PKD
ROOT
HETATM    1  C   UNL     1      -8.014   8.131  65.656  1.00  0.00    -0.108 C  
HETATM    2  C   UNL     1      -8.868   8.201  66.935  1.00  0.00    -0.131 C  
HETATM    3  C   UNL     1     -10.304   8.730  66.632  1.00  0.00    -0.298 C  
HETATM    4  N   UNL     1      -8.897   6.843  67.570  1.00  0.00    -0.119 NA 
HETATM    5  C   UNL     1      -8.264   9.118  68.045  1.00  0.00    -0.112 C  
HETATM    6  H2  UNL     1      -9.027   5.754  65.862  1.00  0.00     0.000 HD 
HETATM    7  H   UNL     1      -9.358   6.891  68.478  1.00  0.00     0.000 HD 
HETATM    8  O   UNL     1      -8.825   9.289  69.125  1.00  0.00    -0.134 OA 
HETATM    9  O   UNL     1      -7.071   9.701  67.799  1.00  0.00    -0.079 OA 
HETATM   10  N   UNL     1      -9.488   5.802  66.771  1.00  0.00    -0.137 NA 
HETATM   11  H1  UNL     1      -9.508   4.878  67.203  1.00  0.00     0.000 HD 
ENDROOT
BRANCH   3  12
HETATM   12  C   UNL     1     -10.374  10.128  66.044  1.00  0.00    -0.234 A  
HETATM   13  C   UNL     1      -9.952  10.374  64.726  1.00  0.00    -0.409 A  
HETATM   14  C   UNL     1      -9.988  11.671  64.223  1.00  0.00    -0.267 A  
HETATM   15  C   UNL     1     -10.453  12.722  65.008  1.00  0.00    -0.314 A  
HETATM   16  O   UNL     1      -9.564  11.967  62.956  1.00  0.00    -0.563 OA 
HETATM   17  H   UNL     1      -9.589  12.853  62.612  1.00  0.00     0.000 HD 
HETATM   18  C   UNL     1     -10.891  12.496  66.304  1.00  0.00    -0.299 A  
HETATM   19  O   UNL     1     -10.481  13.990  64.508  1.00  0.00    -0.539 OA 
HETATM   20  C   UNL     1     -10.852  11.199  66.821  1.00  0.00    -0.322 A  
HETATM   21  H   UNL     1     -10.799  14.707  65.045  1.00  0.00     0.000 HD 
ENDBRANCH   3  12
TORSDOF 1
ENDMDL
MODEL      133
REMARK 921   NORMALIZED FREE ENERGY PREDICTED BY IDOCK:   -4.49 KCAL/MOL
REMARK 922        TOTAL FREE ENERGY PREDICTED BY IDOCK:   -3.93 KCAL/MOL
REMARK 923 INTER-LIGAND FREE ENERGY PREDICTED BY IDOCK:   -3.97 KCAL/MOL
REMARK 924 INTRA-LIGAND FREE ENERGY PREDICTED BY IDOCK:    0.04 KCAL/MOL
REMARK 927      BINDING AFFINITY PREDICTED BY RF-SCORE:    0.00 PKD
ROOT
HETATM    1  C   UNL     1      -8.201   6.913  69.751  1.00  0.00    -0.131 C  
HETATM    2  C   UNL     1      -8.815   7.221  71.128  1.00  0.00    -0.140 C  
HETATM    3  C   UNL     1     -10.336   7.551  71.012  1.00  0.00    -0.204 C  
HETATM    4  N   UNL     1      -8.565   6.057  72.038  1.00  0.00    -0.135 NA 
HETATM    5  C   UNL     1      -8.139   8.421  71.864  1.00  0.00    -0.145 C  
HETATM    6  H2  UNL     1      -8.864   4.584  70.675  1.00  0.00     0.000 HD 
HETATM    7  H   UNL     1      -8.859   6.285  72.988  1.00  0.00     0.000 HD 
HETATM    8  O   UNL     1      -8.516   8.802  72.970  1.00  0.00    -0.402 OA 
HETATM    9  O   UNL     1      -7.090   9.019  71.260  1.00  0.00    -0.098 OA 
HETATM   10  N   UNL     1      -9.158   4.812  71.624  1.00  0.00    -0.133 NA 
HETATM   11  H1  UNL     1      -8.988   4.020  72.244  1.00  0.00     0.000 HD 
ENDROOT
BRANCH   3  12
HETATM   12  C   UNL     1     -10.679   8.758  70.157  1.00  0.00    -0.239 A  
HETATM   13  C   UNL     1     -11.067   9.971  70.751  1.00  0.00    -0.407 A  
HETATM   14  C   UNL     1     -11.416  11.051  69.945  1.00  0.00    -0.320 A  
HETATM   15  C   UNL     1     -11.366  10.943  68.558  1.00  0.00    -0.299 A  
HETATM   16  O   UNL     1     -11.825  12.245  70.473  1.00  0.00    -0.509 OA 
HETATM   17  H   UNL     1     -12.063  12.982  69.923  1.00  0.00     0.000 HD 
HETATM   18  C   UNL     1     -10.968   9.761  67.955  1.00  0.00    -0.236 A  
HETATM   19  O   UNL     1     -11.713  12.006  67.777  1.00  0.00    -0.402 OA 
HETATM   20  C   UNL     1     -10.623   8.669  68.754  1.00  0.00    -0.169 A  
HETATM   21  H   UNL     1     -11.679  11.932  66.830  1.00  0.00     0.000 HD 
ENDBRANCH   3  12
TORSDOF 1
ENDMDL
MODEL      134
REMARK 921   NORMALIZED FREE ENERGY PREDICTED BY IDOCK:   -4.48 KCAL/MOL
REMARK 922        TOTAL FREE ENERGY PREDICTED BY IDOCK:   -3.92 KCAL/MOL
REMARK 923 INTER-LIGAND FREE ENERGY PREDICTED BY IDOCK:   -4.32 KCAL/MOL
REMARK 924 INTRA-LIGAND FREE ENERGY PREDICTED BY IDOCK:    0.40 KCAL/MOL
REMARK 927      BINDING AFFINITY PREDICTED BY RF-SCORE:    0.00 PKD
ROOT
HETATM    1  C   UNL     1      -9.535  16.110  69.433  1.00  0.00    -0.198 C  
HETATM    2  C   UNL     1      -8.877  16.037  68.044  1.00  0.00    -0.175 C  
HETATM    3  C   UNL     1      -9.866  15.481  66.973  1.00  0.00    -0.236 C  
HETATM    4  N   UNL     1      -8.369  17.400  67.679  1.00  0.00    -0.209 NA 
HETATM    5  C   UNL     1      -7.599  15.140  67.999  1.00  0.00    -0.120 C  
HETATM    6  H2  UNL     1      -9.918  18.471  68.435  1.00  0.00     0.000 HD 
HETATM    7  H   UNL     1      -7.826  17.352  66.817  1.00  0.00     0.000 HD 
HETATM    8  O   UNL     1      -6.960  14.969  66.964  1.00  0.00    -0.202 OA 
HETATM    9  O   UNL     1      -7.188  14.574  69.154  1.00  0.00    -0.127 OA 
HETATM   10  N   UNL     1      -9.375  18.424  67.573  1.00  0.00    -0.264 NA 
HETATM   11  H1  UNL     1      -9.029  19.351  67.325  1.00  0.00     0.000 HD 
ENDROOT
BRANCH   3  12
HETATM   12  C   UNL     1     -10.384  14.077  67.229  1.00  0.00    -0.264 A  
HETATM   13  C   UNL     1     -10.792  13.687  68.516  1.00  0.00    -0.275 A  
HETATM   14  C   UNL     1     -11.226  12.382  68.734  1.00  0.00    -0.273 A  
HETATM   15  C   UNL     1     -11.273  11.469  67.685  1.00  0.00    -0.281 A  
HETATM   16  O   UNL     1     -11.609  11.945  69.973  1.00  0.00    -0.442 OA 
HETATM   17  H   UNL     1     -11.905  11.054  70.121  1.00  0.00     0.000 HD 
HETATM   18  C   UNL     1     -10.892  11.840  66.406  1.00  0.00    -0.325 A  
HETATM   19  O   UNL     1     -11.695  10.191  67.909  1.00  0.00    -0.646 OA 
HETATM   20  C   UNL     1     -10.449  13.145  66.178  1.00  0.00    -0.287 A  
HETATM   21  H   UNL     1     -11.727   9.567  67.193  1.00  0.00     0.000 HD 
ENDBRANCH   3  12
TORSDOF 1
ENDMDL
MODEL      135
REMARK 921   NORMALIZED FREE ENERGY PREDICTED BY IDOCK:   -4.47 KCAL/MOL
REMARK 922        TOTAL FREE ENERGY PREDICTED BY IDOCK:   -3.91 KCAL/MOL
REMARK 923 INTER-LIGAND FREE ENERGY PREDICTED BY IDOCK:   -4.07 KCAL/MOL
REMARK 924 INTRA-LIGAND FREE ENERGY PREDICTED BY IDOCK:    0.16 KCAL/MOL
REMARK 927      BINDING AFFINITY PREDICTED BY RF-SCORE:    0.00 PKD
ROOT
HETATM    1  C   UNL     1     -11.276  15.110  67.049  1.00  0.00    -0.308 C  
HETATM    2  C   UNL     1     -11.511  14.165  68.242  1.00  0.00    -0.304 C  
HETATM    3  C   UNL     1     -10.237  14.047  69.135  1.00  0.00    -0.025 C  
HETATM    4  N   UNL     1     -12.694  14.658  69.020  1.00  0.00    -0.331 NA 
HETATM    5  C   UNL     1     -11.917  12.716  67.825  1.00  0.00    -0.243 C  
HETATM    6  H2  UNL     1     -12.303  16.643  68.869  1.00  0.00     0.000 HD 
HETATM    7  H   UNL     1     -12.941  13.984  69.745  1.00  0.00     0.000 HD 
HETATM    8  O   UNL     1     -12.134  11.837  68.656  1.00  0.00    -0.406 OA 
HETATM    9  O   UNL     1     -12.061  12.457  66.508  1.00  0.00    -0.599 OA 
HETATM   10  N   UNL     1     -12.551  15.970  69.594  1.00  0.00    -0.516 NA 
HETATM   11  H1  UNL     1     -13.356  16.305  70.124  1.00  0.00     0.000 HD 
ENDROOT
BRANCH   3  12
HETATM   12  C   UNL     1      -9.004  13.495  68.443  1.00  0.00    -0.146 A  
HETATM   13  C   UNL     1      -8.901  12.126  68.143  1.00  0.00    -0.187 A  
HETATM   14  C   UNL     1      -7.743  11.637  67.544  1.00  0.00    -0.136 A  
HETATM   15  C   UNL     1      -6.696  12.497  67.226  1.00  0.00    -0.120 A  
HETATM   16  O   UNL     1      -7.583  10.310  67.256  1.00  0.00    -0.094 OA 
HETATM   17  H   UNL     1      -6.792   9.977  66.847  1.00  0.00     0.000 HD 
HETATM   18  C   UNL     1      -6.786  13.853  67.497  1.00  0.00    -0.148 A  
HETATM   19  O   UNL     1      -5.563  12.008  66.643  1.00  0.00    -0.370 OA 
HETATM   20  C   UNL     1      -7.941  14.352  68.104  1.00  0.00    -0.136 A  
HETATM   21  H   UNL     1      -4.848  12.595  66.426  1.00  0.00     0.000 HD 
ENDBRANCH   3  12
TORSDOF 1
ENDMDL
MODEL      136
REMARK 921   NORMALIZED FREE ENERGY PREDICTED BY IDOCK:   -4.46 KCAL/MOL
REMARK 922        TOTAL FREE ENERGY PREDICTED BY IDOCK:   -3.90 KCAL/MOL
REMARK 923 INTER-LIGAND FREE ENERGY PREDICTED BY IDOCK:   -3.92 KCAL/MOL
REMARK 924 INTRA-LIGAND FREE ENERGY PREDICTED BY IDOCK:    0.02 KCAL/MOL
REMARK 927      BINDING AFFINITY PREDICTED BY RF-SCORE:    0.00 PKD
ROOT
HETATM    1  C   UNL     1      -8.361   6.430  69.852  1.00  0.00    -0.130 C  
HETATM    2  C   UNL     1      -7.907   7.624  70.710  1.00  0.00    -0.096 C  
HETATM    3  C   UNL     1      -8.790   7.776  71.988  1.00  0.00    -0.169 C  
HETATM    4  N   UNL     1      -6.458   7.450  71.052  1.00  0.00    -0.039 NA 
HETATM    5  C   UNL     1      -7.950   8.992  69.957  1.00  0.00    -0.113 C  
HETATM    6  H2  UNL     1      -6.498   5.444  71.361  1.00  0.00     0.000 HD 
HETATM    7  H   UNL     1      -6.105   8.284  71.519  1.00  0.00     0.000 HD 
HETATM    8  O   UNL     1      -7.627  10.045  70.502  1.00  0.00    -0.276 OA 
HETATM    9  O   UNL     1      -8.323   8.984  68.660  1.00  0.00    -0.120 OA 
HETATM   10  N   UNL     1      -6.145   6.279  71.829  1.00  0.00    -0.040 NA 
HETATM   11  H1  UNL     1      -5.159   6.160  72.061  1.00  0.00     0.000 HD 
ENDROOT
BRANCH   3  12
HETATM   12  C   UNL     1     -10.267   8.020  71.735  1.00  0.00    -0.260 A  
HETATM   13  C   UNL     1     -10.789   9.325  71.737  1.00  0.00    -0.358 A  
HETATM   14  C   UNL     1     -12.153   9.521  71.543  1.00  0.00    -0.389 A  
HETATM   15  C   UNL     1     -13.000   8.436  71.331  1.00  0.00    -0.229 A  
HETATM   16  O   UNL     1     -12.715  10.768  71.562  1.00  0.00    -0.395 OA 
HETATM   17  H   UNL     1     -13.647  10.901  71.429  1.00  0.00     0.000 HD 
HETATM   18  C   UNL     1     -12.501   7.144  71.308  1.00  0.00    -0.425 A  
HETATM   19  O   UNL     1     -14.336   8.638  71.146  1.00  0.00    -0.609 OA 
HETATM   20  C   UNL     1     -11.134   6.936  71.508  1.00  0.00    -0.276 A  
HETATM   21  H   UNL     1     -14.914   7.897  71.002  1.00  0.00     0.000 HD 
ENDBRANCH   3  12
TORSDOF 1
ENDMDL
MODEL      137
REMARK 921   NORMALIZED FREE ENERGY PREDICTED BY IDOCK:   -4.42 KCAL/MOL
REMARK 922        TOTAL FREE ENERGY PREDICTED BY IDOCK:   -3.86 KCAL/MOL
REMARK 923 INTER-LIGAND FREE ENERGY PREDICTED BY IDOCK:   -3.93 KCAL/MOL
REMARK 924 INTRA-LIGAND FREE ENERGY PREDICTED BY IDOCK:    0.07 KCAL/MOL
REMARK 927      BINDING AFFINITY PREDICTED BY RF-SCORE:    0.00 PKD
ROOT
HETATM    1  C   UNL     1     -11.887  12.607  66.602  1.00  0.00    -0.449 C  
HETATM    2  C   UNL     1     -11.467  12.913  68.051  1.00  0.00    -0.319 C  
HETATM    3  C   UNL     1      -9.927  13.143  68.161  1.00  0.00    -0.234 C  
HETATM    4  N   UNL     1     -12.244  14.099  68.537  1.00  0.00    -0.561 NA 
HETATM    5  C   UNL     1     -11.837  11.785  69.065  1.00  0.00    -0.317 C  
HETATM    6  H2  UNL     1     -12.198  15.171  66.815  1.00  0.00     0.000 HD 
HETATM    7  H   UNL     1     -12.069  14.249  69.531  1.00  0.00     0.000 HD 
HETATM    8  O   UNL     1     -11.564  11.869  70.260  1.00  0.00    -0.249 OA 
HETATM    9  O   UNL     1     -12.506  10.711  68.594  1.00  0.00    -0.252 OA 
HETATM   10  N   UNL     1     -12.023  15.321  67.808  1.00  0.00    -0.383 NA 
HETATM   11  H1  UNL     1     -12.552  16.128  68.140  1.00  0.00     0.000 HD 
ENDROOT
BRANCH   3  12
HETATM   12  C   UNL     1      -9.060  11.967  67.748  1.00  0.00    -0.187 A  
HETATM   13  C   UNL     1      -8.642  11.818  66.415  1.00  0.00    -0.113 A  
HETATM   14  C   UNL     1      -7.881  10.710  66.052  1.00  0.00    -0.156 A  
HETATM   15  C   UNL     1      -7.518   9.760  67.003  1.00  0.00    -0.091 A  
HETATM   16  O   UNL     1      -7.470  10.505  64.763  1.00  0.00    -0.307 OA 
HETATM   17  H   UNL     1      -6.950   9.749  64.516  1.00  0.00     0.000 HD 
HETATM   18  C   UNL     1      -7.906   9.900  68.326  1.00  0.00    -0.085 A  
HETATM   19  O   UNL     1      -6.776   8.676  66.637  1.00  0.00    -0.066 OA 
HETATM   20  C   UNL     1      -8.675  11.004  68.699  1.00  0.00    -0.161 A  
HETATM   21  H   UNL     1      -6.529   8.027  67.286  1.00  0.00     0.000 HD 
ENDBRANCH   3  12
TORSDOF 1
ENDMDL
MODEL      138
REMARK 921   NORMALIZED FREE ENERGY PREDICTED BY IDOCK:   -4.42 KCAL/MOL
REMARK 922        TOTAL FREE ENERGY PREDICTED BY IDOCK:   -3.86 KCAL/MOL
REMARK 923 INTER-LIGAND FREE ENERGY PREDICTED BY IDOCK:   -3.91 KCAL/MOL
REMARK 924 INTRA-LIGAND FREE ENERGY PREDICTED BY IDOCK:    0.05 KCAL/MOL
REMARK 927      BINDING AFFINITY PREDICTED BY RF-SCORE:    0.00 PKD
ROOT
HETATM    1  C   UNL     1      -7.979  10.083  64.281  1.00  0.00    -0.152 C  
HETATM    2  C   UNL     1      -8.202  10.465  65.755  1.00  0.00    -0.156 C  
HETATM    3  C   UNL     1      -7.827   9.289  66.710  1.00  0.00    -0.104 C  
HETATM    4  N   UNL     1      -7.413  11.703  66.057  1.00  0.00    -0.284 NA 
HETATM    5  C   UNL     1      -9.674  10.871  66.083  1.00  0.00    -0.210 C  
HETATM    6  H2  UNL     1      -5.763  11.238  64.971  1.00  0.00     0.000 HD 
HETATM    7  H   UNL     1      -7.637  12.041  66.993  1.00  0.00     0.000 HD 
HETATM    8  O   UNL     1     -10.022  11.196  67.216  1.00  0.00    -0.180 OA 
HETATM    9  O   UNL     1     -10.562  10.892  65.066  1.00  0.00    -0.286 OA 
HETATM   10  N   UNL     1      -5.987  11.577  65.907  1.00  0.00    -0.484 NA 
HETATM   11  H1  UNL     1      -5.450  12.420  66.113  1.00  0.00     0.000 HD 
ENDROOT
BRANCH   3  12
HETATM   12  C   UNL     1      -8.623   8.011  66.517  1.00  0.00    -0.148 A  
HETATM   13  C   UNL     1      -9.845   7.819  67.183  1.00  0.00    -0.270 A  
HETATM   14  C   UNL     1     -10.536   6.621  67.021  1.00  0.00    -0.333 A  
HETATM   15  C   UNL     1     -10.034   5.623  66.191  1.00  0.00    -0.058 A  
HETATM   16  O   UNL     1     -11.716   6.374  67.667  1.00  0.00    -0.528 OA 
HETATM   17  H   UNL     1     -12.188   5.557  67.556  1.00  0.00     0.000 HD 
HETATM   18  C   UNL     1      -8.840   5.801  65.512  1.00  0.00    -0.119 A  
HETATM   19  O   UNL     1     -10.717   4.451  66.042  1.00  0.00    -0.464 OA 
HETATM   20  C   UNL     1      -8.135   6.996  65.673  1.00  0.00    -0.129 A  
HETATM   21  H   UNL     1     -10.374   3.769  65.476  1.00  0.00     0.000 HD 
ENDBRANCH   3  12
TORSDOF 1
ENDMDL
MODEL      139
REMARK 921   NORMALIZED FREE ENERGY PREDICTED BY IDOCK:   -4.41 KCAL/MOL
REMARK 922        TOTAL FREE ENERGY PREDICTED BY IDOCK:   -3.85 KCAL/MOL
REMARK 923 INTER-LIGAND FREE ENERGY PREDICTED BY IDOCK:   -3.90 KCAL/MOL
REMARK 924 INTRA-LIGAND FREE ENERGY PREDICTED BY IDOCK:    0.05 KCAL/MOL
REMARK 927      BINDING AFFINITY PREDICTED BY RF-SCORE:    0.00 PKD
ROOT
HETATM    1  C   UNL     1     -11.063   6.233  69.409  1.00  0.00    -0.477 C  
HETATM    2  C   UNL     1      -9.705   6.333  68.693  1.00  0.00    -0.127 C  
HETATM    3  C   UNL     1      -9.047   7.731  68.912  1.00  0.00    -0.141 C  
HETATM    4  N   UNL     1      -8.822   5.221  69.175  1.00  0.00    -0.099 NA 
HETATM    5  C   UNL     1      -9.788   6.101  67.151  1.00  0.00    -0.141 C  
HETATM    6  H2  UNL     1      -9.378   5.268  71.126  1.00  0.00     0.000 HD 
HETATM    7  H   UNL     1      -7.961   5.196  68.630  1.00  0.00     0.000 HD 
HETATM    8  O   UNL     1      -8.794   6.154  66.430  1.00  0.00    -0.132 OA 
HETATM    9  O   UNL     1     -10.994   5.800  66.624  1.00  0.00    -0.277 OA 
HETATM   10  N   UNL     1      -8.517   5.243  70.581  1.00  0.00    -0.115 NA 
HETATM   11  H1  UNL     1      -7.916   4.485  70.909  1.00  0.00     0.000 HD 
ENDROOT
BRANCH   3  12
HETATM   12  C   UNL     1      -9.844   8.916  68.395  1.00  0.00    -0.191 A  
HETATM   13  C   UNL     1      -9.711   9.345  67.064  1.00  0.00    -0.233 A  
HETATM   14  C   UNL     1     -10.422  10.458  66.625  1.00  0.00    -0.215 A  
HETATM   15  C   UNL     1     -11.276  11.137  67.490  1.00  0.00    -0.301 A  
HETATM   16  O   UNL     1     -10.307  10.932  65.347  1.00  0.00    -0.268 OA 
HETATM   17  H   UNL     1     -10.793  11.692  65.048  1.00  0.00     0.000 HD 
HETATM   18  C   UNL     1     -11.435  10.717  68.801  1.00  0.00    -0.364 A  
HETATM   19  O   UNL     1     -11.966  12.230  67.052  1.00  0.00    -0.576 OA 
HETATM   20  C   UNL     1     -10.721   9.606  69.253  1.00  0.00    -0.246 A  
HETATM   21  H   UNL     1     -12.548  12.693  67.642  1.00  0.00     0.000 HD 
ENDBRANCH   3  12
TORSDOF 1
ENDMDL
MODEL      140
REMARK 921   NORMALIZED FREE ENERGY PREDICTED BY IDOCK:   -4.41 KCAL/MOL
REMARK 922        TOTAL FREE ENERGY PREDICTED BY IDOCK:   -3.85 KCAL/MOL
REMARK 923 INTER-LIGAND FREE ENERGY PREDICTED BY IDOCK:   -3.88 KCAL/MOL
REMARK 924 INTRA-LIGAND FREE ENERGY PREDICTED BY IDOCK:    0.02 KCAL/MOL
REMARK 927      BINDING AFFINITY PREDICTED BY RF-SCORE:    0.00 PKD
ROOT
HETATM    1  C   UNL     1      -8.225   8.304  68.076  1.00  0.00    -0.128 C  
HETATM    2  C   UNL     1      -8.445   9.693  68.700  1.00  0.00    -0.119 C  
HETATM    3  C   UNL     1      -8.475   9.619  70.258  1.00  0.00    -0.221 C  
HETATM    4  N   UNL     1      -7.374  10.618  68.207  1.00  0.00    -0.086 NA 
HETATM    5  C   UNL     1      -9.770  10.383  68.247  1.00  0.00    -0.151 C  
HETATM    6  H2  UNL     1      -5.836   9.294  68.254  1.00  0.00     0.000 HD 
HETATM    7  H   UNL     1      -7.566  11.572  68.513  1.00  0.00     0.000 HD 
HETATM    8  O   UNL     1     -10.100  11.493  68.660  1.00  0.00    -0.209 OA 
HETATM    9  O   UNL     1     -10.542   9.735  67.349  1.00  0.00    -0.251 OA 
HETATM   10  N   UNL     1      -6.029  10.248  68.561  1.00  0.00    -0.041 NA 
HETATM   11  H1  UNL     1      -5.299  10.878  68.225  1.00  0.00     0.000 HD 
ENDROOT
BRANCH   3  12
HETATM   12  C   UNL     1      -9.571   8.751  70.850  1.00  0.00    -0.275 A  
HETATM   13  C   UNL     1     -10.750   9.329  71.354  1.00  0.00    -0.432 A  
HETATM   14  C   UNL     1     -11.723   8.516  71.927  1.00  0.00    -0.341 A  
HETATM   15  C   UNL     1     -11.545   7.137  71.991  1.00  0.00    -0.280 A  
HETATM   16  O   UNL     1     -12.875   9.031  72.456  1.00  0.00    -0.404 OA 
HETATM   17  H   UNL     1     -13.540   8.475  72.847  1.00  0.00     0.000 HD 
HETATM   18  C   UNL     1     -10.398   6.548  71.483  1.00  0.00    -0.238 A  
HETATM   19  O   UNL     1     -12.503   6.349  72.559  1.00  0.00    -0.533 OA 
HETATM   20  C   UNL     1      -9.412   7.355  70.911  1.00  0.00    -0.165 A  
HETATM   21  H   UNL     1     -12.381   5.408  72.602  1.00  0.00     0.000 HD 
ENDBRANCH   3  12
TORSDOF 1
ENDMDL
MODEL      141
REMARK 921   NORMALIZED FREE ENERGY PREDICTED BY IDOCK:   -4.41 KCAL/MOL
REMARK 922        TOTAL FREE ENERGY PREDICTED BY IDOCK:   -3.85 KCAL/MOL
REMARK 923 INTER-LIGAND FREE ENERGY PREDICTED BY IDOCK:   -4.57 KCAL/MOL
REMARK 924 INTRA-LIGAND FREE ENERGY PREDICTED BY IDOCK:    0.72 KCAL/MOL
REMARK 927      BINDING AFFINITY PREDICTED BY RF-SCORE:    0.00 PKD
ROOT
HETATM    1  C   UNL     1      -8.243  11.301  65.853  1.00  0.00     0.012 C  
HETATM    2  C   UNL     1      -9.705  10.841  65.707  1.00  0.00    -0.228 C  
HETATM    3  C   UNL     1     -10.595  11.962  65.086  1.00  0.00    -0.333 C  
HETATM    4  N   UNL     1      -9.736   9.586  64.888  1.00  0.00    -0.438 NA 
HETATM    5  C   UNL     1     -10.369  10.421  67.057  1.00  0.00    -0.240 C  
HETATM    6  H2  UNL     1      -8.296  10.104  63.554  1.00  0.00     0.000 HD 
HETATM    7  H   UNL     1     -10.679   9.199  64.877  1.00  0.00     0.000 HD 
HETATM    8  O   UNL     1     -11.535  10.037  67.116  1.00  0.00    -0.016 OA 
HETATM    9  O   UNL     1      -9.607  10.458  68.171  1.00  0.00    -0.141 OA 
HETATM   10  N   UNL     1      -9.240   9.717  63.543  1.00  0.00    -0.400 NA 
HETATM   11  H1  UNL     1      -9.261   8.862  62.985  1.00  0.00     0.000 HD 
ENDROOT
BRANCH   3  12
HETATM   12  C   UNL     1     -10.673  13.252  65.885  1.00  0.00    -0.284 A  
HETATM   13  C   UNL     1     -10.559  14.498  65.246  1.00  0.00    -0.400 A  
HETATM   14  C   UNL     1     -10.594  15.665  66.004  1.00  0.00    -0.328 A  
HETATM   15  C   UNL     1     -10.756  15.606  67.386  1.00  0.00    -0.309 A  
HETATM   16  O   UNL     1     -10.462  16.902  65.435  1.00  0.00    -0.609 OA 
HETATM   17  H   UNL     1     -10.485  17.699  65.953  1.00  0.00     0.000 HD 
HETATM   18  C   UNL     1     -10.888  14.387  68.030  1.00  0.00    -0.250 A  
HETATM   19  O   UNL     1     -10.784  16.755  68.121  1.00  0.00    -0.336 OA 
HETATM   20  C   UNL     1     -10.848  13.210  67.280  1.00  0.00    -0.270 A  
HETATM   21  H   UNL     1     -10.894  16.714  69.063  1.00  0.00     0.000 HD 
ENDBRANCH   3  12
TORSDOF 1
ENDMDL
MODEL      142
REMARK 921   NORMALIZED FREE ENERGY PREDICTED BY IDOCK:   -4.40 KCAL/MOL
REMARK 922        TOTAL FREE ENERGY PREDICTED BY IDOCK:   -3.83 KCAL/MOL
REMARK 923 INTER-LIGAND FREE ENERGY PREDICTED BY IDOCK:   -3.98 KCAL/MOL
REMARK 924 INTRA-LIGAND FREE ENERGY PREDICTED BY IDOCK:    0.15 KCAL/MOL
REMARK 927      BINDING AFFINITY PREDICTED BY RF-SCORE:    0.00 PKD
ROOT
HETATM    1  C   UNL     1      -8.809   6.573  68.472  1.00  0.00    -0.121 C  
HETATM    2  C   UNL     1     -10.178   7.156  68.864  1.00  0.00    -0.186 C  
HETATM    3  C   UNL     1     -10.022   8.491  69.657  1.00  0.00    -0.192 C  
HETATM    4  N   UNL     1     -10.998   7.338  67.623  1.00  0.00    -0.521 NA 
HETATM    5  C   UNL     1     -11.042   6.197  69.744  1.00  0.00    -0.416 C  
HETATM    6  H2  UNL     1      -9.504   7.980  66.409  1.00  0.00     0.000 HD 
HETATM    7  H   UNL     1     -11.950   7.612  67.868  1.00  0.00     0.000 HD 
HETATM    8  O   UNL     1     -12.158   6.514  70.149  1.00  0.00    -0.323 OA 
HETATM    9  O   UNL     1     -10.538   4.976  70.024  1.00  0.00    -0.245 OA 
HETATM   10  N   UNL     1     -10.455   8.254  66.655  1.00  0.00    -0.392 NA 
HETATM   11  H1  UNL     1     -11.014   8.378  65.809  1.00  0.00     0.000 HD 
ENDROOT
BRANCH   3  12
HETATM   12  C   UNL     1      -9.257   8.388  70.965  1.00  0.00    -0.206 A  
HETATM   13  C   UNL     1      -9.853   7.818  72.102  1.00  0.00    -0.242 A  
HETATM   14  C   UNL     1      -9.145   7.771  73.300  1.00  0.00    -0.244 A  
HETATM   15  C   UNL     1      -7.848   8.269  73.374  1.00  0.00    -0.144 A  
HETATM   16  O   UNL     1      -9.690   7.250  74.442  1.00  0.00    -0.430 OA 
HETATM   17  H   UNL     1      -9.206   7.218  75.259  1.00  0.00     0.000 HD 
HETATM   18  C   UNL     1      -7.237   8.819  72.258  1.00  0.00     0.031 A  
HETATM   19  O   UNL     1      -7.163   8.223  74.553  1.00  0.00    -0.165 OA 
HETATM   20  C   UNL     1      -7.940   8.877  71.053  1.00  0.00    -0.183 A  
HETATM   21  H   UNL     1      -6.278   8.564  74.603  1.00  0.00     0.000 HD 
ENDBRANCH   3  12
TORSDOF 1
ENDMDL
MODEL      143
REMARK 921   NORMALIZED FREE ENERGY PREDICTED BY IDOCK:   -4.39 KCAL/MOL
REMARK 922        TOTAL FREE ENERGY PREDICTED BY IDOCK:   -3.83 KCAL/MOL
REMARK 923 INTER-LIGAND FREE ENERGY PREDICTED BY IDOCK:   -3.95 KCAL/MOL
REMARK 924 INTRA-LIGAND FREE ENERGY PREDICTED BY IDOCK:    0.12 KCAL/MOL
REMARK 927      BINDING AFFINITY PREDICTED BY RF-SCORE:    0.00 PKD
ROOT
HETATM    1  C   UNL     1      -9.494   4.975  68.468  1.00  0.00    -0.185 C  
HETATM    2  C   UNL     1      -9.000   6.347  67.976  1.00  0.00    -0.115 C  
HETATM    3  C   UNL     1      -8.528   7.242  69.164  1.00  0.00    -0.133 C  
HETATM    4  N   UNL     1      -7.908   6.134  66.971  1.00  0.00    -0.101 NA 
HETATM    5  C   UNL     1     -10.077   7.158  67.189  1.00  0.00    -0.225 C  
HETATM    6  H2  UNL     1      -6.998   4.572  67.894  1.00  0.00     0.000 HD 
HETATM    7  H   UNL     1      -7.646   7.023  66.545  1.00  0.00     0.000 HD 
HETATM    8  O   UNL     1      -9.847   8.277  66.736  1.00  0.00    -0.216 OA 
HETATM    9  O   UNL     1     -11.278   6.576  66.986  1.00  0.00    -0.397 OA 
HETATM   10  N   UNL     1      -6.737   5.461  67.468  1.00  0.00    -0.054 NA 
HETATM   11  H1  UNL     1      -5.993   5.316  66.783  1.00  0.00     0.000 HD 
ENDROOT
BRANCH   3  12
HETATM   12  C   UNL     1      -9.590   7.562  70.202  1.00  0.00    -0.168 A  
HETATM   13  C   UNL     1      -9.665   6.832  71.400  1.00  0.00    -0.177 A  
HETATM   14  C   UNL     1     -10.671   7.118  72.318  1.00  0.00    -0.221 A  
HETATM   15  C   UNL     1     -11.592   8.131  72.065  1.00  0.00    -0.330 A  
HETATM   16  O   UNL     1     -10.804   6.419  73.487  1.00  0.00    -0.386 OA 
HETATM   17  H   UNL     1     -11.491   6.615  74.114  1.00  0.00     0.000 HD 
HETATM   18  C   UNL     1     -11.523   8.873  70.897  1.00  0.00    -0.339 A  
HETATM   19  O   UNL     1     -12.578   8.400  72.968  1.00  0.00    -0.676 OA 
HETATM   20  C   UNL     1     -10.521   8.590  69.967  1.00  0.00    -0.226 A  
HETATM   21  H   UNL     1     -13.206   9.092  72.795  1.00  0.00     0.000 HD 
ENDBRANCH   3  12
TORSDOF 1
ENDMDL
MODEL      144
REMARK 921   NORMALIZED FREE ENERGY PREDICTED BY IDOCK:   -4.38 KCAL/MOL
REMARK 922        TOTAL FREE ENERGY PREDICTED BY IDOCK:   -3.81 KCAL/MOL
REMARK 923 INTER-LIGAND FREE ENERGY PREDICTED BY IDOCK:   -4.07 KCAL/MOL
REMARK 924 INTRA-LIGAND FREE ENERGY PREDICTED BY IDOCK:    0.25 KCAL/MOL
REMARK 927      BINDING AFFINITY PREDICTED BY RF-SCORE:    0.00 PKD
ROOT
HETATM    1  C   UNL     1     -11.488  15.452  65.474  1.00  0.00    -0.078 C  
HETATM    2  C   UNL     1     -10.626  15.413  66.749  1.00  0.00    -0.309 C  
HETATM    3  C   UNL     1      -9.250  14.727  66.485  1.00  0.00    -0.304 C  
HETATM    4  N   UNL     1     -10.463  16.812  67.263  1.00  0.00    -0.321 NA 
HETATM    5  C   UNL     1     -11.297  14.655  67.938  1.00  0.00    -0.315 C  
HETATM    6  H2  UNL     1     -10.256  17.732  65.467  1.00  0.00     0.000 HD 
HETATM    7  H   UNL     1      -9.996  16.799  68.170  1.00  0.00     0.000 HD 
HETATM    8  O   UNL     1     -10.738  14.526  69.025  1.00  0.00    -0.241 OA 
HETATM    9  O   UNL     1     -12.541  14.166  67.751  1.00  0.00     0.040 OA 
HETATM   10  N   UNL     1      -9.789  17.720  66.373  1.00  0.00    -0.331 NA 
HETATM   11  H1  UNL     1      -9.678  18.672  66.723  1.00  0.00     0.000 HD 
ENDROOT
BRANCH   3  12
HETATM   12  C   UNL     1      -9.318  13.284  66.021  1.00  0.00    -0.016 A  
HETATM   13  C   UNL     1     -10.084  12.927  64.898  1.00  0.00    -0.229 A  
HETATM   14  C   UNL     1     -10.162  11.591  64.515  1.00  0.00    -0.288 A  
HETATM   15  C   UNL     1      -9.475  10.610  65.225  1.00  0.00    -0.221 A  
HETATM   16  O   UNL     1     -10.915  11.188  63.446  1.00  0.00    -0.682 OA 
HETATM   17  H   UNL     1     -10.968  10.276  63.184  1.00  0.00     0.000 HD 
HETATM   18  C   UNL     1      -8.701  10.946  66.324  1.00  0.00    -0.175 A  
HETATM   19  O   UNL     1      -9.562   9.303  64.845  1.00  0.00    -0.447 OA 
HETATM   20  C   UNL     1      -8.620  12.282  66.721  1.00  0.00    -0.149 A  
HETATM   21  H   UNL     1      -9.093   8.634  65.331  1.00  0.00     0.000 HD 
ENDBRANCH   3  12
TORSDOF 1
ENDMDL
MODEL      145
REMARK 921   NORMALIZED FREE ENERGY PREDICTED BY IDOCK:   -4.36 KCAL/MOL
REMARK 922        TOTAL FREE ENERGY PREDICTED BY IDOCK:   -3.80 KCAL/MOL
REMARK 923 INTER-LIGAND FREE ENERGY PREDICTED BY IDOCK:   -3.89 KCAL/MOL
REMARK 924 INTRA-LIGAND FREE ENERGY PREDICTED BY IDOCK:    0.09 KCAL/MOL
REMARK 927      BINDING AFFINITY PREDICTED BY RF-SCORE:    0.00 PKD
ROOT
HETATM    1  C   UNL     1     -11.249  10.609  68.318  1.00  0.00    -0.362 C  
HETATM    2  C   UNL     1     -10.545   9.477  69.087  1.00  0.00    -0.222 C  
HETATM    3  C   UNL     1      -9.176   9.949  69.668  1.00  0.00    -0.246 C  
HETATM    4  N   UNL     1     -11.465   8.980  70.161  1.00  0.00    -0.446 NA 
HETATM    5  C   UNL     1     -10.263   8.209  68.221  1.00  0.00    -0.206 C  
HETATM    6  H2  UNL     1     -12.227  10.778  70.712  1.00  0.00     0.000 HD 
HETATM    7  H   UNL     1     -11.068   8.153  70.607  1.00  0.00     0.000 HD 
HETATM    8  O   UNL     1      -9.701   7.218  68.681  1.00  0.00    -0.144 OA 
HETATM    9  O   UNL     1     -10.692   8.214  66.940  1.00  0.00    -0.309 OA 
HETATM   10  N   UNL     1     -11.830   9.951  71.158  1.00  0.00    -0.356 NA 
HETATM   11  H1  UNL     1     -12.456   9.612  71.889  1.00  0.00     0.000 HD 
ENDROOT
BRANCH   3  12
HETATM   12  C   UNL     1      -8.156  10.413  68.644  1.00  0.00    -0.118 A  
HETATM   13  C   UNL     1      -8.035  11.774  68.317  1.00  0.00    -0.147 A  
HETATM   14  C   UNL     1      -7.120  12.170  67.345  1.00  0.00    -0.146 A  
HETATM   15  C   UNL     1      -6.315  11.230  66.708  1.00  0.00    -0.139 A  
HETATM   16  O   UNL     1      -6.982  13.479  66.972  1.00  0.00    -0.403 OA 
HETATM   17  H   UNL     1      -6.357  13.749  66.309  1.00  0.00     0.000 HD 
HETATM   18  C   UNL     1      -6.407   9.886  67.030  1.00  0.00    -0.065 A  
HETATM   19  O   UNL     1      -5.425  11.627  65.754  1.00  0.00    -0.501 OA 
HETATM   20  C   UNL     1      -7.327   9.477  67.999  1.00  0.00    -0.082 A  
HETATM   21  H   UNL     1      -4.875  10.985  65.319  1.00  0.00     0.000 HD 
ENDBRANCH   3  12
TORSDOF 1
ENDMDL
MODEL      146
REMARK 921   NORMALIZED FREE ENERGY PREDICTED BY IDOCK:   -4.36 KCAL/MOL
REMARK 922        TOTAL FREE ENERGY PREDICTED BY IDOCK:   -3.79 KCAL/MOL
REMARK 923 INTER-LIGAND FREE ENERGY PREDICTED BY IDOCK:   -3.85 KCAL/MOL
REMARK 924 INTRA-LIGAND FREE ENERGY PREDICTED BY IDOCK:    0.06 KCAL/MOL
REMARK 927      BINDING AFFINITY PREDICTED BY RF-SCORE:    0.00 PKD
ROOT
HETATM    1  C   UNL     1     -10.326   8.666  69.620  1.00  0.00    -0.213 C  
HETATM    2  C   UNL     1     -11.370   8.566  70.747  1.00  0.00    -0.266 C  
HETATM    3  C   UNL     1     -10.750   8.929  72.132  1.00  0.00    -0.323 C  
HETATM    4  N   UNL     1     -12.531   9.450  70.407  1.00  0.00    -0.460 NA 
HETATM    5  C   UNL     1     -12.009   7.148  70.887  1.00  0.00    -0.334 C  
HETATM    6  H2  UNL     1     -11.471  10.992  69.621  1.00  0.00     0.000 HD 
HETATM    7  H   UNL     1     -13.286   9.311  71.079  1.00  0.00     0.000 HD 
HETATM    8  O   UNL     1     -12.855   6.897  71.743  1.00  0.00    -0.362 OA 
HETATM    9  O   UNL     1     -11.630   6.197  70.007  1.00  0.00    -0.392 OA 
HETATM   10  N   UNL     1     -12.226  10.852  70.293  1.00  0.00    -0.322 NA 
HETATM   11  H1  UNL     1     -13.017  11.454  70.061  1.00  0.00     0.000 HD 
ENDROOT
BRANCH   3  12
HETATM   12  C   UNL     1      -9.604   8.043  72.587  1.00  0.00    -0.327 A  
HETATM   13  C   UNL     1      -8.284   8.318  72.191  1.00  0.00    -0.211 A  
HETATM   14  C   UNL     1      -7.255   7.467  72.588  1.00  0.00    -0.075 A  
HETATM   15  C   UNL     1      -7.523   6.359  73.387  1.00  0.00    -0.086 A  
HETATM   16  O   UNL     1      -5.958   7.676  72.209  1.00  0.00    -0.039 OA 
HETATM   17  H   UNL     1      -5.256   7.095  72.480  1.00  0.00     0.000 HD 
HETATM   18  C   UNL     1      -8.816   6.083  73.802  1.00  0.00    -0.123 A  
HETATM   19  O   UNL     1      -6.509   5.529  73.767  1.00  0.00    -0.071 OA 
HETATM   20  C   UNL     1      -9.856   6.925  73.404  1.00  0.00    -0.247 A  
HETATM   21  H   UNL     1      -6.693   4.773  74.312  1.00  0.00     0.000 HD 
ENDBRANCH   3  12
TORSDOF 1
ENDMDL
MODEL      147
REMARK 921   NORMALIZED FREE ENERGY PREDICTED BY IDOCK:   -4.33 KCAL/MOL
REMARK 922        TOTAL FREE ENERGY PREDICTED BY IDOCK:   -3.76 KCAL/MOL
REMARK 923 INTER-LIGAND FREE ENERGY PREDICTED BY IDOCK:   -3.85 KCAL/MOL
REMARK 924 INTRA-LIGAND FREE ENERGY PREDICTED BY IDOCK:    0.09 KCAL/MOL
REMARK 927      BINDING AFFINITY PREDICTED BY RF-SCORE:    0.00 PKD
ROOT
HETATM    1  C   UNL     1      -7.096   9.514  70.171  1.00  0.00    -0.099 C  
HETATM    2  C   UNL     1      -8.219  10.032  69.255  1.00  0.00    -0.147 C  
HETATM    3  C   UNL     1      -9.497  10.399  70.072  1.00  0.00     0.179 C  
HETATM    4  N   UNL     1      -7.703  11.201  68.472  1.00  0.00    -0.121 NA 
HETATM    5  C   UNL     1      -8.655   9.011  68.156  1.00  0.00    -0.130 C  
HETATM    6  H2  UNL     1      -6.609  12.051  69.955  1.00  0.00     0.000 HD 
HETATM    7  H   UNL     1      -8.390  11.486  67.775  1.00  0.00     0.000 HD 
HETATM    8  O   UNL     1      -9.545   9.265  67.348  1.00  0.00    -0.142 OA 
HETATM    9  O   UNL     1      -7.993   7.836  68.093  1.00  0.00    -0.118 OA 
HETATM   10  N   UNL     1      -7.296  12.337  69.258  1.00  0.00    -0.328 NA 
HETATM   11  H1  UNL     1      -6.945  13.133  68.724  1.00  0.00     0.000 HD 
ENDROOT
BRANCH   3  12
HETATM   12  C   UNL     1     -10.127   9.256  70.849  1.00  0.00    -0.373 A  
HETATM   13  C   UNL     1     -11.386   8.749  70.484  1.00  0.00    -0.255 A  
HETATM   14  C   UNL     1     -11.960   7.728  71.236  1.00  0.00    -0.302 A  
HETATM   15  C   UNL     1     -11.290   7.196  72.334  1.00  0.00    -0.274 A  
HETATM   16  O   UNL     1     -13.194   7.218  70.939  1.00  0.00    -0.598 OA 
HETATM   17  H   UNL     1     -13.586   6.521  71.452  1.00  0.00     0.000 HD 
HETATM   18  C   UNL     1     -10.040   7.671  72.697  1.00  0.00    -0.298 A  
HETATM   19  O   UNL     1     -11.863   6.199  73.067  1.00  0.00    -0.472 OA 
HETATM   20  C   UNL     1      -9.458   8.700  71.954  1.00  0.00    -0.369 A  
HETATM   21  H   UNL     1     -11.405   5.836  73.816  1.00  0.00     0.000 HD 
ENDBRANCH   3  12
TORSDOF 1
ENDMDL
MODEL      148
REMARK 921   NORMALIZED FREE ENERGY PREDICTED BY IDOCK:   -4.31 KCAL/MOL
REMARK 922        TOTAL FREE ENERGY PREDICTED BY IDOCK:   -3.75 KCAL/MOL
REMARK 923 INTER-LIGAND FREE ENERGY PREDICTED BY IDOCK:   -4.02 KCAL/MOL
REMARK 924 INTRA-LIGAND FREE ENERGY PREDICTED BY IDOCK:    0.27 KCAL/MOL
REMARK 927      BINDING AFFINITY PREDICTED BY RF-SCORE:    0.00 PKD
ROOT
HETATM    1  C   UNL     1      -9.699  12.349  68.813  1.00  0.00     0.031 C  
HETATM    2  C   UNL     1     -11.110  12.914  68.567  1.00  0.00    -0.267 C  
HETATM    3  C   UNL     1     -11.239  13.520  67.135  1.00  0.00    -0.324 C  
HETATM    4  N   UNL     1     -12.113  11.826  68.805  1.00  0.00    -0.388 NA 
HETATM    5  C   UNL     1     -11.525  14.030  69.578  1.00  0.00    -0.275 C  
HETATM    6  H2  UNL     1     -11.055  10.305  67.977  1.00  0.00     0.000 HD 
HETATM    7  H   UNL     1     -13.059  12.205  68.763  1.00  0.00     0.000 HD 
HETATM    8  O   UNL     1     -12.617  14.591  69.516  1.00  0.00    -0.200 OA 
HETATM    9  O   UNL     1     -10.654  14.345  70.560  1.00  0.00     0.335 OA 
HETATM   10  N   UNL     1     -12.001  10.684  67.935  1.00  0.00    -0.645 NA 
HETATM   11  H1  UNL     1     -12.684   9.943  68.096  1.00  0.00     0.000 HD 
ENDROOT
BRANCH   3  12
HETATM   12  C   UNL     1     -10.302  14.674  66.828  1.00  0.00    -0.268 A  
HETATM   13  C   UNL     1      -8.917  14.547  67.030  1.00  0.00    -0.258 A  
HETATM   14  C   UNL     1      -8.082  15.633  66.779  1.00  0.00    -0.244 A  
HETATM   15  C   UNL     1      -8.608  16.835  66.313  1.00  0.00    -0.305 A  
HETATM   16  O   UNL     1      -6.731  15.569  66.985  1.00  0.00    -0.266 OA 
HETATM   17  H   UNL     1      -6.162  16.310  66.812  1.00  0.00     0.000 HD 
HETATM   18  C   UNL     1      -9.968  16.973  66.090  1.00  0.00    -0.314 A  
HETATM   19  O   UNL     1      -7.782  17.894  66.073  1.00  0.00    -0.437 OA 
HETATM   20  C   UNL     1     -10.815  15.892  66.345  1.00  0.00    -0.193 A  
HETATM   21  H   UNL     1      -8.141  18.715  65.756  1.00  0.00     0.000 HD 
ENDBRANCH   3  12
TORSDOF 1
ENDMDL
MODEL      149
REMARK 921   NORMALIZED FREE ENERGY PREDICTED BY IDOCK:   -4.29 KCAL/MOL
REMARK 922        TOTAL FREE ENERGY PREDICTED BY IDOCK:   -3.72 KCAL/MOL
REMARK 923 INTER-LIGAND FREE ENERGY PREDICTED BY IDOCK:   -3.79 KCAL/MOL
REMARK 924 INTRA-LIGAND FREE ENERGY PREDICTED BY IDOCK:    0.06 KCAL/MOL
REMARK 927      BINDING AFFINITY PREDICTED BY RF-SCORE:    0.00 PKD
ROOT
HETATM    1  C   UNL     1     -10.890   9.520  71.082  1.00  0.00    -0.425 C  
HETATM    2  C   UNL     1     -10.132   9.871  69.789  1.00  0.00    -0.242 C  
HETATM    3  C   UNL     1     -10.524   8.912  68.622  1.00  0.00    -0.223 C  
HETATM    4  N   UNL     1     -10.402  11.305  69.447  1.00  0.00    -0.435 NA 
HETATM    5  C   UNL     1      -8.579   9.808  69.934  1.00  0.00    -0.218 C  
HETATM    6  H2  UNL     1     -12.363  11.339  69.968  1.00  0.00     0.000 HD 
HETATM    7  H   UNL     1      -9.818  11.593  68.661  1.00  0.00     0.000 HD 
HETATM    8  O   UNL     1      -7.827  10.052  68.993  1.00  0.00    -0.087 OA 
HETATM    9  O   UNL     1      -8.072   9.508  71.149  1.00  0.00    -0.308 OA 
HETATM   10  N   UNL     1     -11.779  11.627  69.182  1.00  0.00    -0.298 NA 
HETATM   11  H1  UNL     1     -11.962  12.604  68.949  1.00  0.00     0.000 HD 
ENDROOT
BRANCH   3  12
HETATM   12  C   UNL     1     -10.227   7.442  68.857  1.00  0.00    -0.200 A  
HETATM   13  C   UNL     1      -9.196   6.797  68.153  1.00  0.00    -0.121 A  
HETATM   14  C   UNL     1      -8.969   5.438  68.357  1.00  0.00    -0.108 A  
HETATM   15  C   UNL     1      -9.745   4.721  69.263  1.00  0.00    -0.196 A  
HETATM   16  O   UNL     1      -7.996   4.758  67.678  1.00  0.00    -0.093 OA 
HETATM   17  H   UNL     1      -7.842   3.830  67.817  1.00  0.00     0.000 HD 
HETATM   18  C   UNL     1     -10.754   5.344  69.979  1.00  0.00    -0.296 A  
HETATM   19  O   UNL     1      -9.518   3.389  69.452  1.00  0.00    -0.171 OA 
HETATM   20  C   UNL     1     -10.994   6.705  69.778  1.00  0.00    -0.367 A  
HETATM   21  H   UNL     1     -10.048   2.899  70.071  1.00  0.00     0.000 HD 
ENDBRANCH   3  12
TORSDOF 1
ENDMDL
MODEL      150
REMARK 921   NORMALIZED FREE ENERGY PREDICTED BY IDOCK:   -4.27 KCAL/MOL
REMARK 922        TOTAL FREE ENERGY PREDICTED BY IDOCK:   -3.70 KCAL/MOL
REMARK 923 INTER-LIGAND FREE ENERGY PREDICTED BY IDOCK:   -3.95 KCAL/MOL
REMARK 924 INTRA-LIGAND FREE ENERGY PREDICTED BY IDOCK:    0.25 KCAL/MOL
REMARK 927      BINDING AFFINITY PREDICTED BY RF-SCORE:    0.00 PKD
ROOT
HETATM    1  C   UNL     1     -10.602   9.302  69.618  1.00  0.00    -0.241 C  
HETATM    2  C   UNL     1      -9.819   8.281  70.463  1.00  0.00    -0.183 C  
HETATM    3  C   UNL     1      -8.872   7.415  69.576  1.00  0.00    -0.137 C  
HETATM    4  N   UNL     1      -9.066   9.015  71.531  1.00  0.00    -0.321 NA 
HETATM    5  C   UNL     1     -10.730   7.295  71.261  1.00  0.00    -0.225 C  
HETATM    6  H2  UNL     1      -8.514  10.617  70.414  1.00  0.00     0.000 HD 
HETATM    7  H   UNL     1      -8.635   8.352  72.175  1.00  0.00     0.000 HD 
HETATM    8  O   UNL     1     -10.263   6.413  71.978  1.00  0.00    -0.192 OA 
HETATM    9  O   UNL     1     -12.067   7.460  71.169  1.00  0.00    -0.311 OA 
HETATM   10  N   UNL     1      -8.083   9.953  71.057  1.00  0.00    -0.248 NA 
HETATM   11  H1  UNL     1      -7.570  10.453  71.785  1.00  0.00     0.000 HD 
ENDROOT
BRANCH   3  12
HETATM   12  C   UNL     1      -9.557   6.586  68.504  1.00  0.00    -0.123 A  
HETATM   13  C   UNL     1      -9.315   5.205  68.401  1.00  0.00    -0.155 A  
HETATM   14  C   UNL     1      -9.924   4.474  67.385  1.00  0.00    -0.120 A  
HETATM   15  C   UNL     1     -10.783   5.096  66.484  1.00  0.00    -0.193 A  
HETATM   16  O   UNL     1      -9.701   3.134  67.225  1.00  0.00    -0.371 OA 
HETATM   17  H   UNL     1     -10.118   2.635  66.532  1.00  0.00     0.000 HD 
HETATM   18  C   UNL     1     -11.048   6.453  66.581  1.00  0.00    -0.093 A  
HETATM   19  O   UNL     1     -11.372   4.372  65.489  1.00  0.00    -0.727 OA 
HETATM   20  C   UNL     1     -10.437   7.197  67.593  1.00  0.00    -0.306 A  
HETATM   21  H   UNL     1     -11.958   4.797  64.874  1.00  0.00     0.000 HD 
ENDBRANCH   3  12
TORSDOF 1
ENDMDL
MODEL      151
REMARK 921   NORMALIZED FREE ENERGY PREDICTED BY IDOCK:   -4.22 KCAL/MOL
REMARK 922        TOTAL FREE ENERGY PREDICTED BY IDOCK:   -3.65 KCAL/MOL
REMARK 923 INTER-LIGAND FREE ENERGY PREDICTED BY IDOCK:   -4.61 KCAL/MOL
REMARK 924 INTRA-LIGAND FREE ENERGY PREDICTED BY IDOCK:    0.97 KCAL/MOL
REMARK 927      BINDING AFFINITY PREDICTED BY RF-SCORE:    0.00 PKD
ROOT
HETATM    1  C   UNL     1     -10.859   7.088  67.352  1.00  0.00    -0.371 C  
HETATM    2  C   UNL     1     -10.081   8.049  68.269  1.00  0.00    -0.196 C  
HETATM    3  C   UNL     1     -10.656   9.498  68.195  1.00  0.00    -0.265 C  
HETATM    4  N   UNL     1     -10.107   7.509  69.667  1.00  0.00    -0.185 NA 
HETATM    5  C   UNL     1      -8.558   8.142  67.934  1.00  0.00    -0.132 C  
HETATM    6  H2  UNL     1     -12.021   6.836  69.656  1.00  0.00     0.000 HD 
HETATM    7  H   UNL     1      -9.500   8.066  70.269  1.00  0.00     0.000 HD 
HETATM    8  O   UNL     1      -7.796   8.871  68.565  1.00  0.00    -0.100 OA 
HETATM    9  O   UNL     1      -8.084   7.363  66.939  1.00  0.00    -0.115 OA 
HETATM   10  N   UNL     1     -11.414   7.392  70.257  1.00  0.00    -0.444 NA 
HETATM   11  H1  UNL     1     -11.432   7.024  71.209  1.00  0.00     0.000 HD 
ENDROOT
BRANCH   3  12
HETATM   12  C   UNL     1     -10.612  10.149  66.825  1.00  0.00    -0.239 A  
HETATM   13  C   UNL     1     -10.012   9.492  65.737  1.00  0.00    -0.316 A  
HETATM   14  C   UNL     1      -9.948  10.127  64.500  1.00  0.00    -0.205 A  
HETATM   15  C   UNL     1     -10.488  11.398  64.329  1.00  0.00    -0.342 A  
HETATM   16  O   UNL     1      -9.351   9.542  63.416  1.00  0.00    -0.440 OA 
HETATM   17  H   UNL     1      -9.308   9.975  62.572  1.00  0.00     0.000 HD 
HETATM   18  C   UNL     1     -11.100  12.054  65.385  1.00  0.00    -0.369 A  
HETATM   19  O   UNL     1     -10.417  12.014  63.114  1.00  0.00    -0.596 OA 
HETATM   20  C   UNL     1     -11.163  11.429  66.632  1.00  0.00    -0.298 A  
HETATM   21  H   UNL     1     -10.785  12.882  62.998  1.00  0.00     0.000 HD 
ENDBRANCH   3  12
TORSDOF 1
ENDMDL
MODEL      152
REMARK 921   NORMALIZED FREE ENERGY PREDICTED BY IDOCK:   -4.21 KCAL/MOL
REMARK 922        TOTAL FREE ENERGY PREDICTED BY IDOCK:   -3.64 KCAL/MOL
REMARK 923 INTER-LIGAND FREE ENERGY PREDICTED BY IDOCK:   -3.69 KCAL/MOL
REMARK 924 INTRA-LIGAND FREE ENERGY PREDICTED BY IDOCK:    0.06 KCAL/MOL
REMARK 927      BINDING AFFINITY PREDICTED BY RF-SCORE:    0.00 PKD
ROOT
HETATM    1  C   UNL     1      -8.502   6.866  69.243  1.00  0.00    -0.129 C  
HETATM    2  C   UNL     1      -9.581   7.439  70.180  1.00  0.00    -0.165 C  
HETATM    3  C   UNL     1     -10.874   7.819  69.395  1.00  0.00    -0.121 C  
HETATM    4  N   UNL     1      -9.859   6.439  71.262  1.00  0.00    -0.181 NA 
HETATM    5  C   UNL     1      -9.124   8.713  70.959  1.00  0.00    -0.199 C  
HETATM    6  H2  UNL     1      -9.752   4.769  70.115  1.00  0.00     0.000 HD 
HETATM    7  H   UNL     1     -10.483   6.844  71.960  1.00  0.00     0.000 HD 
HETATM    8  O   UNL     1      -9.869   9.299  71.742  1.00  0.00    -0.252 OA 
HETATM    9  O   UNL     1      -7.858   9.144  70.774  1.00  0.00    -0.125 OA 
HETATM   10  N   UNL     1     -10.375   5.173  70.813  1.00  0.00    -0.241 NA 
HETATM   11  H1  UNL     1     -10.565   4.493  71.550  1.00  0.00     0.000 HD 
ENDROOT
BRANCH   3  12
HETATM   12  C   UNL     1     -10.698   8.875  68.318  1.00  0.00    -0.135 A  
HETATM   13  C   UNL     1     -10.230   8.524  67.040  1.00  0.00    -0.371 A  
HETATM   14  C   UNL     1     -10.039   9.516  66.081  1.00  0.00    -0.256 A  
HETATM   15  C   UNL     1     -10.322  10.847  66.375  1.00  0.00    -0.251 A  
HETATM   16  O   UNL     1      -9.561   9.231  64.832  1.00  0.00    -0.447 OA 
HETATM   17  H   UNL     1      -9.431   9.908  64.178  1.00  0.00     0.000 HD 
HETATM   18  C   UNL     1     -10.802  11.209  67.624  1.00  0.00    -0.295 A  
HETATM   19  O   UNL     1     -10.127  11.812  65.431  1.00  0.00    -0.238 OA 
HETATM   20  C   UNL     1     -10.991  10.223  68.595  1.00  0.00    -0.289 A  
HETATM   21  H   UNL     1     -10.321  12.720  65.632  1.00  0.00     0.000 HD 
ENDBRANCH   3  12
TORSDOF 1
ENDMDL
MODEL      153
REMARK 921   NORMALIZED FREE ENERGY PREDICTED BY IDOCK:   -4.21 KCAL/MOL
REMARK 922        TOTAL FREE ENERGY PREDICTED BY IDOCK:   -3.64 KCAL/MOL
REMARK 923 INTER-LIGAND FREE ENERGY PREDICTED BY IDOCK:   -3.76 KCAL/MOL
REMARK 924 INTRA-LIGAND FREE ENERGY PREDICTED BY IDOCK:    0.12 KCAL/MOL
REMARK 927      BINDING AFFINITY PREDICTED BY RF-SCORE:    0.00 PKD
ROOT
HETATM    1  C   UNL     1     -10.826  14.658  64.933  1.00  0.00    -0.436 C  
HETATM    2  C   UNL     1     -11.502  13.286  65.103  1.00  0.00    -0.295 C  
HETATM    3  C   UNL     1     -11.482  12.822  66.593  1.00  0.00    -0.404 C  
HETATM    4  N   UNL     1     -12.898  13.367  64.563  1.00  0.00    -0.661 NA 
HETATM    5  C   UNL     1     -10.842  12.151  64.259  1.00  0.00    -0.341 C  
HETATM    6  H2  UNL     1     -13.335  15.231  65.236  1.00  0.00     0.000 HD 
HETATM    7  H   UNL     1     -13.326  12.441  64.558  1.00  0.00     0.000 HD 
HETATM    8  O   UNL     1     -11.256  10.994  64.287  1.00  0.00    -0.155 OA 
HETATM    9  O   UNL     1      -9.808  12.483  63.456  1.00  0.00    -0.340 OA 
HETATM   10  N   UNL     1     -13.763  14.305  65.230  1.00  0.00     0.104 NA 
HETATM   11  H1  UNL     1     -14.713  14.360  64.862  1.00  0.00     0.000 HD 
ENDROOT
BRANCH   3  12
HETATM   12  C   UNL     1     -10.103  12.652  67.205  1.00  0.00    -0.224 A  
HETATM   13  C   UNL     1      -9.661  11.390  67.639  1.00  0.00    -0.183 A  
HETATM   14  C   UNL     1      -8.409  11.266  68.233  1.00  0.00    -0.150 A  
HETATM   15  C   UNL     1      -7.586  12.379  68.386  1.00  0.00    -0.129 A  
HETATM   16  O   UNL     1      -7.943  10.066  68.696  1.00  0.00    -0.091 OA 
HETATM   17  H   UNL     1      -7.088   9.982  69.102  1.00  0.00     0.000 HD 
HETATM   18  C   UNL     1      -7.997  13.627  67.947  1.00  0.00    -0.161 A  
HETATM   19  O   UNL     1      -6.362  12.248  68.974  1.00  0.00    -0.074 OA 
HETATM   20  C   UNL     1      -9.254  13.764  67.356  1.00  0.00    -0.221 A  
HETATM   21  H   UNL     1      -5.801  13.008  69.077  1.00  0.00     0.000 HD 
ENDBRANCH   3  12
TORSDOF 1
ENDMDL
MODEL      154
REMARK 921   NORMALIZED FREE ENERGY PREDICTED BY IDOCK:   -4.21 KCAL/MOL
REMARK 922        TOTAL FREE ENERGY PREDICTED BY IDOCK:   -3.63 KCAL/MOL
REMARK 923 INTER-LIGAND FREE ENERGY PREDICTED BY IDOCK:   -3.70 KCAL/MOL
REMARK 924 INTRA-LIGAND FREE ENERGY PREDICTED BY IDOCK:    0.07 KCAL/MOL
REMARK 927      BINDING AFFINITY PREDICTED BY RF-SCORE:    0.00 PKD
ROOT
HETATM    1  C   UNL     1     -11.485   8.186  72.676  1.00  0.00    -0.454 C  
HETATM    2  C   UNL     1     -11.857   7.158  71.592  1.00  0.00    -0.306 C  
HETATM    3  C   UNL     1     -11.555   5.701  72.061  1.00  0.00    -0.148 C  
HETATM    4  N   UNL     1     -13.300   7.340  71.230  1.00  0.00    -0.542 NA 
HETATM    5  C   UNL     1     -11.105   7.371  70.240  1.00  0.00    -0.258 C  
HETATM    6  H2  UNL     1     -13.997   7.711  73.100  1.00  0.00     0.000 HD 
HETATM    7  H   UNL     1     -13.538   6.751  70.433  1.00  0.00     0.000 HD 
HETATM    8  O   UNL     1     -11.281   6.632  69.274  1.00  0.00    -0.289 OA 
HETATM    9  O   UNL     1     -10.267   8.425  70.145  1.00  0.00    -0.189 OA 
HETATM   10  N   UNL     1     -14.236   7.122  72.302  1.00  0.00    -0.602 NA 
HETATM   11  H1  UNL     1     -15.218   7.246  72.056  1.00  0.00     0.000 HD 
ENDROOT
BRANCH   3  12
HETATM   12  C   UNL     1     -10.102   5.408  72.389  1.00  0.00    -0.225 A  
HETATM   13  C   UNL     1      -9.333   4.577  71.557  1.00  0.00    -0.203 A  
HETATM   14  C   UNL     1      -8.014   4.291  71.900  1.00  0.00    -0.088 A  
HETATM   15  C   UNL     1      -7.449   4.835  73.050  1.00  0.00    -0.090 A  
HETATM   16  O   UNL     1      -7.231   3.467  71.139  1.00  0.00    -0.032 OA 
HETATM   17  H   UNL     1      -6.331   3.273  71.373  1.00  0.00     0.000 HD 
HETATM   18  C   UNL     1      -8.187   5.671  73.873  1.00  0.00    -0.110 A  
HETATM   19  O   UNL     1      -6.158   4.545  73.381  1.00  0.00    -0.025 OA 
HETATM   20  C   UNL     1      -9.513   5.959  73.541  1.00  0.00    -0.139 A  
HETATM   21  H   UNL     1      -5.773   4.917  74.166  1.00  0.00     0.000 HD 
ENDBRANCH   3  12
TORSDOF 1
ENDMDL
MODEL      155
REMARK 921   NORMALIZED FREE ENERGY PREDICTED BY IDOCK:   -4.16 KCAL/MOL
REMARK 922        TOTAL FREE ENERGY PREDICTED BY IDOCK:   -3.58 KCAL/MOL
REMARK 923 INTER-LIGAND FREE ENERGY PREDICTED BY IDOCK:   -4.40 KCAL/MOL
REMARK 924 INTRA-LIGAND FREE ENERGY PREDICTED BY IDOCK:    0.82 KCAL/MOL
REMARK 927      BINDING AFFINITY PREDICTED BY RF-SCORE:    0.00 PKD
ROOT
HETATM    1  C   UNL     1      -9.468  11.918  68.456  1.00  0.00    -0.151 C  
HETATM    2  C   UNL     1     -10.584  11.022  67.890  1.00  0.00    -0.205 C  
HETATM    3  C   UNL     1     -11.648  10.680  68.979  1.00  0.00    -0.332 C  
HETATM    4  N   UNL     1     -11.199  11.706  66.706  1.00  0.00    -0.310 NA 
HETATM    5  C   UNL     1     -10.069   9.666  67.310  1.00  0.00    -0.211 C  
HETATM    6  H2  UNL     1     -11.167  13.596  67.447  1.00  0.00     0.000 HD 
HETATM    7  H   UNL     1     -11.859  11.082  66.244  1.00  0.00     0.000 HD 
HETATM    8  O   UNL     1     -10.833   8.833  66.827  1.00  0.00    -0.136 OA 
HETATM    9  O   UNL     1      -8.738   9.443  67.321  1.00  0.00    -0.127 OA 
HETATM   10  N   UNL     1     -11.827  12.971  66.984  1.00  0.00    -0.381 NA 
HETATM   11  H1  UNL     1     -12.245  13.437  66.178  1.00  0.00     0.000 HD 
ENDROOT
BRANCH   3  12
HETATM   12  C   UNL     1     -11.125   9.928  70.190  1.00  0.00    -0.353 A  
HETATM   13  C   UNL     1      -9.743   9.808  70.418  1.00  0.00    -0.244 A  
HETATM   14  C   UNL     1      -9.288   9.079  71.513  1.00  0.00    -0.224 A  
HETATM   15  C   UNL     1     -10.189   8.484  72.391  1.00  0.00    -0.299 A  
HETATM   16  O   UNL     1      -7.953   8.910  71.765  1.00  0.00    -0.303 OA 
HETATM   17  H   UNL     1      -7.643   8.413  72.513  1.00  0.00     0.000 HD 
HETATM   18  C   UNL     1     -11.555   8.607  72.192  1.00  0.00    -0.440 A  
HETATM   19  O   UNL     1      -9.733   7.768  73.459  1.00  0.00    -0.291 OA 
HETATM   20  C   UNL     1     -12.023   9.330  71.093  1.00  0.00    -0.394 A  
HETATM   21  H   UNL     1     -10.349   7.362  74.057  1.00  0.00     0.000 HD 
ENDBRANCH   3  12
TORSDOF 1
ENDMDL
MODEL      156
REMARK 921   NORMALIZED FREE ENERGY PREDICTED BY IDOCK:   -4.15 KCAL/MOL
REMARK 922        TOTAL FREE ENERGY PREDICTED BY IDOCK:   -3.57 KCAL/MOL
REMARK 923 INTER-LIGAND FREE ENERGY PREDICTED BY IDOCK:   -3.69 KCAL/MOL
REMARK 924 INTRA-LIGAND FREE ENERGY PREDICTED BY IDOCK:    0.12 KCAL/MOL
REMARK 927      BINDING AFFINITY PREDICTED BY RF-SCORE:    0.00 PKD
ROOT
HETATM    1  C   UNL     1      -8.512   9.422  67.146  1.00  0.00    -0.128 C  
HETATM    2  C   UNL     1      -9.126   8.273  66.326  1.00  0.00    -0.188 C  
HETATM    3  C   UNL     1     -10.501   7.826  66.912  1.00  0.00    -0.388 C  
HETATM    4  N   UNL     1      -9.245   8.712  64.897  1.00  0.00    -0.390 NA 
HETATM    5  C   UNL     1      -8.222   7.002  66.250  1.00  0.00    -0.120 C  
HETATM    6  H2  UNL     1      -9.809  10.628  65.254  1.00  0.00     0.000 HD 
HETATM    7  H   UNL     1      -9.539   7.928  64.314  1.00  0.00     0.000 HD 
HETATM    8  O   UNL     1      -8.569   5.992  65.641  1.00  0.00    -0.150 OA 
HETATM    9  O   UNL     1      -7.015   7.051  66.853  1.00  0.00    -0.065 OA 
HETATM   10  N   UNL     1     -10.103   9.845  64.670  1.00  0.00    -0.359 NA 
HETATM   11  H1  UNL     1     -10.184  10.143  63.698  1.00  0.00     0.000 HD 
ENDROOT
BRANCH   3  12
HETATM   12  C   UNL     1     -10.464   7.306  68.338  1.00  0.00    -0.228 A  
HETATM   13  C   UNL     1     -10.177   8.169  69.409  1.00  0.00    -0.211 A  
HETATM   14  C   UNL     1     -10.110   7.660  70.704  1.00  0.00    -0.187 A  
HETATM   15  C   UNL     1     -10.341   6.309  70.945  1.00  0.00    -0.205 A  
HETATM   16  O   UNL     1      -9.808   8.453  71.777  1.00  0.00    -0.195 OA 
HETATM   17  H   UNL     1      -9.763   8.106  72.661  1.00  0.00     0.000 HD 
HETATM   18  C   UNL     1     -10.644   5.447  69.904  1.00  0.00    -0.351 A  
HETATM   19  O   UNL     1     -10.269   5.820  72.216  1.00  0.00    -0.188 OA 
HETATM   20  C   UNL     1     -10.707   5.945  68.601  1.00  0.00    -0.339 A  
HETATM   21  H   UNL     1     -10.427   4.897  72.380  1.00  0.00     0.000 HD 
ENDBRANCH   3  12
TORSDOF 1
ENDMDL
MODEL      157
REMARK 921   NORMALIZED FREE ENERGY PREDICTED BY IDOCK:   -4.14 KCAL/MOL
REMARK 922        TOTAL FREE ENERGY PREDICTED BY IDOCK:   -3.56 KCAL/MOL
REMARK 923 INTER-LIGAND FREE ENERGY PREDICTED BY IDOCK:   -3.58 KCAL/MOL
REMARK 924 INTRA-LIGAND FREE ENERGY PREDICTED BY IDOCK:    0.02 KCAL/MOL
REMARK 927      BINDING AFFINITY PREDICTED BY RF-SCORE:    0.00 PKD
ROOT
HETATM    1  C   UNL     1      -6.086  10.072  68.056  1.00  0.00    -0.049 C  
HETATM    2  C   UNL     1      -6.826  10.370  66.740  1.00  0.00    -0.091 C  
HETATM    3  C   UNL     1      -8.347  10.617  66.985  1.00  0.00    -0.126 C  
HETATM    4  N   UNL     1      -6.171  11.543  66.074  1.00  0.00    -0.445 NA 
HETATM    5  C   UNL     1      -6.711   9.228  65.682  1.00  0.00    -0.073 C  
HETATM    6  H2  UNL     1      -5.808  12.631  67.748  1.00  0.00     0.000 HD 
HETATM    7  H   UNL     1      -6.569  11.685  65.145  1.00  0.00     0.000 HD 
HETATM    8  O   UNL     1      -7.251   9.305  64.580  1.00  0.00    -0.096 OA 
HETATM    9  O   UNL     1      -5.961   8.151  65.998  1.00  0.00    -0.040 OA 
HETATM   10  N   UNL     1      -6.206  12.773  66.819  1.00  0.00    -0.363 NA 
HETATM   11  H1  UNL     1      -5.760  13.571  66.366  1.00  0.00     0.000 HD 
ENDROOT
BRANCH   3  12
HETATM   12  C   UNL     1      -9.107   9.456  67.601  1.00  0.00    -0.131 A  
HETATM   13  C   UNL     1      -9.848   8.575  66.795  1.00  0.00    -0.327 A  
HETATM   14  C   UNL     1     -10.569   7.542  67.387  1.00  0.00    -0.294 A  
HETATM   15  C   UNL     1     -10.546   7.365  68.767  1.00  0.00    -0.168 A  
HETATM   16  O   UNL     1     -11.327   6.674  66.650  1.00  0.00    -0.688 OA 
HETATM   17  H   UNL     1     -11.818   5.968  67.054  1.00  0.00     0.000 HD 
HETATM   18  C   UNL     1      -9.806   8.212  69.577  1.00  0.00    -0.181 A  
HETATM   19  O   UNL     1     -11.258   6.352  69.339  1.00  0.00    -0.359 OA 
HETATM   20  C   UNL     1      -9.085   9.256  68.993  1.00  0.00    -0.147 A  
HETATM   21  H   UNL     1     -11.243   6.231  70.281  1.00  0.00     0.000 HD 
ENDBRANCH   3  12
TORSDOF 1
ENDMDL
MODEL      158
REMARK 921   NORMALIZED FREE ENERGY PREDICTED BY IDOCK:   -4.13 KCAL/MOL
REMARK 922        TOTAL FREE ENERGY PREDICTED BY IDOCK:   -3.55 KCAL/MOL
REMARK 923 INTER-LIGAND FREE ENERGY PREDICTED BY IDOCK:   -3.63 KCAL/MOL
REMARK 924 INTRA-LIGAND FREE ENERGY PREDICTED BY IDOCK:    0.07 KCAL/MOL
REMARK 927      BINDING AFFINITY PREDICTED BY RF-SCORE:    0.00 PKD
ROOT
HETATM    1  C   UNL     1      -7.434  10.042  67.845  1.00  0.00    -0.089 C  
HETATM    2  C   UNL     1      -8.256   9.817  69.127  1.00  0.00    -0.130 C  
HETATM    3  C   UNL     1      -8.351   8.301  69.484  1.00  0.00    -0.121 C  
HETATM    4  N   UNL     1      -7.642  10.614  70.239  1.00  0.00    -0.407 NA 
HETATM    5  C   UNL     1      -9.717  10.362  69.042  1.00  0.00    -0.206 C  
HETATM    6  H2  UNL     1      -5.698  10.293  69.753  1.00  0.00     0.000 HD 
HETATM    7  H   UNL     1      -8.235  10.574  71.067  1.00  0.00     0.000 HD 
HETATM    8  O   UNL     1     -10.507  10.256  69.977  1.00  0.00    -0.268 OA 
HETATM    9  O   UNL     1     -10.086  10.996  67.908  1.00  0.00    -0.172 OA 
HETATM   10  N   UNL     1      -6.291  10.253  70.582  1.00  0.00    -0.239 NA 
HETATM   11  H1  UNL     1      -5.873  10.796  71.339  1.00  0.00     0.000 HD 
ENDROOT
BRANCH   3  12
HETATM   12  C   UNL     1      -9.019   7.426  68.438  1.00  0.00    -0.134 A  
HETATM   13  C   UNL     1      -8.347   7.087  67.251  1.00  0.00    -0.122 A  
HETATM   14  C   UNL     1      -8.995   6.316  66.290  1.00  0.00    -0.155 A  
HETATM   15  C   UNL     1     -10.294   5.865  66.504  1.00  0.00    -0.179 A  
HETATM   16  O   UNL     1      -8.394   5.981  65.107  1.00  0.00    -0.145 OA 
HETATM   17  H   UNL     1      -8.837   5.454  64.452  1.00  0.00     0.000 HD 
HETATM   18  C   UNL     1     -10.966   6.174  67.676  1.00  0.00    -0.400 A  
HETATM   19  O   UNL     1     -10.922   5.114  65.554  1.00  0.00    -0.663 OA 
HETATM   20  C   UNL     1     -10.327   6.952  68.644  1.00  0.00    -0.200 A  
HETATM   21  H   UNL     1     -11.809   4.806  65.701  1.00  0.00     0.000 HD 
ENDBRANCH   3  12
TORSDOF 1
ENDMDL
MODEL      159
REMARK 921   NORMALIZED FREE ENERGY PREDICTED BY IDOCK:   -4.10 KCAL/MOL
REMARK 922        TOTAL FREE ENERGY PREDICTED BY IDOCK:   -3.52 KCAL/MOL
REMARK 923 INTER-LIGAND FREE ENERGY PREDICTED BY IDOCK:   -3.55 KCAL/MOL
REMARK 924 INTRA-LIGAND FREE ENERGY PREDICTED BY IDOCK:    0.03 KCAL/MOL
REMARK 927      BINDING AFFINITY PREDICTED BY RF-SCORE:    0.00 PKD
ROOT
HETATM    1  C   UNL     1     -10.296  11.154  65.751  1.00  0.00    -0.316 C  
HETATM    2  C   UNL     1      -9.074  10.509  65.073  1.00  0.00    -0.201 C  
HETATM    3  C   UNL     1      -9.155   8.952  65.116  1.00  0.00    -0.157 C  
HETATM    4  N   UNL     1      -8.974  11.024  63.669  1.00  0.00    -0.366 NA 
HETATM    5  C   UNL     1      -7.711  10.916  65.717  1.00  0.00    -0.036 C  
HETATM    6  H2  UNL     1     -10.959  11.034  63.248  1.00  0.00     0.000 HD 
HETATM    7  H   UNL     1      -8.107  10.702  63.238  1.00  0.00     0.000 HD 
HETATM    8  O   UNL     1      -6.639  10.483  65.299  1.00  0.00    -0.120 OA 
HETATM    9  O   UNL     1      -7.736  11.799  66.738  1.00  0.00    -0.149 OA 
HETATM   10  N   UNL     1     -10.092  10.712  62.818  1.00  0.00    -0.746 NA 
HETATM   11  H1  UNL     1     -10.024  11.063  61.862  1.00  0.00     0.000 HD 
ENDROOT
BRANCH   3  12
HETATM   12  C   UNL     1      -9.196   8.338  66.504  1.00  0.00    -0.236 A  
HETATM   13  C   UNL     1      -8.011   7.943  67.149  1.00  0.00    -0.117 A  
HETATM   14  C   UNL     1      -8.078   7.346  68.405  1.00  0.00    -0.125 A  
HETATM   15  C   UNL     1      -9.306   7.153  69.031  1.00  0.00    -0.140 A  
HETATM   16  O   UNL     1      -6.957   6.921  69.064  1.00  0.00    -0.076 OA 
HETATM   17  H   UNL     1      -7.003   6.513  69.921  1.00  0.00     0.000 HD 
HETATM   18  C   UNL     1     -10.483   7.552  68.418  1.00  0.00    -0.212 A  
HETATM   19  O   UNL     1      -9.362   6.562  70.260  1.00  0.00    -0.158 OA 
HETATM   20  C   UNL     1     -10.428   8.146  67.156  1.00  0.00    -0.396 A  
HETATM   21  H   UNL     1     -10.200   6.431  70.687  1.00  0.00     0.000 HD 
ENDBRANCH   3  12
TORSDOF 1
ENDMDL
MODEL      160
REMARK 921   NORMALIZED FREE ENERGY PREDICTED BY IDOCK:   -4.09 KCAL/MOL
REMARK 922        TOTAL FREE ENERGY PREDICTED BY IDOCK:   -3.51 KCAL/MOL
REMARK 923 INTER-LIGAND FREE ENERGY PREDICTED BY IDOCK:   -3.89 KCAL/MOL
REMARK 924 INTRA-LIGAND FREE ENERGY PREDICTED BY IDOCK:    0.38 KCAL/MOL
REMARK 927      BINDING AFFINITY PREDICTED BY RF-SCORE:    0.00 PKD
ROOT
HETATM    1  C   UNL     1     -10.397   8.640  71.858  1.00  0.00    -0.405 C  
HETATM    2  C   UNL     1      -9.925   7.362  71.142  1.00  0.00    -0.185 C  
HETATM    3  C   UNL     1      -8.941   7.692  69.977  1.00  0.00    -0.143 C  
HETATM    4  N   UNL     1      -9.305   6.445  72.153  1.00  0.00    -0.150 NA 
HETATM    5  C   UNL     1     -11.088   6.515  70.536  1.00  0.00    -0.319 C  
HETATM    6  H2  UNL     1      -8.353   7.863  73.249  1.00  0.00     0.000 HD 
HETATM    7  H   UNL     1      -9.091   5.544  71.724  1.00  0.00     0.000 HD 
HETATM    8  O   UNL     1     -10.882   5.469  69.924  1.00  0.00    -0.326 OA 
HETATM    9  O   UNL     1     -12.352   6.949  70.733  1.00  0.00    -0.376 OA 
HETATM   10  N   UNL     1      -8.139   6.962  72.820  1.00  0.00    -0.108 NA 
HETATM   11  H1  UNL     1      -7.717   6.338  73.508  1.00  0.00     0.000 HD 
ENDROOT
BRANCH   3  12
HETATM   12  C   UNL     1      -9.507   8.567  68.872  1.00  0.00    -0.147 A  
HETATM   13  C   UNL     1      -9.255   8.271  67.522  1.00  0.00    -0.155 A  
HETATM   14  C   UNL     1      -9.751   9.110  66.529  1.00  0.00    -0.241 A  
HETATM   15  C   UNL     1     -10.508  10.230  66.864  1.00  0.00    -0.229 A  
HETATM   16  O   UNL     1      -9.512   8.881  65.202  1.00  0.00    -0.448 OA 
HETATM   17  H   UNL     1      -9.851   9.455  64.524  1.00  0.00     0.000 HD 
HETATM   18  C   UNL     1     -10.783  10.527  68.188  1.00  0.00    -0.273 A  
HETATM   19  O   UNL     1     -10.987  11.049  65.883  1.00  0.00    -0.173 OA 
HETATM   20  C   UNL     1     -10.284   9.695  69.193  1.00  0.00    -0.212 A  
HETATM   21  H   UNL     1     -11.503  11.813  66.112  1.00  0.00     0.000 HD 
ENDBRANCH   3  12
TORSDOF 1
ENDMDL
MODEL      161
REMARK 921   NORMALIZED FREE ENERGY PREDICTED BY IDOCK:   -4.08 KCAL/MOL
REMARK 922        TOTAL FREE ENERGY PREDICTED BY IDOCK:   -3.50 KCAL/MOL
REMARK 923 INTER-LIGAND FREE ENERGY PREDICTED BY IDOCK:   -3.60 KCAL/MOL
REMARK 924 INTRA-LIGAND FREE ENERGY PREDICTED BY IDOCK:    0.10 KCAL/MOL
REMARK 927      BINDING AFFINITY PREDICTED BY RF-SCORE:    0.00 PKD
ROOT
HETATM    1  C   UNL     1     -10.222  10.950  67.795  1.00  0.00    -0.209 C  
HETATM    2  C   UNL     1      -9.149  10.877  66.694  1.00  0.00    -0.162 C  
HETATM    3  C   UNL     1      -9.473   9.757  65.657  1.00  0.00    -0.307 C  
HETATM    4  N   UNL     1      -9.035  12.223  66.043  1.00  0.00    -0.425 NA 
HETATM    5  C   UNL     1      -7.711  10.601  67.235  1.00  0.00    -0.108 C  
HETATM    6  H2  UNL     1     -11.011  12.684  66.038  1.00  0.00     0.000 HD 
HETATM    7  H   UNL     1      -8.250  12.231  65.392  1.00  0.00     0.000 HD 
HETATM    8  O   UNL     1      -6.741  10.505  66.486  1.00  0.00    -0.090 OA 
HETATM    9  O   UNL     1      -7.550  10.504  68.572  1.00  0.00    -0.088 OA 
HETATM   10  N   UNL     1     -10.226  12.693  65.386  1.00  0.00    -0.284 NA 
HETATM   11  H1  UNL     1     -10.147  13.609  64.943  1.00  0.00     0.000 HD 
ENDROOT
BRANCH   3  12
HETATM   12  C   UNL     1      -9.546   8.348  66.220  1.00  0.00    -0.286 A  
HETATM   13  C   UNL     1     -10.610   7.963  67.054  1.00  0.00    -0.381 A  
HETATM   14  C   UNL     1     -10.634   6.679  67.589  1.00  0.00    -0.263 A  
HETATM   15  C   UNL     1      -9.622   5.770  67.291  1.00  0.00    -0.117 A  
HETATM   16  O   UNL     1     -11.632   6.263  68.427  1.00  0.00    -0.438 OA 
HETATM   17  H   UNL     1     -11.648   5.386  68.792  1.00  0.00     0.000 HD 
HETATM   18  C   UNL     1      -8.576   6.125  66.456  1.00  0.00    -0.126 A  
HETATM   19  O   UNL     1      -9.652   4.514  67.825  1.00  0.00    -0.150 OA 
HETATM   20  C   UNL     1      -8.538   7.414  65.919  1.00  0.00    -0.165 A  
HETATM   21  H   UNL     1      -8.962   3.894  67.621  1.00  0.00     0.000 HD 
ENDBRANCH   3  12
TORSDOF 1
ENDMDL
MODEL      162
REMARK 921   NORMALIZED FREE ENERGY PREDICTED BY IDOCK:   -4.08 KCAL/MOL
REMARK 922        TOTAL FREE ENERGY PREDICTED BY IDOCK:   -3.50 KCAL/MOL
REMARK 923 INTER-LIGAND FREE ENERGY PREDICTED BY IDOCK:   -3.77 KCAL/MOL
REMARK 924 INTRA-LIGAND FREE ENERGY PREDICTED BY IDOCK:    0.27 KCAL/MOL
REMARK 927      BINDING AFFINITY PREDICTED BY RF-SCORE:    0.00 PKD
ROOT
HETATM    1  C   UNL     1      -7.885   6.505  71.007  1.00  0.00    -0.110 C  
HETATM    2  C   UNL     1      -8.464   6.849  72.391  1.00  0.00    -0.114 C  
HETATM    3  C   UNL     1     -10.024   6.862  72.368  1.00  0.00    -0.181 C  
HETATM    4  N   UNL     1      -7.929   5.872  73.394  1.00  0.00    -0.108 NA 
HETATM    5  C   UNL     1      -8.001   8.236  72.939  1.00  0.00    -0.141 C  
HETATM    6  H2  UNL     1      -8.007   4.218  72.221  1.00  0.00     0.000 HD 
HETATM    7  H   UNL     1      -8.205   6.150  74.336  1.00  0.00     0.000 HD 
HETATM    8  O   UNL     1      -8.379   8.665  74.026  1.00  0.00    -0.325 OA 
HETATM    9  O   UNL     1      -7.132   8.950  72.191  1.00  0.00    -0.290 OA 
HETATM   10  N   UNL     1      -8.283   4.496  73.162  1.00  0.00    -0.099 NA 
HETATM   11  H1  UNL     1      -7.919   3.831  73.846  1.00  0.00     0.000 HD 
ENDROOT
BRANCH   3  12
HETATM   12  C   UNL     1     -10.655   7.869  71.423  1.00  0.00    -0.246 A  
HETATM   13  C   UNL     1     -10.286   7.911  70.068  1.00  0.00    -0.208 A  
HETATM   14  C   UNL     1     -10.849   8.870  69.230  1.00  0.00    -0.096 A  
HETATM   15  C   UNL     1     -11.785   9.775  69.721  1.00  0.00     0.046 A  
HETATM   16  O   UNL     1     -10.504   8.969  67.910  1.00  0.00    -0.231 OA 
HETATM   17  H   UNL     1     -10.889   9.624  67.339  1.00  0.00     0.000 HD 
HETATM   18  C   UNL     1     -12.176   9.737  71.050  1.00  0.00    -0.436 A  
HETATM   19  O   UNL     1     -12.329  10.713  68.894  1.00  0.00    -0.800 OA 
HETATM   20  C   UNL     1     -11.612   8.783  71.901  1.00  0.00    -0.432 A  
HETATM   21  H   UNL     1     -12.968  11.331  69.229  1.00  0.00     0.000 HD 
ENDBRANCH   3  12
TORSDOF 1
ENDMDL
MODEL      163
REMARK 921   NORMALIZED FREE ENERGY PREDICTED BY IDOCK:   -4.07 KCAL/MOL
REMARK 922        TOTAL FREE ENERGY PREDICTED BY IDOCK:   -3.49 KCAL/MOL
REMARK 923 INTER-LIGAND FREE ENERGY PREDICTED BY IDOCK:   -3.53 KCAL/MOL
REMARK 924 INTRA-LIGAND FREE ENERGY PREDICTED BY IDOCK:    0.04 KCAL/MOL
REMARK 927      BINDING AFFINITY PREDICTED BY RF-SCORE:    0.00 PKD
ROOT
HETATM    1  C   UNL     1      -9.966   9.233  70.610  1.00  0.00    -0.336 C  
HETATM    2  C   UNL     1      -9.875   8.343  69.358  1.00  0.00    -0.185 C  
HETATM    3  C   UNL     1     -10.846   7.126  69.453  1.00  0.00    -0.225 C  
HETATM    4  N   UNL     1     -10.151   9.184  68.148  1.00  0.00    -0.181 NA 
HETATM    5  C   UNL     1      -8.445   7.771  69.096  1.00  0.00    -0.138 C  
HETATM    6  H2  UNL     1     -11.630  10.321  68.946  1.00  0.00     0.000 HD 
HETATM    7  H   UNL     1      -9.981   8.643  67.300  1.00  0.00     0.000 HD 
HETATM    8  O   UNL     1      -8.204   7.036  68.142  1.00  0.00    -0.118 OA 
HETATM    9  O   UNL     1      -7.457   8.140  69.938  1.00  0.00    -0.067 OA 
HETATM   10  N   UNL     1     -11.460   9.781  68.098  1.00  0.00    -0.512 NA 
HETATM   11  H1  UNL     1     -11.647  10.353  67.274  1.00  0.00     0.000 HD 
ENDROOT
BRANCH   3  12
HETATM   12  C   UNL     1     -10.599   6.182  70.616  1.00  0.00    -0.307 A  
HETATM   13  C   UNL     1      -9.715   5.097  70.485  1.00  0.00    -0.260 A  
HETATM   14  C   UNL     1      -9.536   4.223  71.554  1.00  0.00    -0.165 A  
HETATM   15  C   UNL     1     -10.212   4.426  72.754  1.00  0.00    -0.176 A  
HETATM   16  O   UNL     1      -8.708   3.138  71.469  1.00  0.00    -0.074 OA 
HETATM   17  H   UNL     1      -8.585   2.541  72.199  1.00  0.00     0.000 HD 
HETATM   18  C   UNL     1     -11.073   5.500  72.907  1.00  0.00    -0.349 A  
HETATM   19  O   UNL     1     -10.034   3.561  73.794  1.00  0.00    -0.109 OA 
HETATM   20  C   UNL     1     -11.266   6.379  71.839  1.00  0.00    -0.325 A  
HETATM   21  H   UNL     1     -10.495   3.700  74.612  1.00  0.00     0.000 HD 
ENDBRANCH   3  12
TORSDOF 1
ENDMDL
MODEL      164
REMARK 921   NORMALIZED FREE ENERGY PREDICTED BY IDOCK:   -4.05 KCAL/MOL
REMARK 922        TOTAL FREE ENERGY PREDICTED BY IDOCK:   -3.47 KCAL/MOL
REMARK 923 INTER-LIGAND FREE ENERGY PREDICTED BY IDOCK:   -3.49 KCAL/MOL
REMARK 924 INTRA-LIGAND FREE ENERGY PREDICTED BY IDOCK:    0.02 KCAL/MOL
REMARK 927      BINDING AFFINITY PREDICTED BY RF-SCORE:    0.00 PKD
ROOT
HETATM    1  C   UNL     1      -9.296  11.727  68.174  1.00  0.00    -0.190 C  
HETATM    2  C   UNL     1      -9.627  10.583  67.200  1.00  0.00    -0.168 C  
HETATM    3  C   UNL     1     -10.956   9.866  67.593  1.00  0.00    -0.263 C  
HETATM    4  N   UNL     1      -9.683  11.136  65.808  1.00  0.00    -0.215 NA 
HETATM    5  C   UNL     1      -8.519   9.485  67.119  1.00  0.00    -0.131 C  
HETATM    6  H2  UNL     1     -10.593  12.894  66.257  1.00  0.00     0.000 HD 
HETATM    7  H   UNL     1      -9.784  10.378  65.133  1.00  0.00     0.000 HD 
HETATM    8  O   UNL     1      -8.631   8.499  66.394  1.00  0.00    -0.115 OA 
HETATM    9  O   UNL     1      -7.400   9.666  67.852  1.00  0.00    -0.081 OA 
HETATM   10  N   UNL     1     -10.694  12.136  65.583  1.00  0.00    -0.265 NA 
HETATM   11  H1  UNL     1     -10.732  12.512  64.635  1.00  0.00     0.000 HD 
ENDROOT
BRANCH   3  12
HETATM   12  C   UNL     1     -10.967   9.219  68.967  1.00  0.00    -0.060 A  
HETATM   13  C   UNL     1     -10.731   7.842  69.113  1.00  0.00    -0.139 A  
HETATM   14  C   UNL     1     -10.786   7.265  70.379  1.00  0.00    -0.246 A  
HETATM   15  C   UNL     1     -11.057   8.045  71.499  1.00  0.00    -0.248 A  
HETATM   16  O   UNL     1     -10.591   5.925  70.572  1.00  0.00    -0.237 OA 
HETATM   17  H   UNL     1     -10.628   5.531  71.436  1.00  0.00     0.000 HD 
HETATM   18  C   UNL     1     -11.273   9.408  71.377  1.00  0.00    -0.452 A  
HETATM   19  O   UNL     1     -11.113   7.469  72.735  1.00  0.00    -0.312 OA 
HETATM   20  C   UNL     1     -11.227   9.995  70.111  1.00  0.00    -0.367 A  
HETATM   21  H   UNL     1     -11.297   8.002  73.500  1.00  0.00     0.000 HD 
ENDBRANCH   3  12
TORSDOF 1
ENDMDL
MODEL      165
REMARK 921   NORMALIZED FREE ENERGY PREDICTED BY IDOCK:   -4.02 KCAL/MOL
REMARK 922        TOTAL FREE ENERGY PREDICTED BY IDOCK:   -3.43 KCAL/MOL
REMARK 923 INTER-LIGAND FREE ENERGY PREDICTED BY IDOCK:   -3.73 KCAL/MOL
REMARK 924 INTRA-LIGAND FREE ENERGY PREDICTED BY IDOCK:    0.30 KCAL/MOL
REMARK 927      BINDING AFFINITY PREDICTED BY RF-SCORE:    0.00 PKD
ROOT
HETATM    1  C   UNL     1     -10.365   8.257  70.089  1.00  0.00    -0.212 C  
HETATM    2  C   UNL     1     -10.198   7.193  71.189  1.00  0.00    -0.191 C  
HETATM    3  C   UNL     1      -9.063   6.183  70.837  1.00  0.00    -0.155 C  
HETATM    4  N   UNL     1      -9.942   7.886  72.494  1.00  0.00    -0.224 NA 
HETATM    5  C   UNL     1     -11.490   6.358  71.458  1.00  0.00    -0.306 C  
HETATM    6  H2  UNL     1      -8.740   9.358  71.782  1.00  0.00     0.000 HD 
HETATM    7  H   UNL     1      -9.945   7.209  73.256  1.00  0.00     0.000 HD 
HETATM    8  O   UNL     1     -11.523   5.463  72.299  1.00  0.00    -0.201 OA 
HETATM    9  O   UNL     1     -12.599   6.672  70.755  1.00  0.00    -0.261 OA 
HETATM   10  N   UNL     1      -8.743   8.681  72.545  1.00  0.00    -0.405 NA 
HETATM   11  H1  UNL     1      -8.569   9.152  73.433  1.00  0.00     0.000 HD 
ENDROOT
BRANCH   3  12
HETATM   12  C   UNL     1      -9.269   5.388  69.559  1.00  0.00    -0.152 A  
HETATM   13  C   UNL     1      -9.588   6.037  68.354  1.00  0.00    -0.130 A  
HETATM   14  C   UNL     1      -9.812   5.284  67.205  1.00  0.00    -0.161 A  
HETATM   15  C   UNL     1      -9.706   3.896  67.238  1.00  0.00    -0.131 A  
HETATM   16  O   UNL     1     -10.151   5.865  66.014  1.00  0.00    -0.390 OA 
HETATM   17  H   UNL     1     -10.303   5.351  65.230  1.00  0.00     0.000 HD 
HETATM   18  C   UNL     1      -9.374   3.240  68.413  1.00  0.00    -0.241 A  
HETATM   19  O   UNL     1      -9.931   3.166  66.108  1.00  0.00    -0.380 OA 
HETATM   20  C   UNL     1      -9.154   3.986  69.573  1.00  0.00    -0.190 A  
HETATM   21  H   UNL     1      -9.859   2.219  66.131  1.00  0.00     0.000 HD 
ENDBRANCH   3  12
TORSDOF 1
ENDMDL
MODEL      166
REMARK 921   NORMALIZED FREE ENERGY PREDICTED BY IDOCK:   -4.00 KCAL/MOL
REMARK 922        TOTAL FREE ENERGY PREDICTED BY IDOCK:   -3.42 KCAL/MOL
REMARK 923 INTER-LIGAND FREE ENERGY PREDICTED BY IDOCK:   -3.48 KCAL/MOL
REMARK 924 INTRA-LIGAND FREE ENERGY PREDICTED BY IDOCK:    0.06 KCAL/MOL
REMARK 927      BINDING AFFINITY PREDICTED BY RF-SCORE:    0.00 PKD
ROOT
HETATM    1  C   UNL     1     -11.617   9.921  68.490  1.00  0.00     0.207 C  
HETATM    2  C   UNL     1     -11.431  10.606  69.855  1.00  0.00    -0.317 C  
HETATM    3  C   UNL     1     -10.185  10.045  70.609  1.00  0.00    -0.080 C  
HETATM    4  N   UNL     1     -11.333  12.087  69.642  1.00  0.00    -0.461 NA 
HETATM    5  C   UNL     1     -12.655  10.447  70.811  1.00  0.00    -0.371 C  
HETATM    6  H2  UNL     1     -10.225  12.038  67.943  1.00  0.00     0.000 HD 
HETATM    7  H   UNL     1     -11.328  12.570  70.540  1.00  0.00     0.000 HD 
HETATM    8  O   UNL     1     -12.665  10.928  71.942  1.00  0.00    -0.374 OA 
HETATM    9  O   UNL     1     -13.736   9.787  70.343  1.00  0.00     0.112 OA 
HETATM   10  N   UNL     1     -10.220  12.522  68.841  1.00  0.00    -0.425 NA 
HETATM   11  H1  UNL     1     -10.154  13.530  68.696  1.00  0.00     0.000 HD 
ENDROOT
BRANCH   3  12
HETATM   12  C   UNL     1     -10.226   8.561  70.924  1.00  0.00    -0.246 A  
HETATM   13  C   UNL     1      -9.960   7.608  69.925  1.00  0.00    -0.190 A  
HETATM   14  C   UNL     1     -10.043   6.252  70.229  1.00  0.00    -0.184 A  
HETATM   15  C   UNL     1     -10.370   5.835  71.516  1.00  0.00    -0.220 A  
HETATM   16  O   UNL     1      -9.819   5.285  69.287  1.00  0.00    -0.153 OA 
HETATM   17  H   UNL     1      -9.876   4.359  69.495  1.00  0.00     0.000 HD 
HETATM   18  C   UNL     1     -10.617   6.759  72.518  1.00  0.00    -0.249 A  
HETATM   19  O   UNL     1     -10.453   4.503  71.802  1.00  0.00    -0.152 OA 
HETATM   20  C   UNL     1     -10.543   8.122  72.222  1.00  0.00    -0.378 A  
HETATM   21  H   UNL     1     -10.677   4.219  72.681  1.00  0.00     0.000 HD 
ENDBRANCH   3  12
TORSDOF 1
ENDMDL
MODEL      167
REMARK 921   NORMALIZED FREE ENERGY PREDICTED BY IDOCK:   -4.00 KCAL/MOL
REMARK 922        TOTAL FREE ENERGY PREDICTED BY IDOCK:   -3.42 KCAL/MOL
REMARK 923 INTER-LIGAND FREE ENERGY PREDICTED BY IDOCK:   -3.47 KCAL/MOL
REMARK 924 INTRA-LIGAND FREE ENERGY PREDICTED BY IDOCK:    0.05 KCAL/MOL
REMARK 927      BINDING AFFINITY PREDICTED BY RF-SCORE:    0.00 PKD
ROOT
HETATM    1  C   UNL     1      -9.336  12.047  68.505  1.00  0.00    -0.127 C  
HETATM    2  C   UNL     1     -10.156  11.752  67.236  1.00  0.00    -0.192 C  
HETATM    3  C   UNL     1     -11.269  10.693  67.510  1.00  0.00    -0.326 C  
HETATM    4  N   UNL     1     -10.726  13.039  66.720  1.00  0.00    -0.261 NA 
HETATM    5  C   UNL     1      -9.299  11.220  66.043  1.00  0.00    -0.214 C  
HETATM    6  H2  UNL     1     -11.183  13.865  68.517  1.00  0.00     0.000 HD 
HETATM    7  H   UNL     1     -11.174  12.886  65.817  1.00  0.00     0.000 HD 
HETATM    8  O   UNL     1      -9.802  10.929  64.960  1.00  0.00    -0.239 OA 
HETATM    9  O   UNL     1      -7.965  11.119  66.223  1.00  0.00    -0.164 OA 
HETATM   10  N   UNL     1     -11.632  13.712  67.614  1.00  0.00    -0.325 NA 
HETATM   11  H1  UNL     1     -12.020  14.589  67.262  1.00  0.00     0.000 HD 
ENDROOT
BRANCH   3  12
HETATM   12  C   UNL     1     -10.776   9.334  67.977  1.00  0.00    -0.231 A  
HETATM   13  C   UNL     1     -10.410   8.346  67.047  1.00  0.00    -0.385 A  
HETATM   14  C   UNL     1     -10.000   7.095  67.499  1.00  0.00    -0.167 A  
HETATM   15  C   UNL     1      -9.935   6.823  68.863  1.00  0.00    -0.155 A  
HETATM   16  O   UNL     1      -9.658   6.090  66.636  1.00  0.00    -0.147 OA 
HETATM   17  H   UNL     1      -9.378   5.236  66.945  1.00  0.00     0.000 HD 
HETATM   18  C   UNL     1     -10.274   7.790  69.794  1.00  0.00    -0.211 A  
HETATM   19  O   UNL     1      -9.536   5.592  69.296  1.00  0.00    -0.123 OA 
HETATM   20  C   UNL     1     -10.694   9.047  69.351  1.00  0.00    -0.202 A  
HETATM   21  H   UNL     1      -9.492   5.406  70.227  1.00  0.00     0.000 HD 
ENDBRANCH   3  12
TORSDOF 1
ENDMDL
MODEL      168
REMARK 921   NORMALIZED FREE ENERGY PREDICTED BY IDOCK:   -3.99 KCAL/MOL
REMARK 922        TOTAL FREE ENERGY PREDICTED BY IDOCK:   -3.41 KCAL/MOL
REMARK 923 INTER-LIGAND FREE ENERGY PREDICTED BY IDOCK:   -3.86 KCAL/MOL
REMARK 924 INTRA-LIGAND FREE ENERGY PREDICTED BY IDOCK:    0.45 KCAL/MOL
REMARK 927      BINDING AFFINITY PREDICTED BY RF-SCORE:    0.00 PKD
ROOT
HETATM    1  C   UNL     1      -7.223  18.705  65.979  1.00  0.00    -0.293 C  
HETATM    2  C   UNL     1      -7.367  19.448  67.319  1.00  0.00    -0.220 C  
HETATM    3  C   UNL     1      -6.370  18.899  68.386  1.00  0.00    -0.243 C  
HETATM    4  N   UNL     1      -7.174  20.915  67.079  1.00  0.00    -0.485 NA 
HETATM    5  C   UNL     1      -8.798  19.357  67.938  1.00  0.00    -0.316 C  
HETATM    6  H2  UNL     1      -5.675  20.767  65.720  1.00  0.00     0.000 HD 
HETATM    7  H   UNL     1      -7.381  21.440  67.929  1.00  0.00     0.000 HD 
HETATM    8  O   UNL     1      -9.079  19.889  69.009  1.00  0.00    -0.165 OA 
HETATM    9  O   UNL     1      -9.745  18.697  67.238  1.00  0.00    -0.291 OA 
HETATM   10  N   UNL     1      -5.882  21.291  66.570  1.00  0.00    -0.274 NA 
HETATM   11  H1  UNL     1      -5.751  22.290  66.407  1.00  0.00     0.000 HD 
ENDROOT
BRANCH   3  12
HETATM   12  C   UNL     1      -6.534  17.431  68.738  1.00  0.00    -0.201 A  
HETATM   13  C   UNL     1      -7.763  16.941  69.213  1.00  0.00    -0.052 A  
HETATM   14  C   UNL     1      -7.877  15.599  69.567  1.00  0.00    -0.180 A  
HETATM   15  C   UNL     1      -6.790  14.739  69.440  1.00  0.00    -0.162 A  
HETATM   16  O   UNL     1      -9.043  15.078  70.059  1.00  0.00    -0.432 OA 
HETATM   17  H   UNL     1      -9.121  14.162  70.301  1.00  0.00     0.000 HD 
HETATM   18  C   UNL     1      -5.576  15.201  68.957  1.00  0.00    -0.097 A  
HETATM   19  O   UNL     1      -6.911  13.427  69.794  1.00  0.00    -0.332 OA 
HETATM   20  C   UNL     1      -5.449  16.546  68.604  1.00  0.00    -0.117 A  
HETATM   21  H   UNL     1      -6.168  12.841  69.707  1.00  0.00     0.000 HD 
ENDBRANCH   3  12
TORSDOF 1
ENDMDL
MODEL      169
REMARK 921   NORMALIZED FREE ENERGY PREDICTED BY IDOCK:   -3.99 KCAL/MOL
REMARK 922        TOTAL FREE ENERGY PREDICTED BY IDOCK:   -3.40 KCAL/MOL
REMARK 923 INTER-LIGAND FREE ENERGY PREDICTED BY IDOCK:   -3.47 KCAL/MOL
REMARK 924 INTRA-LIGAND FREE ENERGY PREDICTED BY IDOCK:    0.06 KCAL/MOL
REMARK 927      BINDING AFFINITY PREDICTED BY RF-SCORE:    0.00 PKD
ROOT
HETATM    1  C   UNL     1      -8.169  10.327  67.430  1.00  0.00    -0.114 C  
HETATM    2  C   UNL     1      -9.368  10.799  68.273  1.00  0.00    -0.161 C  
HETATM    3  C   UNL     1      -9.381  10.117  69.676  1.00  0.00    -0.215 C  
HETATM    4  N   UNL     1      -9.324  12.294  68.380  1.00  0.00    -0.300 NA 
HETATM    5  C   UNL     1     -10.753  10.514  67.610  1.00  0.00    -0.275 C  
HETATM    6  H2  UNL     1      -7.314  12.486  68.583  1.00  0.00     0.000 HD 
HETATM    7  H   UNL     1     -10.170  12.638  68.833  1.00  0.00     0.000 HD 
HETATM    8  O   UNL     1     -11.811  10.821  68.156  1.00  0.00    -0.533 OA 
HETATM    9  O   UNL     1     -10.759   9.944  66.386  1.00  0.00    -0.099 OA 
HETATM   10  N   UNL     1      -8.160  12.830  69.036  1.00  0.00    -0.316 NA 
HETATM   11  H1  UNL     1      -8.130  13.847  69.109  1.00  0.00     0.000 HD 
ENDROOT
BRANCH   3  12
HETATM   12  C   UNL     1      -9.488   8.602  69.665  1.00  0.00    -0.162 A  
HETATM   13  C   UNL     1      -8.370   7.806  69.364  1.00  0.00    -0.133 A  
HETATM   14  C   UNL     1      -8.503   6.421  69.322  1.00  0.00    -0.126 A  
HETATM   15  C   UNL     1      -9.729   5.821  69.590  1.00  0.00    -0.161 A  
HETATM   16  O   UNL     1      -7.452   5.603  69.008  1.00  0.00    -0.080 OA 
HETATM   17  H   UNL     1      -7.543   4.658  68.979  1.00  0.00     0.000 HD 
HETATM   18  C   UNL     1     -10.838   6.588  69.907  1.00  0.00    -0.341 A  
HETATM   19  O   UNL     1      -9.851   4.462  69.541  1.00  0.00    -0.209 OA 
HETATM   20  C   UNL     1     -10.718   7.979  69.946  1.00  0.00    -0.242 A  
HETATM   21  H   UNL     1     -10.688   4.053  69.725  1.00  0.00     0.000 HD 
ENDBRANCH   3  12
TORSDOF 1
ENDMDL
MODEL      170
REMARK 921   NORMALIZED FREE ENERGY PREDICTED BY IDOCK:   -3.97 KCAL/MOL
REMARK 922        TOTAL FREE ENERGY PREDICTED BY IDOCK:   -3.38 KCAL/MOL
REMARK 923 INTER-LIGAND FREE ENERGY PREDICTED BY IDOCK:   -3.47 KCAL/MOL
REMARK 924 INTRA-LIGAND FREE ENERGY PREDICTED BY IDOCK:    0.08 KCAL/MOL
REMARK 927      BINDING AFFINITY PREDICTED BY RF-SCORE:    0.00 PKD
ROOT
HETATM    1  C   UNL     1      -9.446  11.177  68.525  1.00  0.00    -0.193 C  
HETATM    2  C   UNL     1     -10.358  10.733  67.368  1.00  0.00    -0.211 C  
HETATM    3  C   UNL     1     -10.434   9.178  67.268  1.00  0.00    -0.335 C  
HETATM    4  N   UNL     1     -11.713  11.346  67.559  1.00  0.00    -0.609 NA 
HETATM    5  C   UNL     1      -9.904  11.262  65.971  1.00  0.00    -0.229 C  
HETATM    6  H2  UNL     1     -11.815  11.139  69.576  1.00  0.00     0.000 HD 
HETATM    7  H   UNL     1     -12.299  11.162  66.745  1.00  0.00     0.000 HD 
HETATM    8  O   UNL     1     -10.519  10.992  64.941  1.00  0.00    -0.309 OA 
HETATM    9  O   UNL     1      -8.821  12.067  65.924  1.00  0.00    -0.052 OA 
HETATM   10  N   UNL     1     -12.401  10.955  68.761  1.00  0.00    -0.772 NA 
HETATM   11  H1  UNL     1     -13.323  11.373  68.892  1.00  0.00     0.000 HD 
ENDROOT
BRANCH   3  12
HETATM   12  C   UNL     1      -9.113   8.475  67.010  1.00  0.00    -0.170 A  
HETATM   13  C   UNL     1      -8.595   8.376  65.708  1.00  0.00    -0.181 A  
HETATM   14  C   UNL     1      -7.402   7.692  65.492  1.00  0.00    -0.074 A  
HETATM   15  C   UNL     1      -6.712   7.120  66.557  1.00  0.00    -0.057 A  
HETATM   16  O   UNL     1      -6.869   7.545  64.240  1.00  0.00    -0.050 OA 
HETATM   17  H   UNL     1      -6.054   7.078  64.094  1.00  0.00     0.000 HD 
HETATM   18  C   UNL     1      -7.198   7.223  67.851  1.00  0.00    -0.091 A  
HETATM   19  O   UNL     1      -5.546   6.448  66.335  1.00  0.00    -0.013 OA 
HETATM   20  C   UNL     1      -8.398   7.902  68.077  1.00  0.00    -0.123 A  
HETATM   21  H   UNL     1      -5.076   6.058  67.063  1.00  0.00     0.000 HD 
ENDBRANCH   3  12
TORSDOF 1
ENDMDL
MODEL      171
REMARK 921   NORMALIZED FREE ENERGY PREDICTED BY IDOCK:   -3.97 KCAL/MOL
REMARK 922        TOTAL FREE ENERGY PREDICTED BY IDOCK:   -3.38 KCAL/MOL
REMARK 923 INTER-LIGAND FREE ENERGY PREDICTED BY IDOCK:   -3.45 KCAL/MOL
REMARK 924 INTRA-LIGAND FREE ENERGY PREDICTED BY IDOCK:    0.07 KCAL/MOL
REMARK 927      BINDING AFFINITY PREDICTED BY RF-SCORE:    0.00 PKD
ROOT
HETATM    1  C   UNL     1      -7.873  11.429  67.948  1.00  0.00    -0.117 C  
HETATM    2  C   UNL     1      -8.179  10.049  67.340  1.00  0.00    -0.118 C  
HETATM    3  C   UNL     1      -9.714   9.838  67.150  1.00  0.00    -0.223 C  
HETATM    4  N   UNL     1      -7.434   9.916  66.046  1.00  0.00    -0.102 NA 
HETATM    5  C   UNL     1      -7.654   8.854  68.197  1.00  0.00    -0.093 C  
HETATM    6  H2  UNL     1      -7.697  11.819  65.392  1.00  0.00     0.000 HD 
HETATM    7  H   UNL     1      -7.527   8.967  65.684  1.00  0.00     0.000 HD 
HETATM    8  O   UNL     1      -7.823   7.685  67.856  1.00  0.00    -0.113 OA 
HETATM    9  O   UNL     1      -6.967   9.141  69.323  1.00  0.00    -0.052 OA 
HETATM   10  N   UNL     1      -7.790  10.870  65.029  1.00  0.00    -0.354 NA 
HETATM   11  H1  UNL     1      -7.282  10.779  64.148  1.00  0.00     0.000 HD 
ENDROOT
BRANCH   3  12
HETATM   12  C   UNL     1     -10.543   9.894  68.420  1.00  0.00    -0.258 A  
HETATM   13  C   UNL     1     -11.085  11.110  68.871  1.00  0.00    -0.293 A  
HETATM   14  C   UNL     1     -11.808  11.142  70.060  1.00  0.00    -0.361 A  
HETATM   15  C   UNL     1     -12.012   9.977  70.795  1.00  0.00    -0.335 A  
HETATM   16  O   UNL     1     -12.334  12.304  70.555  1.00  0.00    -0.329 OA 
HETATM   17  H   UNL     1     -12.828  12.325  71.367  1.00  0.00     0.000 HD 
HETATM   18  C   UNL     1     -11.501   8.766  70.357  1.00  0.00    -0.163 A  
HETATM   19  O   UNL     1     -12.718  10.020  71.961  1.00  0.00    -0.391 OA 
HETATM   20  C   UNL     1     -10.768   8.724  69.169  1.00  0.00    -0.150 A  
HETATM   21  H   UNL     1     -12.857   9.225  72.463  1.00  0.00     0.000 HD 
ENDBRANCH   3  12
TORSDOF 1
ENDMDL
MODEL      172
REMARK 921   NORMALIZED FREE ENERGY PREDICTED BY IDOCK:   -3.97 KCAL/MOL
REMARK 922        TOTAL FREE ENERGY PREDICTED BY IDOCK:   -3.38 KCAL/MOL
REMARK 923 INTER-LIGAND FREE ENERGY PREDICTED BY IDOCK:   -3.74 KCAL/MOL
REMARK 924 INTRA-LIGAND FREE ENERGY PREDICTED BY IDOCK:    0.36 KCAL/MOL
REMARK 927      BINDING AFFINITY PREDICTED BY RF-SCORE:    0.00 PKD
ROOT
HETATM    1  C   UNL     1      -7.730   5.806  66.548  1.00  0.00    -0.100 C  
HETATM    2  C   UNL     1      -9.094   5.946  65.848  1.00  0.00    -0.122 C  
HETATM    3  C   UNL     1      -9.861   7.211  66.344  1.00  0.00    -0.116 C  
HETATM    4  N   UNL     1      -8.874   5.974  64.366  1.00  0.00    -0.328 NA 
HETATM    5  C   UNL     1     -10.039   4.722  66.061  1.00  0.00    -0.257 C  
HETATM    6  H2  UNL     1      -7.184   7.099  64.369  1.00  0.00     0.000 HD 
HETATM    7  H   UNL     1      -9.769   5.948  63.878  1.00  0.00     0.000 HD 
HETATM    8  O   UNL     1     -11.167   4.678  65.576  1.00  0.00    -0.114 OA 
HETATM    9  O   UNL     1      -9.565   3.678  66.775  1.00  0.00    -0.204 OA 
HETATM   10  N   UNL     1      -8.080   7.073  63.881  1.00  0.00    -0.297 NA 
HETATM   11  H1  UNL     1      -7.930   7.091  62.872  1.00  0.00     0.000 HD 
ENDROOT
BRANCH   3  12
HETATM   12  C   UNL     1     -10.184   7.239  67.828  1.00  0.00    -0.247 A  
HETATM   13  C   UNL     1      -9.641   8.231  68.661  1.00  0.00    -0.152 A  
HETATM   14  C   UNL     1      -9.919   8.212  70.025  1.00  0.00    -0.192 A  
HETATM   15  C   UNL     1     -10.744   7.229  70.564  1.00  0.00    -0.232 A  
HETATM   16  O   UNL     1      -9.395   9.139  70.883  1.00  0.00    -0.237 OA 
HETATM   17  H   UNL     1      -9.586   9.126  71.814  1.00  0.00     0.000 HD 
HETATM   18  C   UNL     1     -11.303   6.253  69.755  1.00  0.00    -0.506 A  
HETATM   19  O   UNL     1     -11.007   7.216  71.903  1.00  0.00    -0.225 OA 
HETATM   20  C   UNL     1     -11.025   6.259  68.387  1.00  0.00    -0.409 A  
HETATM   21  H   UNL     1     -11.570   6.544  72.271  1.00  0.00     0.000 HD 
ENDBRANCH   3  12
TORSDOF 1
ENDMDL
MODEL      173
REMARK 921   NORMALIZED FREE ENERGY PREDICTED BY IDOCK:   -3.93 KCAL/MOL
REMARK 922        TOTAL FREE ENERGY PREDICTED BY IDOCK:   -3.34 KCAL/MOL
REMARK 923 INTER-LIGAND FREE ENERGY PREDICTED BY IDOCK:   -3.44 KCAL/MOL
REMARK 924 INTRA-LIGAND FREE ENERGY PREDICTED BY IDOCK:    0.10 KCAL/MOL
REMARK 927      BINDING AFFINITY PREDICTED BY RF-SCORE:    0.00 PKD
ROOT
HETATM    1  C   UNL     1     -10.613   7.602  73.142  1.00  0.00    -0.438 C  
HETATM    2  C   UNL     1      -9.342   6.736  73.161  1.00  0.00    -0.133 C  
HETATM    3  C   UNL     1      -8.504   6.924  71.858  1.00  0.00    -0.114 C  
HETATM    4  N   UNL     1      -8.548   7.073  74.388  1.00  0.00    -0.170 NA 
HETATM    5  C   UNL     1      -9.624   5.207  73.309  1.00  0.00    -0.141 C  
HETATM    6  H2  UNL     1      -8.872   9.076  74.371  1.00  0.00     0.000 HD 
HETATM    7  H   UNL     1      -7.762   6.430  74.484  1.00  0.00     0.000 HD 
HETATM    8  O   UNL     1      -8.718   4.377  73.334  1.00  0.00    -0.100 OA 
HETATM    9  O   UNL     1     -10.909   4.816  73.447  1.00  0.00    -0.233 OA 
HETATM   10  N   UNL     1      -8.085   8.433  74.467  1.00  0.00    -0.404 NA 
HETATM   11  H1  UNL     1      -7.545   8.663  75.302  1.00  0.00     0.000 HD 
ENDROOT
BRANCH   3  12
HETATM   12  C   UNL     1      -9.210   6.546  70.568  1.00  0.00    -0.156 A  
HETATM   13  C   UNL     1      -9.869   7.520  69.799  1.00  0.00    -0.180 A  
HETATM   14  C   UNL     1     -10.543   7.142  68.641  1.00  0.00    -0.189 A  
HETATM   15  C   UNL     1     -10.553   5.811  68.232  1.00  0.00    -0.217 A  
HETATM   16  O   UNL     1     -11.222   8.046  67.872  1.00  0.00    -0.354 OA 
HETATM   17  H   UNL     1     -11.682   7.788  67.081  1.00  0.00     0.000 HD 
HETATM   18  C   UNL     1      -9.893   4.840  68.967  1.00  0.00    -0.239 A  
HETATM   19  O   UNL     1     -11.220   5.450  67.098  1.00  0.00    -0.180 OA 
HETATM   20  C   UNL     1      -9.220   5.208  70.134  1.00  0.00    -0.188 A  
HETATM   21  H   UNL     1     -11.227   4.541  66.819  1.00  0.00     0.000 HD 
ENDBRANCH   3  12
TORSDOF 1
ENDMDL
MODEL      174
REMARK 921   NORMALIZED FREE ENERGY PREDICTED BY IDOCK:   -3.93 KCAL/MOL
REMARK 922        TOTAL FREE ENERGY PREDICTED BY IDOCK:   -3.34 KCAL/MOL
REMARK 923 INTER-LIGAND FREE ENERGY PREDICTED BY IDOCK:   -3.59 KCAL/MOL
REMARK 924 INTRA-LIGAND FREE ENERGY PREDICTED BY IDOCK:    0.25 KCAL/MOL
REMARK 927      BINDING AFFINITY PREDICTED BY RF-SCORE:    0.00 PKD
ROOT
HETATM    1  C   UNL     1     -10.879  15.685  66.002  1.00  0.00    -0.276 C  
HETATM    2  C   UNL     1     -10.175  16.369  67.187  1.00  0.00    -0.282 C  
HETATM    3  C   UNL     1      -8.661  15.996  67.243  1.00  0.00    -0.205 C  
HETATM    4  N   UNL     1     -10.380  17.850  67.079  1.00  0.00    -0.357 NA 
HETATM    5  C   UNL     1     -10.788  16.008  68.577  1.00  0.00    -0.304 C  
HETATM    6  H2  UNL     1     -10.185  18.000  65.065  1.00  0.00     0.000 HD 
HETATM    7  H   UNL     1     -10.023  18.315  67.915  1.00  0.00     0.000 HD 
HETATM    8  O   UNL     1     -10.338  16.464  69.625  1.00  0.00    -0.279 OA 
HETATM    9  O   UNL     1     -11.867  15.196  68.596  1.00  0.00    -0.339 OA 
HETATM   10  N   UNL     1      -9.829  18.464  65.900  1.00  0.00    -0.515 NA 
HETATM   11  H1  UNL     1      -9.968  19.473  65.827  1.00  0.00     0.000 HD 
ENDROOT
BRANCH   3  12
HETATM   12  C   UNL     1      -8.358  14.518  67.415  1.00  0.00    -0.217 A  
HETATM   13  C   UNL     1      -8.893  13.568  66.527  1.00  0.00     0.005 A  
HETATM   14  C   UNL     1      -8.634  12.215  66.729  1.00  0.00    -0.163 A  
HETATM   15  C   UNL     1      -7.838  11.799  67.792  1.00  0.00    -0.135 A  
HETATM   16  O   UNL     1      -9.152  11.250  65.910  1.00  0.00    -0.200 OA 
HETATM   17  H   UNL     1      -8.975  10.326  66.048  1.00  0.00     0.000 HD 
HETATM   18  C   UNL     1      -7.287  12.722  68.667  1.00  0.00    -0.099 A  
HETATM   19  O   UNL     1      -7.594  10.471  67.985  1.00  0.00    -0.089 OA 
HETATM   20  C   UNL     1      -7.546  14.081  68.477  1.00  0.00    -0.130 A  
HETATM   21  H   UNL     1      -7.050  10.187  68.711  1.00  0.00     0.000 HD 
ENDBRANCH   3  12
TORSDOF 1
ENDMDL
MODEL      175
REMARK 921   NORMALIZED FREE ENERGY PREDICTED BY IDOCK:   -3.93 KCAL/MOL
REMARK 922        TOTAL FREE ENERGY PREDICTED BY IDOCK:   -3.34 KCAL/MOL
REMARK 923 INTER-LIGAND FREE ENERGY PREDICTED BY IDOCK:   -3.40 KCAL/MOL
REMARK 924 INTRA-LIGAND FREE ENERGY PREDICTED BY IDOCK:    0.06 KCAL/MOL
REMARK 927      BINDING AFFINITY PREDICTED BY RF-SCORE:    0.00 PKD
ROOT
HETATM    1  C   UNL     1     -10.533   6.723  73.931  1.00  0.00    -0.356 C  
HETATM    2  C   UNL     1     -10.445   7.488  72.598  1.00  0.00    -0.271 C  
HETATM    3  C   UNL     1     -10.415   6.511  71.382  1.00  0.00    -0.246 C  
HETATM    4  N   UNL     1     -11.594   8.446  72.516  1.00  0.00    -0.381 NA 
HETATM    5  C   UNL     1      -9.186   8.405  72.483  1.00  0.00    -0.268 C  
HETATM    6  H2  UNL     1     -13.003   7.243  73.343  1.00  0.00     0.000 HD 
HETATM    7  H   UNL     1     -11.492   9.047  71.697  1.00  0.00     0.000 HD 
HETATM    8  O   UNL     1      -8.962   9.078  71.479  1.00  0.00    -0.273 OA 
HETATM    9  O   UNL     1      -8.355   8.469  73.544  1.00  0.00    -0.381 OA 
HETATM   10  N   UNL     1     -12.901   7.843  72.524  1.00  0.00    -0.547 NA 
HETATM   11  H1  UNL     1     -13.684   8.496  72.468  1.00  0.00     0.000 HD 
ENDROOT
BRANCH   3  12
HETATM   12  C   UNL     1      -9.245   5.543  71.350  1.00  0.00    -0.167 A  
HETATM   13  C   UNL     1      -9.319   4.308  72.016  1.00  0.00    -0.180 A  
HETATM   14  C   UNL     1      -8.219   3.455  72.006  1.00  0.00    -0.067 A  
HETATM   15  C   UNL     1      -7.056   3.809  71.328  1.00  0.00    -0.033 A  
HETATM   16  O   UNL     1      -8.230   2.253  72.660  1.00  0.00    -0.053 OA 
HETATM   17  H   UNL     1      -7.479   1.671  72.652  1.00  0.00     0.000 HD 
HETATM   18  C   UNL     1      -6.971   5.015  70.651  1.00  0.00    -0.045 A  
HETATM   19  O   UNL     1      -5.981   2.968  71.328  1.00  0.00    -0.013 OA 
HETATM   20  C   UNL     1      -8.067   5.881  70.660  1.00  0.00    -0.118 A  
HETATM   21  H   UNL     1      -5.188   3.211  70.865  1.00  0.00     0.000 HD 
ENDBRANCH   3  12
TORSDOF 1
ENDMDL
MODEL      176
REMARK 921   NORMALIZED FREE ENERGY PREDICTED BY IDOCK:   -3.92 KCAL/MOL
REMARK 922        TOTAL FREE ENERGY PREDICTED BY IDOCK:   -3.33 KCAL/MOL
REMARK 923 INTER-LIGAND FREE ENERGY PREDICTED BY IDOCK:   -3.53 KCAL/MOL
REMARK 924 INTRA-LIGAND FREE ENERGY PREDICTED BY IDOCK:    0.20 KCAL/MOL
REMARK 927      BINDING AFFINITY PREDICTED BY RF-SCORE:    0.00 PKD
ROOT
HETATM    1  C   UNL     1      -7.531   9.864  66.984  1.00  0.00    -0.091 C  
HETATM    2  C   UNL     1      -8.736  10.817  67.071  1.00  0.00    -0.136 C  
HETATM    3  C   UNL     1      -9.039  11.219  68.548  1.00  0.00    -0.173 C  
HETATM    4  N   UNL     1      -8.467  12.015  66.211  1.00  0.00    -0.393 NA 
HETATM    5  C   UNL     1     -10.053  10.221  66.479  1.00  0.00    -0.231 C  
HETATM    6  H2  UNL     1      -6.495  12.216  66.645  1.00  0.00     0.000 HD 
HETATM    7  H   UNL     1      -9.299  12.603  66.160  1.00  0.00     0.000 HD 
HETATM    8  O   UNL     1     -11.109  10.850  66.477  1.00  0.00    -0.189 OA 
HETATM    9  O   UNL     1      -9.993   8.991  65.926  1.00  0.00    -0.276 OA 
HETATM   10  N   UNL     1      -7.327  12.805  66.594  1.00  0.00    -0.132 NA 
HETATM   11  H1  UNL     1      -7.144  13.620  66.008  1.00  0.00     0.000 HD 
ENDROOT
BRANCH   3  12
HETATM   12  C   UNL     1      -9.385  10.072  69.480  1.00  0.00    -0.247 A  
HETATM   13  C   UNL     1     -10.611   9.395  69.360  1.00  0.00    -0.235 A  
HETATM   14  C   UNL     1     -10.922   8.372  70.252  1.00  0.00    -0.232 A  
HETATM   15  C   UNL     1     -10.022   8.005  71.248  1.00  0.00    -0.174 A  
HETATM   16  O   UNL     1     -12.112   7.700  70.194  1.00  0.00    -0.430 OA 
HETATM   17  H   UNL     1     -12.324   7.002  70.803  1.00  0.00     0.000 HD 
HETATM   18  C   UNL     1      -8.801   8.649  71.370  1.00  0.00    -0.276 A  
HETATM   19  O   UNL     1     -10.338   7.005  72.120  1.00  0.00    -0.190 OA 
HETATM   20  C   UNL     1      -8.481   9.680  70.485  1.00  0.00    -0.128 A  
HETATM   21  H   UNL     1      -9.723   6.755  72.800  1.00  0.00     0.000 HD 
ENDBRANCH   3  12
TORSDOF 1
ENDMDL
MODEL      177
REMARK 921   NORMALIZED FREE ENERGY PREDICTED BY IDOCK:   -3.82 KCAL/MOL
REMARK 922        TOTAL FREE ENERGY PREDICTED BY IDOCK:   -3.22 KCAL/MOL
REMARK 923 INTER-LIGAND FREE ENERGY PREDICTED BY IDOCK:   -3.45 KCAL/MOL
REMARK 924 INTRA-LIGAND FREE ENERGY PREDICTED BY IDOCK:    0.23 KCAL/MOL
REMARK 927      BINDING AFFINITY PREDICTED BY RF-SCORE:    0.00 PKD
ROOT
HETATM    1  C   UNL     1     -10.277  10.327  65.747  1.00  0.00    -0.289 C  
HETATM    2  C   UNL     1      -8.767  10.107  65.950  1.00  0.00    -0.146 C  
HETATM    3  C   UNL     1      -8.482   8.773  66.708  1.00  0.00    -0.113 C  
HETATM    4  N   UNL     1      -8.090  10.144  64.613  1.00  0.00    -0.151 NA 
HETATM    5  C   UNL     1      -8.068  11.250  66.752  1.00  0.00    -0.159 C  
HETATM    6  H2  UNL     1      -9.517   9.149  63.567  1.00  0.00     0.000 HD 
HETATM    7  H   UNL     1      -7.078  10.118  64.732  1.00  0.00     0.000 HD 
HETATM    8  O   UNL     1      -6.866  11.225  67.008  1.00  0.00    -0.106 OA 
HETATM    9  O   UNL     1      -8.822  12.303  67.134  1.00  0.00    -0.180 OA 
HETATM   10  N   UNL     1      -8.504   9.124  63.686  1.00  0.00    -0.226 NA 
HETATM   11  H1  UNL     1      -8.044   9.149  62.775  1.00  0.00     0.000 HD 
ENDROOT
BRANCH   3  12
HETATM   12  C   UNL     1      -9.077   8.674  68.101  1.00  0.00    -0.142 A  
HETATM   13  C   UNL     1     -10.162   7.818  68.358  1.00  0.00    -0.230 A  
HETATM   14  C   UNL     1     -10.716   7.774  69.635  1.00  0.00    -0.223 A  
HETATM   15  C   UNL     1     -10.194   8.558  70.659  1.00  0.00    -0.197 A  
HETATM   16  O   UNL     1     -11.788   6.977  69.930  1.00  0.00    -0.579 OA 
HETATM   17  H   UNL     1     -12.166   6.947  70.802  1.00  0.00     0.000 HD 
HETATM   18  C   UNL     1      -9.114   9.395  70.429  1.00  0.00    -0.302 A  
HETATM   19  O   UNL     1     -10.747   8.512  71.905  1.00  0.00    -0.272 OA 
HETATM   20  C   UNL     1      -8.555   9.451  69.151  1.00  0.00    -0.140 A  
HETATM   21  H   UNL     1     -10.391   9.048  72.604  1.00  0.00     0.000 HD 
ENDBRANCH   3  12
TORSDOF 1
ENDMDL
MODEL      178
REMARK 921   NORMALIZED FREE ENERGY PREDICTED BY IDOCK:   -3.80 KCAL/MOL
REMARK 922        TOTAL FREE ENERGY PREDICTED BY IDOCK:   -3.21 KCAL/MOL
REMARK 923 INTER-LIGAND FREE ENERGY PREDICTED BY IDOCK:   -3.26 KCAL/MOL
REMARK 924 INTRA-LIGAND FREE ENERGY PREDICTED BY IDOCK:    0.06 KCAL/MOL
REMARK 927      BINDING AFFINITY PREDICTED BY RF-SCORE:    0.00 PKD
ROOT
HETATM    1  C   UNL     1      -8.630  11.419  68.366  1.00  0.00    -0.156 C  
HETATM    2  C   UNL     1      -8.062  10.098  68.916  1.00  0.00    -0.117 C  
HETATM    3  C   UNL     1      -6.923   9.544  68.004  1.00  0.00    -0.079 C  
HETATM    4  N   UNL     1      -7.591  10.323  70.321  1.00  0.00    -0.424 NA 
HETATM    5  C   UNL     1      -9.128   8.966  69.058  1.00  0.00    -0.137 C  
HETATM    6  H2  UNL     1      -6.803  12.173  70.043  1.00  0.00     0.000 HD 
HETATM    7  H   UNL     1      -7.319   9.437  70.746  1.00  0.00     0.000 HD 
HETATM    8  O   UNL     1      -8.838   7.847  69.474  1.00  0.00    -0.140 OA 
HETATM    9  O   UNL     1     -10.406   9.262  68.739  1.00  0.00    -0.201 OA 
HETATM   10  N   UNL     1      -6.531  11.286  70.468  1.00  0.00    -0.504 NA 
HETATM   11  H1  UNL     1      -6.211  11.440  71.425  1.00  0.00     0.000 HD 
ENDROOT
BRANCH   3  12
HETATM   12  C   UNL     1      -7.327   9.227  66.575  1.00  0.00    -0.092 A  
HETATM   13  C   UNL     1      -7.401  10.244  65.608  1.00  0.00    -0.149 A  
HETATM   14  C   UNL     1      -7.813   9.934  64.315  1.00  0.00    -0.139 A  
HETATM   15  C   UNL     1      -8.134   8.624  63.970  1.00  0.00    -0.163 A  
HETATM   16  O   UNL     1      -7.927  10.891  63.343  1.00  0.00    -0.360 OA 
HETATM   17  H   UNL     1      -8.207  10.679  62.460  1.00  0.00     0.000 HD 
HETATM   18  C   UNL     1      -8.049   7.606  64.905  1.00  0.00    -0.128 A  
HETATM   19  O   UNL     1      -8.540   8.332  62.701  1.00  0.00    -0.392 OA 
HETATM   20  C   UNL     1      -7.644   7.907  66.207  1.00  0.00    -0.083 A  
HETATM   21  H   UNL     1      -8.760   7.438  62.466  1.00  0.00     0.000 HD 
ENDBRANCH   3  12
TORSDOF 1
ENDMDL
MODEL      179
REMARK 921   NORMALIZED FREE ENERGY PREDICTED BY IDOCK:   -3.79 KCAL/MOL
REMARK 922        TOTAL FREE ENERGY PREDICTED BY IDOCK:   -3.20 KCAL/MOL
REMARK 923 INTER-LIGAND FREE ENERGY PREDICTED BY IDOCK:   -3.25 KCAL/MOL
REMARK 924 INTRA-LIGAND FREE ENERGY PREDICTED BY IDOCK:    0.06 KCAL/MOL
REMARK 927      BINDING AFFINITY PREDICTED BY RF-SCORE:    0.00 PKD
ROOT
HETATM    1  C   UNL     1     -10.996   6.392  67.555  1.00  0.00    -0.454 C  
HETATM    2  C   UNL     1      -9.647   6.900  67.017  1.00  0.00    -0.158 C  
HETATM    3  C   UNL     1      -8.473   6.513  67.969  1.00  0.00    -0.119 C  
HETATM    4  N   UNL     1      -9.444   6.358  65.634  1.00  0.00    -0.363 NA 
HETATM    5  C   UNL     1      -9.590   8.448  66.822  1.00  0.00    -0.219 C  
HETATM    6  H2  UNL     1     -10.209   4.507  65.960  1.00  0.00     0.000 HD 
HETATM    7  H   UNL     1      -8.614   6.775  65.213  1.00  0.00     0.000 HD 
HETATM    8  O   UNL     1      -8.582   9.015  66.408  1.00  0.00    -0.120 OA 
HETATM    9  O   UNL     1     -10.707   9.157  67.092  1.00  0.00    -0.255 OA 
HETATM   10  N   UNL     1      -9.379   4.923  65.538  1.00  0.00    -0.160 NA 
HETATM   11  H1  UNL     1      -9.241   4.555  64.596  1.00  0.00     0.000 HD 
ENDROOT
BRANCH   3  12
HETATM   12  C   UNL     1      -8.563   7.073  69.378  1.00  0.00    -0.134 A  
HETATM   13  C   UNL     1      -9.328   6.422  70.361  1.00  0.00    -0.169 A  
HETATM   14  C   UNL     1      -9.428   6.976  71.634  1.00  0.00    -0.156 A  
HETATM   15  C   UNL     1      -8.762   8.159  71.944  1.00  0.00    -0.154 A  
HETATM   16  O   UNL     1     -10.181   6.397  72.618  1.00  0.00    -0.177 OA 
HETATM   17  H   UNL     1     -10.248   6.775  73.487  1.00  0.00     0.000 HD 
HETATM   18  C   UNL     1      -7.988   8.805  70.993  1.00  0.00    -0.170 A  
HETATM   19  O   UNL     1      -8.870   8.697  73.193  1.00  0.00    -0.343 OA 
HETATM   20  C   UNL     1      -7.887   8.261  69.711  1.00  0.00    -0.100 A  
HETATM   21  H   UNL     1      -8.415   9.504  73.404  1.00  0.00     0.000 HD 
ENDBRANCH   3  12
TORSDOF 1
ENDMDL
MODEL      180
REMARK 921   NORMALIZED FREE ENERGY PREDICTED BY IDOCK:   -3.78 KCAL/MOL
REMARK 922        TOTAL FREE ENERGY PREDICTED BY IDOCK:   -3.18 KCAL/MOL
REMARK 923 INTER-LIGAND FREE ENERGY PREDICTED BY IDOCK:   -3.20 KCAL/MOL
REMARK 924 INTRA-LIGAND FREE ENERGY PREDICTED BY IDOCK:    0.02 KCAL/MOL
REMARK 927      BINDING AFFINITY PREDICTED BY RF-SCORE:    0.00 PKD
ROOT
HETATM    1  C   UNL     1      -7.541   5.486  71.622  1.00  0.00    -0.098 C  
HETATM    2  C   UNL     1      -8.553   6.358  72.386  1.00  0.00    -0.120 C  
HETATM    3  C   UNL     1      -9.976   6.265  71.752  1.00  0.00    -0.193 C  
HETATM    4  N   UNL     1      -8.556   5.944  73.826  1.00  0.00    -0.121 NA 
HETATM    5  C   UNL     1      -8.170   7.871  72.434  1.00  0.00    -0.132 C  
HETATM    6  H2  UNL     1      -8.382   3.944  73.528  1.00  0.00     0.000 HD 
HETATM    7  H   UNL     1      -9.131   6.584  74.374  1.00  0.00     0.000 HD 
HETATM    8  O   UNL     1      -8.876   8.704  72.998  1.00  0.00    -0.355 OA 
HETATM    9  O   UNL     1      -7.005   8.244  71.861  1.00  0.00    -0.072 OA 
HETATM   10  N   UNL     1      -8.957   4.584  74.075  1.00  0.00    -0.109 NA 
HETATM   11  H1  UNL     1      -8.959   4.302  75.056  1.00  0.00     0.000 HD 
ENDROOT
BRANCH   3  12
HETATM   12  C   UNL     1     -10.080   6.726  70.309  1.00  0.00    -0.196 A  
HETATM   13  C   UNL     1     -10.449   8.048  70.003  1.00  0.00    -0.228 A  
HETATM   14  C   UNL     1     -10.576   8.435  68.672  1.00  0.00    -0.113 A  
HETATM   15  C   UNL     1     -10.326   7.529  67.645  1.00  0.00    -0.229 A  
HETATM   16  O   UNL     1     -10.957   9.701  68.321  1.00  0.00    -0.408 OA 
HETATM   17  H   UNL     1     -11.043   9.966  67.412  1.00  0.00     0.000 HD 
HETATM   18  C   UNL     1      -9.944   6.228  67.928  1.00  0.00    -0.147 A  
HETATM   19  O   UNL     1     -10.458   7.917  66.344  1.00  0.00    -0.464 OA 
HETATM   20  C   UNL     1      -9.820   5.827  69.260  1.00  0.00    -0.220 A  
HETATM   21  H   UNL     1     -10.287   7.299  65.643  1.00  0.00     0.000 HD 
ENDBRANCH   3  12
TORSDOF 1
ENDMDL
MODEL      181
REMARK 921   NORMALIZED FREE ENERGY PREDICTED BY IDOCK:   -3.77 KCAL/MOL
REMARK 922        TOTAL FREE ENERGY PREDICTED BY IDOCK:   -3.17 KCAL/MOL
REMARK 923 INTER-LIGAND FREE ENERGY PREDICTED BY IDOCK:   -3.20 KCAL/MOL
REMARK 924 INTRA-LIGAND FREE ENERGY PREDICTED BY IDOCK:    0.02 KCAL/MOL
REMARK 927      BINDING AFFINITY PREDICTED BY RF-SCORE:    0.00 PKD
ROOT
HETATM    1  C   UNL     1      -7.092   6.689  69.671  1.00  0.00    -0.068 C  
HETATM    2  C   UNL     1      -8.272   7.163  70.537  1.00  0.00    -0.125 C  
HETATM    3  C   UNL     1      -9.630   7.009  69.784  1.00  0.00    -0.151 C  
HETATM    4  N   UNL     1      -8.261   6.399  71.827  1.00  0.00    -0.112 NA 
HETATM    5  C   UNL     1      -8.163   8.654  70.987  1.00  0.00    -0.150 C  
HETATM    6  H2  UNL     1      -7.726   4.596  71.063  1.00  0.00     0.000 HD 
HETATM    7  H   UNL     1      -8.962   6.777  72.465  1.00  0.00     0.000 HD 
HETATM    8  O   UNL     1      -9.028   9.191  71.677  1.00  0.00    -0.336 OA 
HETATM    9  O   UNL     1      -7.060   9.342  70.623  1.00  0.00    -0.085 OA 
HETATM   10  N   UNL     1      -8.427   4.974  71.701  1.00  0.00    -0.122 NA 
HETATM   11  H1  UNL     1      -8.419   4.454  72.579  1.00  0.00     0.000 HD 
ENDROOT
BRANCH   3  12
HETATM   12  C   UNL     1      -9.754   7.800  68.494  1.00  0.00    -0.165 A  
HETATM   13  C   UNL     1     -10.470   9.010  68.461  1.00  0.00    -0.232 A  
HETATM   14  C   UNL     1     -10.603   9.697  67.258  1.00  0.00    -0.247 A  
HETATM   15  C   UNL     1     -10.020   9.204  66.094  1.00  0.00    -0.268 A  
HETATM   16  O   UNL     1     -11.311  10.864  67.167  1.00  0.00    -0.394 OA 
HETATM   17  H   UNL     1     -11.402  11.333  66.345  1.00  0.00     0.000 HD 
HETATM   18  C   UNL     1      -9.296   8.023  66.111  1.00  0.00    -0.212 A  
HETATM   19  O   UNL     1     -10.161   9.883  64.919  1.00  0.00    -0.381 OA 
HETATM   20  C   UNL     1      -9.161   7.322  67.311  1.00  0.00    -0.148 A  
HETATM   21  H   UNL     1      -9.763   9.546  64.124  1.00  0.00     0.000 HD 
ENDBRANCH   3  12
TORSDOF 1
ENDMDL
MODEL      182
REMARK 921   NORMALIZED FREE ENERGY PREDICTED BY IDOCK:   -3.77 KCAL/MOL
REMARK 922        TOTAL FREE ENERGY PREDICTED BY IDOCK:   -3.17 KCAL/MOL
REMARK 923 INTER-LIGAND FREE ENERGY PREDICTED BY IDOCK:   -3.21 KCAL/MOL
REMARK 924 INTRA-LIGAND FREE ENERGY PREDICTED BY IDOCK:    0.05 KCAL/MOL
REMARK 927      BINDING AFFINITY PREDICTED BY RF-SCORE:    0.00 PKD
ROOT
HETATM    1  C   UNL     1     -10.154   5.781  72.493  1.00  0.00    -0.207 C  
HETATM    2  C   UNL     1     -10.506   6.778  71.374  1.00  0.00    -0.215 C  
HETATM    3  C   UNL     1     -11.001   6.042  70.091  1.00  0.00    -0.429 C  
HETATM    4  N   UNL     1     -11.528   7.744  71.893  1.00  0.00    -0.263 NA 
HETATM    5  C   UNL     1      -9.313   7.691  70.948  1.00  0.00    -0.157 C  
HETATM    6  H2  UNL     1     -12.620   6.419  72.975  1.00  0.00     0.000 HD 
HETATM    7  H   UNL     1     -11.690   8.483  71.209  1.00  0.00     0.000 HD 
HETATM    8  O   UNL     1      -9.424   8.535  70.063  1.00  0.00    -0.161 OA 
HETATM    9  O   UNL     1      -8.146   7.552  71.613  1.00  0.00    -0.099 OA 
HETATM   10  N   UNL     1     -12.781   7.159  72.292  1.00  0.00    -0.519 NA 
HETATM   11  H1  UNL     1     -13.477   7.817  72.645  1.00  0.00     0.000 HD 
ENDROOT
BRANCH   3  12
HETATM   12  C   UNL     1     -10.004   5.087  69.459  1.00  0.00    -0.302 A  
HETATM   13  C   UNL     1      -9.346   5.425  68.264  1.00  0.00    -0.135 A  
HETATM   14  C   UNL     1      -8.465   4.516  67.683  1.00  0.00    -0.103 A  
HETATM   15  C   UNL     1      -8.221   3.285  68.286  1.00  0.00    -0.077 A  
HETATM   16  O   UNL     1      -7.820   4.786  66.508  1.00  0.00    -0.097 OA 
HETATM   17  H   UNL     1      -7.219   4.165  66.111  1.00  0.00     0.000 HD 
HETATM   18  C   UNL     1      -8.846   2.943  69.473  1.00  0.00    -0.151 A  
HETATM   19  O   UNL     1      -7.360   2.400  67.706  1.00  0.00    -0.054 OA 
HETATM   20  C   UNL     1      -9.736   3.844  70.061  1.00  0.00    -0.242 A  
HETATM   21  H   UNL     1      -7.193   1.560  68.118  1.00  0.00     0.000 HD 
ENDBRANCH   3  12
TORSDOF 1
ENDMDL
MODEL      183
REMARK 921   NORMALIZED FREE ENERGY PREDICTED BY IDOCK:   -3.75 KCAL/MOL
REMARK 922        TOTAL FREE ENERGY PREDICTED BY IDOCK:   -3.16 KCAL/MOL
REMARK 923 INTER-LIGAND FREE ENERGY PREDICTED BY IDOCK:   -3.20 KCAL/MOL
REMARK 924 INTRA-LIGAND FREE ENERGY PREDICTED BY IDOCK:    0.05 KCAL/MOL
REMARK 927      BINDING AFFINITY PREDICTED BY RF-SCORE:    0.00 PKD
ROOT
HETATM    1  C   UNL     1      -8.927   6.894  67.627  1.00  0.00    -0.116 C  
HETATM    2  C   UNL     1      -8.266   7.948  68.534  1.00  0.00    -0.127 C  
HETATM    3  C   UNL     1      -7.781   7.319  69.877  1.00  0.00    -0.103 C  
HETATM    4  N   UNL     1      -7.142   8.594  67.782  1.00  0.00    -0.078 NA 
HETATM    5  C   UNL     1      -9.205   9.142  68.898  1.00  0.00    -0.139 C  
HETATM    6  H2  UNL     1      -6.455   6.927  66.849  1.00  0.00     0.000 HD 
HETATM    7  H   UNL     1      -6.765   9.375  68.319  1.00  0.00     0.000 HD 
HETATM    8  O   UNL     1      -8.834  10.064  69.621  1.00  0.00    -0.194 OA 
HETATM    9  O   UNL     1     -10.444   9.154  68.363  1.00  0.00    -0.205 OA 
HETATM   10  N   UNL     1      -6.078   7.709  67.385  1.00  0.00    -0.047 NA 
HETATM   11  H1  UNL     1      -5.313   8.149  66.873  1.00  0.00     0.000 HD 
ENDROOT
BRANCH   3  12
HETATM   12  C   UNL     1      -8.866   6.696  70.737  1.00  0.00    -0.147 A  
HETATM   13  C   UNL     1      -9.582   7.473  71.664  1.00  0.00    -0.171 A  
HETATM   14  C   UNL     1     -10.545   6.870  72.468  1.00  0.00    -0.222 A  
HETATM   15  C   UNL     1     -10.814   5.510  72.349  1.00  0.00    -0.248 A  
HETATM   16  O   UNL     1     -11.250   7.576  73.404  1.00  0.00    -0.574 OA 
HETATM   17  H   UNL     1     -11.908   7.164  73.953  1.00  0.00     0.000 HD 
HETATM   18  C   UNL     1     -10.132   4.732  71.428  1.00  0.00    -0.259 A  
HETATM   19  O   UNL     1     -11.757   4.927  73.146  1.00  0.00    -0.397 OA 
HETATM   20  C   UNL     1      -9.159   5.325  70.621  1.00  0.00    -0.175 A  
HETATM   21  H   UNL     1     -11.940   3.999  73.064  1.00  0.00     0.000 HD 
ENDBRANCH   3  12
TORSDOF 1
ENDMDL
MODEL      184
REMARK 921   NORMALIZED FREE ENERGY PREDICTED BY IDOCK:   -3.72 KCAL/MOL
REMARK 922        TOTAL FREE ENERGY PREDICTED BY IDOCK:   -3.11 KCAL/MOL
REMARK 923 INTER-LIGAND FREE ENERGY PREDICTED BY IDOCK:   -3.47 KCAL/MOL
REMARK 924 INTRA-LIGAND FREE ENERGY PREDICTED BY IDOCK:    0.35 KCAL/MOL
REMARK 927      BINDING AFFINITY PREDICTED BY RF-SCORE:    0.00 PKD
ROOT
HETATM    1  C   UNL     1      -8.168  15.311  66.760  1.00  0.00    -0.215 C  
HETATM    2  C   UNL     1      -8.404  16.609  67.551  1.00  0.00    -0.175 C  
HETATM    3  C   UNL     1      -8.519  16.331  69.082  1.00  0.00    -0.218 C  
HETATM    4  N   UNL     1      -7.297  17.571  67.241  1.00  0.00    -0.177 NA 
HETATM    5  C   UNL     1      -9.695  17.379  67.126  1.00  0.00    -0.267 C  
HETATM    6  H2  UNL     1      -5.781  16.223  67.192  1.00  0.00     0.000 HD 
HETATM    7  H   UNL     1      -7.493  18.479  67.661  1.00  0.00     0.000 HD 
HETATM    8  O   UNL     1     -10.033  18.430  67.665  1.00  0.00    -0.311 OA 
HETATM    9  O   UNL     1     -10.425  16.870  66.111  1.00  0.00    -0.320 OA 
HETATM   10  N   UNL     1      -5.977  17.131  67.612  1.00  0.00    -0.125 NA 
HETATM   11  H1  UNL     1      -5.223  17.786  67.400  1.00  0.00     0.000 HD 
ENDROOT
BRANCH   3  12
HETATM   12  C   UNL     1      -9.656  15.414  69.496  1.00  0.00    -0.259 A  
HETATM   13  C   UNL     1      -9.890  14.208  68.812  1.00  0.00    -0.168 A  
HETATM   14  C   UNL     1     -10.964  13.404  69.184  1.00  0.00    -0.168 A  
HETATM   15  C   UNL     1     -11.795  13.777  70.237  1.00  0.00    -0.272 A  
HETATM   16  O   UNL     1     -11.251  12.234  68.535  1.00  0.00    -0.231 OA 
HETATM   17  H   UNL     1     -11.983  11.685  68.789  1.00  0.00     0.000 HD 
HETATM   18  C   UNL     1     -11.568  14.952  70.934  1.00  0.00    -0.344 A  
HETATM   19  O   UNL     1     -12.847  12.984  70.592  1.00  0.00    -0.149 OA 
HETATM   20  C   UNL     1     -10.498  15.770  70.565  1.00  0.00    -0.071 A  
HETATM   21  H   UNL     1     -13.414  13.239  71.310  1.00  0.00     0.000 HD 
ENDBRANCH   3  12
TORSDOF 1
ENDMDL
MODEL      185
REMARK 921   NORMALIZED FREE ENERGY PREDICTED BY IDOCK:   -3.70 KCAL/MOL
REMARK 922        TOTAL FREE ENERGY PREDICTED BY IDOCK:   -3.09 KCAL/MOL
REMARK 923 INTER-LIGAND FREE ENERGY PREDICTED BY IDOCK:   -3.82 KCAL/MOL
REMARK 924 INTRA-LIGAND FREE ENERGY PREDICTED BY IDOCK:    0.73 KCAL/MOL
REMARK 927      BINDING AFFINITY PREDICTED BY RF-SCORE:    0.00 PKD
ROOT
HETATM    1  C   UNL     1     -10.636  14.170  64.467  1.00  0.00    -0.285 C  
HETATM    2  C   UNL     1     -10.796  14.624  65.929  1.00  0.00    -0.312 C  
HETATM    3  C   UNL     1      -9.559  14.219  66.789  1.00  0.00    -0.290 C  
HETATM    4  N   UNL     1     -11.030  16.104  65.952  1.00  0.00    -0.148 NA 
HETATM    5  C   UNL     1     -12.059  14.037  66.635  1.00  0.00    -0.456 C  
HETATM    6  H2  UNL     1      -9.734  16.600  64.470  1.00  0.00     0.000 HD 
HETATM    7  H   UNL     1     -11.255  16.409  66.898  1.00  0.00     0.000 HD 
HETATM    8  O   UNL     1     -12.328  14.294  67.807  1.00  0.00    -0.247 OA 
HETATM    9  O   UNL     1     -12.881  13.254  65.905  1.00  0.00    -0.360 OA 
HETATM   10  N   UNL     1      -9.960  16.905  65.417  1.00  0.00    -0.546 NA 
HETATM   11  H1  UNL     1     -10.119  17.913  65.432  1.00  0.00     0.000 HD 
ENDROOT
BRANCH   3  12
HETATM   12  C   UNL     1      -9.283  12.728  66.875  1.00  0.00    -0.229 A  
HETATM   13  C   UNL     1      -7.974  12.232  66.743  1.00  0.00     0.010 A  
HETATM   14  C   UNL     1      -7.752  10.858  66.786  1.00  0.00    -0.141 A  
HETATM   15  C   UNL     1      -8.812   9.976  66.974  1.00  0.00    -0.138 A  
HETATM   16  O   UNL     1      -6.502  10.323  66.636  1.00  0.00    -0.069 OA 
HETATM   17  H   UNL     1      -6.350   9.385  66.666  1.00  0.00     0.000 HD 
HETATM   18  C   UNL     1     -10.106  10.448  67.124  1.00  0.00    -0.254 A  
HETATM   19  O   UNL     1      -8.585   8.631  67.009  1.00  0.00    -0.115 OA 
HETATM   20  C   UNL     1     -10.341  11.824  67.076  1.00  0.00    -0.243 A  
HETATM   21  H   UNL     1      -9.309   8.030  67.137  1.00  0.00     0.000 HD 
ENDBRANCH   3  12
TORSDOF 1
ENDMDL
MODEL      186
REMARK 921   NORMALIZED FREE ENERGY PREDICTED BY IDOCK:   -3.68 KCAL/MOL
REMARK 922        TOTAL FREE ENERGY PREDICTED BY IDOCK:   -3.07 KCAL/MOL
REMARK 923 INTER-LIGAND FREE ENERGY PREDICTED BY IDOCK:   -3.12 KCAL/MOL
REMARK 924 INTRA-LIGAND FREE ENERGY PREDICTED BY IDOCK:    0.05 KCAL/MOL
REMARK 927      BINDING AFFINITY PREDICTED BY RF-SCORE:    0.00 PKD
ROOT
HETATM    1  C   UNL     1     -10.692  10.985  66.629  1.00  0.00    -0.305 C  
HETATM    2  C   UNL     1      -9.262  11.116  67.185  1.00  0.00    -0.158 C  
HETATM    3  C   UNL     1      -8.679   9.726  67.589  1.00  0.00    -0.125 C  
HETATM    4  N   UNL     1      -8.408  11.803  66.162  1.00  0.00    -0.386 NA 
HETATM    5  C   UNL     1      -9.157  12.040  68.439  1.00  0.00    -0.158 C  
HETATM    6  H2  UNL     1      -9.190  10.905  64.518  1.00  0.00     0.000 HD 
HETATM    7  H   UNL     1      -7.489  12.006  66.553  1.00  0.00     0.000 HD 
HETATM    8  O   UNL     1      -8.088  12.245  69.009  1.00  0.00     0.084 OA 
HETATM    9  O   UNL     1     -10.284  12.648  68.868  1.00  0.00    -0.126 OA 
HETATM   10  N   UNL     1      -8.270  11.108  64.909  1.00  0.00    -0.348 NA 
HETATM   11  H1  UNL     1      -7.689  11.576  64.212  1.00  0.00     0.000 HD 
ENDROOT
BRANCH   3  12
HETATM   12  C   UNL     1      -9.447   8.984  68.668  1.00  0.00    -0.149 A  
HETATM   13  C   UNL     1      -9.168   9.206  70.028  1.00  0.00    -0.209 A  
HETATM   14  C   UNL     1      -9.858   8.484  70.998  1.00  0.00    -0.195 A  
HETATM   15  C   UNL     1     -10.831   7.559  70.632  1.00  0.00    -0.240 A  
HETATM   16  O   UNL     1      -9.606   8.643  72.333  1.00  0.00    -0.288 OA 
HETATM   17  H   UNL     1     -10.077   8.151  72.995  1.00  0.00     0.000 HD 
HETATM   18  C   UNL     1     -11.132   7.340  69.297  1.00  0.00    -0.056 A  
HETATM   19  O   UNL     1     -11.499   6.853  71.590  1.00  0.00    -0.252 OA 
HETATM   20  C   UNL     1     -10.442   8.054  68.316  1.00  0.00    -0.210 A  
HETATM   21  H   UNL     1     -12.163   6.222  71.339  1.00  0.00     0.000 HD 
ENDBRANCH   3  12
TORSDOF 1
ENDMDL
MODEL      187
REMARK 921   NORMALIZED FREE ENERGY PREDICTED BY IDOCK:   -3.66 KCAL/MOL
REMARK 922        TOTAL FREE ENERGY PREDICTED BY IDOCK:   -3.06 KCAL/MOL
REMARK 923 INTER-LIGAND FREE ENERGY PREDICTED BY IDOCK:   -3.14 KCAL/MOL
REMARK 924 INTRA-LIGAND FREE ENERGY PREDICTED BY IDOCK:    0.08 KCAL/MOL
REMARK 927      BINDING AFFINITY PREDICTED BY RF-SCORE:    0.00 PKD
ROOT
HETATM    1  C   UNL     1      -7.317  18.741  66.025  1.00  0.00    -0.283 C  
HETATM    2  C   UNL     1      -7.533  18.663  67.547  1.00  0.00    -0.227 C  
HETATM    3  C   UNL     1      -7.503  17.187  68.052  1.00  0.00    -0.197 C  
HETATM    4  N   UNL     1      -6.493  19.505  68.225  1.00  0.00    -0.239 NA 
HETATM    5  C   UNL     1      -8.883  19.285  68.024  1.00  0.00    -0.317 C  
HETATM    6  H2  UNL     1      -4.937  19.034  67.010  1.00  0.00     0.000 HD 
HETATM    7  H   UNL     1      -6.687  19.563  69.225  1.00  0.00     0.000 HD 
HETATM    8  O   UNL     1      -9.213  19.297  69.208  1.00  0.00    -0.231 OA 
HETATM    9  O   UNL     1      -9.679  19.851  67.091  1.00  0.00    -0.343 OA 
HETATM   10  N   UNL     1      -5.131  19.093  68.010  1.00  0.00    -0.173 NA 
HETATM   11  H1  UNL     1      -4.424  19.666  68.471  1.00  0.00     0.000 HD 
ENDROOT
BRANCH   3  12
HETATM   12  C   UNL     1      -8.565  16.275  67.464  1.00  0.00    -0.189 A  
HETATM   13  C   UNL     1      -8.478  15.839  66.131  1.00  0.00    -0.118 A  
HETATM   14  C   UNL     1      -9.485  15.035  65.603  1.00  0.00    -0.144 A  
HETATM   15  C   UNL     1     -10.566  14.649  66.390  1.00  0.00    -0.301 A  
HETATM   16  O   UNL     1      -9.460  14.605  64.305  1.00  0.00     0.411 OA 
HETATM   17  H   UNL     1     -10.148  14.056  63.945  1.00  0.00     0.000 HD 
HETATM   18  C   UNL     1     -10.660  15.054  67.711  1.00  0.00    -0.264 A  
HETATM   19  O   UNL     1     -11.550  13.865  65.862  1.00  0.00    -0.322 OA 
HETATM   20  C   UNL     1      -9.659  15.866  68.249  1.00  0.00    -0.205 A  
HETATM   21  H   UNL     1     -12.288  13.602  66.399  1.00  0.00     0.000 HD 
ENDBRANCH   3  12
TORSDOF 1
ENDMDL
MODEL      188
REMARK 921   NORMALIZED FREE ENERGY PREDICTED BY IDOCK:   -3.65 KCAL/MOL
REMARK 922        TOTAL FREE ENERGY PREDICTED BY IDOCK:   -3.04 KCAL/MOL
REMARK 923 INTER-LIGAND FREE ENERGY PREDICTED BY IDOCK:   -3.69 KCAL/MOL
REMARK 924 INTRA-LIGAND FREE ENERGY PREDICTED BY IDOCK:    0.64 KCAL/MOL
REMARK 927      BINDING AFFINITY PREDICTED BY RF-SCORE:    0.00 PKD
ROOT
HETATM    1  C   UNL     1     -10.251   7.024  71.531  1.00  0.00    -0.211 C  
HETATM    2  C   UNL     1     -10.198   8.413  70.870  1.00  0.00    -0.194 C  
HETATM    3  C   UNL     1     -10.861   8.396  69.457  1.00  0.00    -0.126 C  
HETATM    4  N   UNL     1     -10.854   9.406  71.781  1.00  0.00    -0.296 NA 
HETATM    5  C   UNL     1      -8.750   8.970  70.692  1.00  0.00    -0.213 C  
HETATM    6  H2  UNL     1     -12.373   8.220  72.418  1.00  0.00     0.000 HD 
HETATM    7  H   UNL     1     -10.727  10.351  71.419  1.00  0.00     0.000 HD 
HETATM    8  O   UNL     1      -8.533  10.063  70.173  1.00  0.00    -0.169 OA 
HETATM    9  O   UNL     1      -7.727   8.225  71.162  1.00  0.00    -0.079 OA 
HETATM   10  N   UNL     1     -12.246   9.165  72.055  1.00  0.00    -0.377 NA 
HETATM   11  H1  UNL     1     -12.692   9.841  72.676  1.00  0.00     0.000 HD 
ENDROOT
BRANCH   3  12
HETATM   12  C   UNL     1     -10.220   7.462  68.446  1.00  0.00    -0.207 A  
HETATM   13  C   UNL     1     -11.006   6.576  67.689  1.00  0.00    -0.426 A  
HETATM   14  C   UNL     1     -10.391   5.702  66.798  1.00  0.00    -0.262 A  
HETATM   15  C   UNL     1      -9.008   5.710  66.640  1.00  0.00    -0.120 A  
HETATM   16  O   UNL     1     -11.108   4.802  66.057  1.00  0.00    -0.642 OA 
HETATM   17  H   UNL     1     -10.688   4.205  65.448  1.00  0.00     0.000 HD 
HETATM   18  C   UNL     1      -8.219   6.589  67.364  1.00  0.00    -0.121 A  
HETATM   19  O   UNL     1      -8.415   4.846  65.766  1.00  0.00    -0.116 OA 
HETATM   20  C   UNL     1      -8.825   7.466  68.266  1.00  0.00    -0.128 A  
HETATM   21  H   UNL     1      -7.471   4.852  65.659  1.00  0.00     0.000 HD 
ENDBRANCH   3  12
TORSDOF 1
ENDMDL
MODEL      189
REMARK 921   NORMALIZED FREE ENERGY PREDICTED BY IDOCK:   -3.61 KCAL/MOL
REMARK 922        TOTAL FREE ENERGY PREDICTED BY IDOCK:   -3.00 KCAL/MOL
REMARK 923 INTER-LIGAND FREE ENERGY PREDICTED BY IDOCK:   -3.12 KCAL/MOL
REMARK 924 INTRA-LIGAND FREE ENERGY PREDICTED BY IDOCK:    0.13 KCAL/MOL
REMARK 927      BINDING AFFINITY PREDICTED BY RF-SCORE:    0.00 PKD
ROOT
HETATM    1  C   UNL     1      -8.972   7.503  69.995  1.00  0.00    -0.144 C  
HETATM    2  C   UNL     1     -10.297   7.165  69.288  1.00  0.00    -0.203 C  
HETATM    3  C   UNL     1     -10.771   5.717  69.626  1.00  0.00    -0.416 C  
HETATM    4  N   UNL     1     -11.322   8.190  69.671  1.00  0.00    -0.438 NA 
HETATM    5  C   UNL     1     -10.226   7.274  67.732  1.00  0.00    -0.195 C  
HETATM    6  H2  UNL     1     -10.789   8.383  71.620  1.00  0.00     0.000 HD 
HETATM    7  H   UNL     1     -12.173   8.056  69.125  1.00  0.00     0.000 HD 
HETATM    8  O   UNL     1     -11.195   7.030  67.018  1.00  0.00    -0.328 OA 
HETATM    9  O   UNL     1      -9.062   7.683  67.183  1.00  0.00    -0.122 OA 
HETATM   10  N   UNL     1     -11.640   8.249  71.074  1.00  0.00    -0.276 NA 
HETATM   11  H1  UNL     1     -12.338   8.947  71.334  1.00  0.00     0.000 HD 
ENDROOT
BRANCH   3  12
HETATM   12  C   UNL     1      -9.820   4.607  69.215  1.00  0.00    -0.260 A  
HETATM   13  C   UNL     1      -9.740   4.191  67.875  1.00  0.00    -0.161 A  
HETATM   14  C   UNL     1      -8.890   3.144  67.530  1.00  0.00    -0.136 A  
HETATM   15  C   UNL     1      -8.109   2.519  68.498  1.00  0.00    -0.056 A  
HETATM   16  O   UNL     1      -8.794   2.684  66.245  1.00  0.00    -0.124 OA 
HETATM   17  H   UNL     1      -8.214   1.969  66.010  1.00  0.00     0.000 HD 
HETATM   18  C   UNL     1      -8.161   2.928  69.821  1.00  0.00    -0.067 A  
HETATM   19  O   UNL     1      -7.282   1.491  68.151  1.00  0.00    -0.039 OA 
HETATM   20  C   UNL     1      -9.015   3.973  70.179  1.00  0.00    -0.159 A  
HETATM   21  H   UNL     1      -6.750   1.064  68.812  1.00  0.00     0.000 HD 
ENDBRANCH   3  12
TORSDOF 1
ENDMDL
MODEL      190
REMARK 921   NORMALIZED FREE ENERGY PREDICTED BY IDOCK:   -3.58 KCAL/MOL
REMARK 922        TOTAL FREE ENERGY PREDICTED BY IDOCK:   -2.97 KCAL/MOL
REMARK 923 INTER-LIGAND FREE ENERGY PREDICTED BY IDOCK:   -3.00 KCAL/MOL
REMARK 924 INTRA-LIGAND FREE ENERGY PREDICTED BY IDOCK:    0.03 KCAL/MOL
REMARK 927      BINDING AFFINITY PREDICTED BY RF-SCORE:    0.00 PKD
ROOT
HETATM    1  C   UNL     1      -9.834   4.982  69.567  1.00  0.00    -0.281 C  
HETATM    2  C   UNL     1      -9.063   5.678  68.431  1.00  0.00    -0.117 C  
HETATM    3  C   UNL     1      -8.505   7.063  68.887  1.00  0.00    -0.125 C  
HETATM    4  N   UNL     1      -7.971   4.766  67.960  1.00  0.00    -0.085 NA 
HETATM    5  C   UNL     1      -9.919   5.927  67.150  1.00  0.00    -0.159 C  
HETATM    6  H2  UNL     1      -7.428   4.042  69.777  1.00  0.00     0.000 HD 
HETATM    7  H   UNL     1      -7.521   5.155  67.132  1.00  0.00     0.000 HD 
HETATM    8  O   UNL     1      -9.456   6.480  66.155  1.00  0.00    -0.128 OA 
HETATM    9  O   UNL     1     -11.193   5.480  67.148  1.00  0.00     0.128 OA 
HETATM   10  N   UNL     1      -6.979   4.431  68.948  1.00  0.00    -0.050 NA 
HETATM   11  H1  UNL     1      -6.235   3.810  68.627  1.00  0.00     0.000 HD 
ENDROOT
BRANCH   3  12
HETATM   12  C   UNL     1      -9.549   8.075  69.323  1.00  0.00    -0.157 A  
HETATM   13  C   UNL     1     -10.091   8.989  68.402  1.00  0.00    -0.216 A  
HETATM   14  C   UNL     1     -11.017   9.934  68.834  1.00  0.00    -0.179 A  
HETATM   15  C   UNL     1     -11.422   9.969  70.166  1.00  0.00    -0.277 A  
HETATM   16  O   UNL     1     -11.555  10.861  67.984  1.00  0.00    -0.464 OA 
HETATM   17  H   UNL     1     -12.187  11.506  68.280  1.00  0.00     0.000 HD 
HETATM   18  C   UNL     1     -10.913   9.065  71.084  1.00  0.00    -0.371 A  
HETATM   19  O   UNL     1     -12.327  10.902  70.581  1.00  0.00    -0.315 OA 
HETATM   20  C   UNL     1      -9.978   8.117  70.662  1.00  0.00    -0.204 A  
HETATM   21  H   UNL     1     -12.603  10.926  71.490  1.00  0.00     0.000 HD 
ENDBRANCH   3  12
TORSDOF 1
ENDMDL
MODEL      191
REMARK 921   NORMALIZED FREE ENERGY PREDICTED BY IDOCK:   -3.58 KCAL/MOL
REMARK 922        TOTAL FREE ENERGY PREDICTED BY IDOCK:   -2.97 KCAL/MOL
REMARK 923 INTER-LIGAND FREE ENERGY PREDICTED BY IDOCK:   -3.90 KCAL/MOL
REMARK 924 INTRA-LIGAND FREE ENERGY PREDICTED BY IDOCK:    0.94 KCAL/MOL
REMARK 927      BINDING AFFINITY PREDICTED BY RF-SCORE:    0.00 PKD
ROOT
HETATM    1  C   UNL     1      -7.324   8.453  73.098  1.00  0.00    -0.108 C  
HETATM    2  C   UNL     1      -7.301   8.464  71.559  1.00  0.00    -0.095 C  
HETATM    3  C   UNL     1      -8.457   9.336  70.978  1.00  0.00    -0.150 C  
HETATM    4  N   UNL     1      -5.957   8.944  71.101  1.00  0.00    -0.044 NA 
HETATM    5  C   UNL     1      -7.428   7.046  70.917  1.00  0.00    -0.082 C  
HETATM    6  H2  UNL     1      -5.692  10.379  72.511  1.00  0.00     0.000 HD 
HETATM    7  H   UNL     1      -5.877   8.849  70.088  1.00  0.00     0.000 HD 
HETATM    8  O   UNL     1      -7.435   6.881  69.700  1.00  0.00    -0.093 OA 
HETATM    9  O   UNL     1      -7.497   5.984  71.748  1.00  0.00    -0.091 OA 
HETATM   10  N   UNL     1      -5.613  10.284  71.499  1.00  0.00    -0.267 NA 
HETATM   11  H1  UNL     1      -4.697  10.610  71.187  1.00  0.00     0.000 HD 
ENDROOT
BRANCH   3  12
HETATM   12  C   UNL     1      -9.861   8.885  71.340  1.00  0.00    -0.376 A  
HETATM   13  C   UNL     1     -10.064   7.766  72.165  1.00  0.00    -0.265 A  
HETATM   14  C   UNL     1     -11.361   7.347  72.450  1.00  0.00    -0.297 A  
HETATM   15  C   UNL     1     -12.455   8.038  71.938  1.00  0.00    -0.330 A  
HETATM   16  O   UNL     1     -11.612   6.249  73.227  1.00  0.00    -0.432 OA 
HETATM   17  H   UNL     1     -12.497   5.964  73.422  1.00  0.00     0.000 HD 
HETATM   18  C   UNL     1     -12.274   9.154  71.137  1.00  0.00    -0.350 A  
HETATM   19  O   UNL     1     -13.722   7.618  72.219  1.00  0.00    -0.518 OA 
HETATM   20  C   UNL     1     -10.978   9.579  70.840  1.00  0.00    -0.407 A  
HETATM   21  H   UNL     1     -14.468   8.089  71.869  1.00  0.00     0.000 HD 
ENDBRANCH   3  12
TORSDOF 1
ENDMDL
MODEL      192
REMARK 921   NORMALIZED FREE ENERGY PREDICTED BY IDOCK:   -3.57 KCAL/MOL
REMARK 922        TOTAL FREE ENERGY PREDICTED BY IDOCK:   -2.96 KCAL/MOL
REMARK 923 INTER-LIGAND FREE ENERGY PREDICTED BY IDOCK:   -2.98 KCAL/MOL
REMARK 924 INTRA-LIGAND FREE ENERGY PREDICTED BY IDOCK:    0.02 KCAL/MOL
REMARK 927      BINDING AFFINITY PREDICTED BY RF-SCORE:    0.00 PKD
ROOT
HETATM    1  C   UNL     1     -11.032   8.650  68.943  1.00  0.00     0.083 C  
HETATM    2  C   UNL     1     -10.788   9.195  70.361  1.00  0.00    -0.242 C  
HETATM    3  C   UNL     1      -9.293   9.046  70.779  1.00  0.00    -0.305 C  
HETATM    4  N   UNL     1     -11.242  10.622  70.414  1.00  0.00    -0.417 NA 
HETATM    5  C   UNL     1     -11.645   8.491  71.461  1.00  0.00    -0.292 C  
HETATM    6  H2  UNL     1     -10.588  11.176  68.574  1.00  0.00     0.000 HD 
HETATM    7  H   UNL     1     -11.200  10.969  71.372  1.00  0.00     0.000 HD 
HETATM    8  O   UNL     1     -11.564   8.802  72.647  1.00  0.00    -0.249 OA 
HETATM    9  O   UNL     1     -12.518   7.540  71.066  1.00  0.00    -0.293 OA 
HETATM   10  N   UNL     1     -10.546  11.523  69.533  1.00  0.00    -0.448 NA 
HETATM   11  H1  UNL     1     -10.855  12.495  69.569  1.00  0.00     0.000 HD 
ENDROOT
BRANCH   3  12
HETATM   12  C   UNL     1      -8.763   7.623  70.816  1.00  0.00    -0.139 A  
HETATM   13  C   UNL     1      -8.734   6.899  72.020  1.00  0.00    -0.126 A  
HETATM   14  C   UNL     1      -8.207   5.610  72.035  1.00  0.00    -0.115 A  
HETATM   15  C   UNL     1      -7.726   5.030  70.865  1.00  0.00    -0.083 A  
HETATM   16  O   UNL     1      -8.132   4.874  73.186  1.00  0.00    -0.100 OA 
HETATM   17  H   UNL     1      -7.772   3.994  73.196  1.00  0.00     0.000 HD 
HETATM   18  C   UNL     1      -7.763   5.721  69.665  1.00  0.00    -0.091 A  
HETATM   19  O   UNL     1      -7.207   3.768  70.891  1.00  0.00    -0.033 OA 
HETATM   20  C   UNL     1      -8.284   7.017  69.640  1.00  0.00    -0.131 A  
HETATM   21  H   UNL     1      -6.878   3.372  70.093  1.00  0.00     0.000 HD 
ENDBRANCH   3  12
TORSDOF 1
ENDMDL
MODEL      193
REMARK 921   NORMALIZED FREE ENERGY PREDICTED BY IDOCK:   -3.49 KCAL/MOL
REMARK 922        TOTAL FREE ENERGY PREDICTED BY IDOCK:   -2.88 KCAL/MOL
REMARK 923 INTER-LIGAND FREE ENERGY PREDICTED BY IDOCK:   -3.14 KCAL/MOL
REMARK 924 INTRA-LIGAND FREE ENERGY PREDICTED BY IDOCK:    0.27 KCAL/MOL
REMARK 927      BINDING AFFINITY PREDICTED BY RF-SCORE:    0.00 PKD
ROOT
HETATM    1  C   UNL     1      -8.623   7.931  69.657  1.00  0.00    -0.133 C  
HETATM    2  C   UNL     1      -9.908   7.357  69.033  1.00  0.00    -0.168 C  
HETATM    3  C   UNL     1     -10.700   6.489  70.059  1.00  0.00    -0.302 C  
HETATM    4  N   UNL     1     -10.735   8.490  68.505  1.00  0.00    -0.417 NA 
HETATM    5  C   UNL     1      -9.653   6.464  67.777  1.00  0.00    -0.121 C  
HETATM    6  H2  UNL     1     -10.381   9.802  70.011  1.00  0.00     0.000 HD 
HETATM    7  H   UNL     1     -11.533   8.127  67.983  1.00  0.00     0.000 HD 
HETATM    8  O   UNL     1     -10.571   5.923  67.166  1.00  0.00    -0.235 OA 
HETATM    9  O   UNL     1      -8.379   6.328  67.351  1.00  0.00    -0.109 OA 
HETATM   10  N   UNL     1     -11.179   9.440  69.490  1.00  0.00    -0.429 NA 
HETATM   11  H1  UNL     1     -11.742  10.211  69.130  1.00  0.00     0.000 HD 
ENDROOT
BRANCH   3  12
HETATM   12  C   UNL     1      -9.960   5.280  70.602  1.00  0.00    -0.287 A  
HETATM   13  C   UNL     1      -9.553   5.231  71.946  1.00  0.00    -0.191 A  
HETATM   14  C   UNL     1      -8.840   4.128  72.410  1.00  0.00    -0.107 A  
HETATM   15  C   UNL     1      -8.543   3.069  71.557  1.00  0.00    -0.068 A  
HETATM   16  O   UNL     1      -8.399   4.044  73.702  1.00  0.00    -0.088 OA 
HETATM   17  H   UNL     1      -7.913   3.291  74.018  1.00  0.00     0.000 HD 
HETATM   18  C   UNL     1      -8.952   3.091  70.233  1.00  0.00    -0.165 A  
HETATM   19  O   UNL     1      -7.841   1.995  72.019  1.00  0.00    -0.043 OA 
HETATM   20  C   UNL     1      -9.662   4.196  69.756  1.00  0.00    -0.278 A  
HETATM   21  H   UNL     1      -7.638   1.273  71.436  1.00  0.00     0.000 HD 
ENDBRANCH   3  12
TORSDOF 1
ENDMDL
MODEL      194
REMARK 921   NORMALIZED FREE ENERGY PREDICTED BY IDOCK:   -3.44 KCAL/MOL
REMARK 922        TOTAL FREE ENERGY PREDICTED BY IDOCK:   -2.83 KCAL/MOL
REMARK 923 INTER-LIGAND FREE ENERGY PREDICTED BY IDOCK:   -2.87 KCAL/MOL
REMARK 924 INTRA-LIGAND FREE ENERGY PREDICTED BY IDOCK:    0.04 KCAL/MOL
REMARK 927      BINDING AFFINITY PREDICTED BY RF-SCORE:    0.00 PKD
ROOT
HETATM    1  C   UNL     1      -7.317   6.734  66.615  1.00  0.00    -0.074 C  
HETATM    2  C   UNL     1      -8.788   7.131  66.398  1.00  0.00    -0.145 C  
HETATM    3  C   UNL     1      -8.907   8.467  65.602  1.00  0.00    -0.214 C  
HETATM    4  N   UNL     1      -9.494   6.004  65.705  1.00  0.00    -0.368 NA 
HETATM    5  C   UNL     1      -9.592   7.313  67.725  1.00  0.00    -0.138 C  
HETATM    6  H2  UNL     1      -7.989   5.484  64.446  1.00  0.00     0.000 HD 
HETATM    7  H   UNL     1     -10.494   6.195  65.656  1.00  0.00     0.000 HD 
HETATM    8  O   UNL     1     -10.777   7.636  67.728  1.00  0.00    -0.214 OA 
HETATM    9  O   UNL     1      -8.951   7.068  68.887  1.00  0.00    -0.130 OA 
HETATM   10  N   UNL     1      -8.990   5.674  64.397  1.00  0.00    -0.349 NA 
HETATM   11  H1  UNL     1      -9.470   4.908  63.925  1.00  0.00     0.000 HD 
ENDROOT
BRANCH   3  12
HETATM   12  C   UNL     1      -8.273   9.679  66.263  1.00  0.00    -0.116 A  
HETATM   13  C   UNL     1      -9.007  10.473  67.160  1.00  0.00    -0.147 A  
HETATM   14  C   UNL     1      -8.417  11.601  67.722  1.00  0.00    -0.144 A  
HETATM   15  C   UNL     1      -7.102  11.938  67.414  1.00  0.00    -0.129 A  
HETATM   16  O   UNL     1      -9.097  12.422  68.580  1.00  0.00    -0.367 OA 
HETATM   17  H   UNL     1      -8.694  13.192  68.964  1.00  0.00     0.000 HD 
HETATM   18  C   UNL     1      -6.357  11.157  66.546  1.00  0.00    -0.132 A  
HETATM   19  O   UNL     1      -6.534  13.049  67.967  1.00  0.00    -0.090 OA 
HETATM   20  C   UNL     1      -6.941  10.027  65.972  1.00  0.00    -0.110 A  
HETATM   21  H   UNL     1      -5.636  13.279  67.756  1.00  0.00     0.000 HD 
ENDBRANCH   3  12
TORSDOF 1
ENDMDL
MODEL      195
REMARK 921   NORMALIZED FREE ENERGY PREDICTED BY IDOCK:   -3.44 KCAL/MOL
REMARK 922        TOTAL FREE ENERGY PREDICTED BY IDOCK:   -2.82 KCAL/MOL
REMARK 923 INTER-LIGAND FREE ENERGY PREDICTED BY IDOCK:   -2.97 KCAL/MOL
REMARK 924 INTRA-LIGAND FREE ENERGY PREDICTED BY IDOCK:    0.15 KCAL/MOL
REMARK 927      BINDING AFFINITY PREDICTED BY RF-SCORE:    0.00 PKD
ROOT
HETATM    1  C   UNL     1      -7.329   4.108  68.221  1.00  0.00    -0.060 C  
HETATM    2  C   UNL     1      -8.238   4.899  67.264  1.00  0.00    -0.106 C  
HETATM    3  C   UNL     1      -8.694   6.250  67.898  1.00  0.00    -0.114 C  
HETATM    4  N   UNL     1      -7.509   5.108  65.970  1.00  0.00    -0.081 NA 
HETATM    5  C   UNL     1      -9.530   4.129  66.843  1.00  0.00    -0.191 C  
HETATM    6  H2  UNL     1      -5.670   5.455  66.755  1.00  0.00     0.000 HD 
HETATM    7  H   UNL     1      -8.133   5.526  65.280  1.00  0.00     0.000 HD 
HETATM    8  O   UNL     1     -10.365   4.623  66.089  1.00  0.00    -0.269 OA 
HETATM    9  O   UNL     1      -9.693   2.872  67.308  1.00  0.00    -0.043 OA 
HETATM   10  N   UNL     1      -6.294   5.874  66.065  1.00  0.00    -0.040 NA 
HETATM   11  H1  UNL     1      -5.798   6.016  65.184  1.00  0.00     0.000 HD 
ENDROOT
BRANCH   3  12
HETATM   12  C   UNL     1      -9.496   6.131  69.181  1.00  0.00    -0.144 A  
HETATM   13  C   UNL     1      -8.915   5.592  70.342  1.00  0.00    -0.153 A  
HETATM   14  C   UNL     1      -9.682   5.456  71.496  1.00  0.00    -0.159 A  
HETATM   15  C   UNL     1     -11.013   5.865  71.512  1.00  0.00    -0.262 A  
HETATM   16  O   UNL     1      -9.173   4.914  72.644  1.00  0.00    -0.130 OA 
HETATM   17  H   UNL     1      -9.697   4.822  73.431  1.00  0.00     0.000 HD 
HETATM   18  C   UNL     1     -11.597   6.416  70.383  1.00  0.00    -0.440 A  
HETATM   19  O   UNL     1     -11.758   5.724  72.646  1.00  0.00    -0.419 OA 
HETATM   20  C   UNL     1     -10.838   6.550  69.218  1.00  0.00    -0.361 A  
HETATM   21  H   UNL     1     -12.666   6.004  72.656  1.00  0.00     0.000 HD 
ENDBRANCH   3  12
TORSDOF 1
ENDMDL
MODEL      196
REMARK 921   NORMALIZED FREE ENERGY PREDICTED BY IDOCK:   -3.36 KCAL/MOL
REMARK 922        TOTAL FREE ENERGY PREDICTED BY IDOCK:   -2.74 KCAL/MOL
REMARK 923 INTER-LIGAND FREE ENERGY PREDICTED BY IDOCK:   -2.84 KCAL/MOL
REMARK 924 INTRA-LIGAND FREE ENERGY PREDICTED BY IDOCK:    0.11 KCAL/MOL
REMARK 927      BINDING AFFINITY PREDICTED BY RF-SCORE:    0.00 PKD
ROOT
HETATM    1  C   UNL     1      -9.712   9.023  66.545  1.00  0.00    -0.311 C  
HETATM    2  C   UNL     1      -8.190   8.882  66.726  1.00  0.00    -0.111 C  
HETATM    3  C   UNL     1      -7.625   7.692  65.890  1.00  0.00    -0.091 C  
HETATM    4  N   UNL     1      -7.538  10.181  66.358  1.00  0.00    -0.104 NA 
HETATM    5  C   UNL     1      -7.752   8.652  68.208  1.00  0.00    -0.101 C  
HETATM    6  H2  UNL     1      -8.718  10.630  64.770  1.00  0.00     0.000 HD 
HETATM    7  H   UNL     1      -6.543  10.149  66.582  1.00  0.00     0.000 HD 
HETATM    8  O   UNL     1      -6.573   8.511  68.523  1.00  0.00    -0.057 OA 
HETATM    9  O   UNL     1      -8.714   8.646  69.154  1.00  0.00    -0.134 OA 
HETATM   10  N   UNL     1      -7.724  10.598  64.994  1.00  0.00    -0.340 NA 
HETATM   11  H1  UNL     1      -7.280  11.482  64.743  1.00  0.00     0.000 HD 
ENDROOT
BRANCH   3  12
HETATM   12  C   UNL     1      -8.185   6.324  66.240  1.00  0.00    -0.117 A  
HETATM   13  C   UNL     1      -9.249   5.775  65.504  1.00  0.00     0.015 A  
HETATM   14  C   UNL     1      -9.771   4.538  65.869  1.00  0.00    -0.205 A  
HETATM   15  C   UNL     1      -9.237   3.834  66.945  1.00  0.00    -0.179 A  
HETATM   16  O   UNL     1     -10.824   3.972  65.203  1.00  0.00    -0.523 OA 
HETATM   17  H   UNL     1     -11.180   3.127  65.452  1.00  0.00     0.000 HD 
HETATM   18  C   UNL     1      -8.175   4.351  67.670  1.00  0.00    -0.099 A  
HETATM   19  O   UNL     1      -9.758   2.624  67.298  1.00  0.00    -0.398 OA 
HETATM   20  C   UNL     1      -7.648   5.595  67.317  1.00  0.00    -0.089 A  
HETATM   21  H   UNL     1      -9.393   2.144  68.032  1.00  0.00     0.000 HD 
ENDBRANCH   3  12
TORSDOF 1
ENDMDL
MODEL      197
REMARK 921   NORMALIZED FREE ENERGY PREDICTED BY IDOCK:   -3.29 KCAL/MOL
REMARK 922        TOTAL FREE ENERGY PREDICTED BY IDOCK:   -2.66 KCAL/MOL
REMARK 923 INTER-LIGAND FREE ENERGY PREDICTED BY IDOCK:   -2.74 KCAL/MOL
REMARK 924 INTRA-LIGAND FREE ENERGY PREDICTED BY IDOCK:    0.08 KCAL/MOL
REMARK 927      BINDING AFFINITY PREDICTED BY RF-SCORE:    0.00 PKD
ROOT
HETATM    1  C   UNL     1      -8.407   6.775  73.864  1.00  0.00    -0.144 C  
HETATM    2  C   UNL     1      -7.181   7.011  72.964  1.00  0.00    -0.073 C  
HETATM    3  C   UNL     1      -7.491   8.047  71.839  1.00  0.00    -0.093 C  
HETATM    4  N   UNL     1      -6.031   7.446  73.821  1.00  0.00    -0.060 NA 
HETATM    5  C   UNL     1      -6.657   5.717  72.265  1.00  0.00    -0.062 C  
HETATM    6  H2  UNL     1      -7.079   8.632  75.090  1.00  0.00     0.000 HD 
HETATM    7  H   UNL     1      -5.178   7.494  73.264  1.00  0.00     0.000 HD 
HETATM    8  O   UNL     1      -5.690   5.734  71.506  1.00  0.00    -0.020 OA 
HETATM    9  O   UNL     1      -7.280   4.553  72.545  1.00  0.00    -0.074 OA 
HETATM   10  N   UNL     1      -6.226   8.681  74.533  1.00  0.00    -0.128 NA 
HETATM   11  H1  UNL     1      -5.443   8.977  75.117  1.00  0.00     0.000 HD 
ENDROOT
BRANCH   3  12
HETATM   12  C   UNL     1      -8.604   7.659  70.882  1.00  0.00    -0.129 A  
HETATM   13  C   UNL     1      -9.947   7.683  71.296  1.00  0.00    -0.195 A  
HETATM   14  C   UNL     1     -10.946   7.284  70.413  1.00  0.00    -0.252 A  
HETATM   15  C   UNL     1     -10.626   6.880  69.120  1.00  0.00    -0.223 A  
HETATM   16  O   UNL     1     -12.265   7.264  70.775  1.00  0.00    -0.482 OA 
HETATM   17  H   UNL     1     -12.947   6.992  70.171  1.00  0.00     0.000 HD 
HETATM   18  C   UNL     1      -9.310   6.867  68.688  1.00  0.00    -0.135 A  
HETATM   19  O   UNL     1     -11.612   6.487  68.263  1.00  0.00    -0.540 OA 
HETATM   20  C   UNL     1      -8.299   7.259  69.569  1.00  0.00    -0.133 A  
HETATM   21  H   UNL     1     -11.394   6.210  67.381  1.00  0.00     0.000 HD 
ENDBRANCH   3  12
TORSDOF 1
ENDMDL
MODEL      198
REMARK 921   NORMALIZED FREE ENERGY PREDICTED BY IDOCK:   -3.28 KCAL/MOL
REMARK 922        TOTAL FREE ENERGY PREDICTED BY IDOCK:   -2.65 KCAL/MOL
REMARK 923 INTER-LIGAND FREE ENERGY PREDICTED BY IDOCK:   -2.69 KCAL/MOL
REMARK 924 INTRA-LIGAND FREE ENERGY PREDICTED BY IDOCK:    0.04 KCAL/MOL
REMARK 927      BINDING AFFINITY PREDICTED BY RF-SCORE:    0.00 PKD
ROOT
HETATM    1  C   UNL     1      -8.896   7.961  68.803  1.00  0.00    -0.138 C  
HETATM    2  C   UNL     1      -7.880   8.596  67.837  1.00  0.00    -0.103 C  
HETATM    3  C   UNL     1      -7.824  10.146  68.008  1.00  0.00    -0.096 C  
HETATM    4  N   UNL     1      -6.540   7.962  68.062  1.00  0.00    -0.055 NA 
HETATM    5  C   UNL     1      -8.179   8.310  66.331  1.00  0.00    -0.107 C  
HETATM    6  H2  UNL     1      -6.647   7.825  70.084  1.00  0.00     0.000 HD 
HETATM    7  H   UNL     1      -5.878   8.282  67.355  1.00  0.00     0.000 HD 
HETATM    8  O   UNL     1      -7.469   8.752  65.431  1.00  0.00    -0.083 OA 
HETATM    9  O   UNL     1      -9.237   7.523  66.039  1.00  0.00    -0.143 OA 
HETATM   10  N   UNL     1      -5.985   8.145  69.377  1.00  0.00    -0.036 NA 
HETATM   11  H1  UNL     1      -5.073   7.714  69.530  1.00  0.00     0.000 HD 
ENDROOT
BRANCH   3  12
HETATM   12  C   UNL     1      -9.126  10.880  67.737  1.00  0.00    -0.149 A  
HETATM   13  C   UNL     1      -9.445  11.321  66.442  1.00  0.00    -0.221 A  
HETATM   14  C   UNL     1     -10.625  12.026  66.226  1.00  0.00    -0.252 A  
HETATM   15  C   UNL     1     -11.497  12.283  67.280  1.00  0.00    -0.357 A  
HETATM   16  O   UNL     1     -10.969  12.500  64.989  1.00  0.00    -0.280 OA 
HETATM   17  H   UNL     1     -11.775  12.981  64.843  1.00  0.00     0.000 HD 
HETATM   18  C   UNL     1     -11.208  11.841  68.561  1.00  0.00    -0.306 A  
HETATM   19  O   UNL     1     -12.650  12.980  67.060  1.00  0.00    -0.160 OA 
HETATM   20  C   UNL     1     -10.024  11.138  68.789  1.00  0.00    -0.207 A  
HETATM   21  H   UNL     1     -13.244  13.155  67.780  1.00  0.00     0.000 HD 
ENDBRANCH   3  12
TORSDOF 1
ENDMDL
MODEL      199
REMARK 921   NORMALIZED FREE ENERGY PREDICTED BY IDOCK:   -3.28 KCAL/MOL
REMARK 922        TOTAL FREE ENERGY PREDICTED BY IDOCK:   -2.65 KCAL/MOL
REMARK 923 INTER-LIGAND FREE ENERGY PREDICTED BY IDOCK:   -2.71 KCAL/MOL
REMARK 924 INTRA-LIGAND FREE ENERGY PREDICTED BY IDOCK:    0.06 KCAL/MOL
REMARK 927      BINDING AFFINITY PREDICTED BY RF-SCORE:    0.00 PKD
ROOT
HETATM    1  C   UNL     1     -10.615   8.778  68.184  1.00  0.00    -0.203 C  
HETATM    2  C   UNL     1      -9.845   9.038  69.492  1.00  0.00    -0.180 C  
HETATM    3  C   UNL     1      -8.348   8.617  69.365  1.00  0.00    -0.114 C  
HETATM    4  N   UNL     1      -9.989  10.485  69.856  1.00  0.00    -0.424 NA 
HETATM    5  C   UNL     1     -10.431   8.283  70.727  1.00  0.00    -0.196 C  
HETATM    6  H2  UNL     1      -9.849  11.246  67.980  1.00  0.00     0.000 HD 
HETATM    7  H   UNL     1      -9.587  10.655  70.778  1.00  0.00     0.000 HD 
HETATM    8  O   UNL     1      -9.929   8.376  71.845  1.00  0.00    -0.209 OA 
HETATM    9  O   UNL     1     -11.543   7.540  70.540  1.00  0.00    -0.271 OA 
HETATM   10  N   UNL     1      -9.448  11.417  68.902  1.00  0.00    -0.383 NA 
HETATM   11  H1  UNL     1      -9.545  12.402  69.151  1.00  0.00     0.000 HD 
ENDROOT
BRANCH   3  12
HETATM   12  C   UNL     1      -8.105   7.150  69.059  1.00  0.00    -0.121 A  
HETATM   13  C   UNL     1      -8.126   6.681  67.734  1.00  0.00    -0.116 A  
HETATM   14  C   UNL     1      -7.941   5.324  67.482  1.00  0.00    -0.100 A  
HETATM   15  C   UNL     1      -7.719   4.435  68.529  1.00  0.00    -0.074 A  
HETATM   16  O   UNL     1      -7.978   4.813  66.213  1.00  0.00    -0.102 OA 
HETATM   17  H   UNL     1      -7.851   3.887  66.042  1.00  0.00     0.000 HD 
HETATM   18  C   UNL     1      -7.677   4.882  69.840  1.00  0.00    -0.056 A  
HETATM   19  O   UNL     1      -7.543   3.106  68.272  1.00  0.00    -0.053 OA 
HETATM   20  C   UNL     1      -7.869   6.239  70.105  1.00  0.00    -0.106 A  
HETATM   21  H   UNL     1      -7.392   2.499  68.987  1.00  0.00     0.000 HD 
ENDBRANCH   3  12
TORSDOF 1
ENDMDL
MODEL      200
REMARK 921   NORMALIZED FREE ENERGY PREDICTED BY IDOCK:   -3.16 KCAL/MOL
REMARK 922        TOTAL FREE ENERGY PREDICTED BY IDOCK:   -2.52 KCAL/MOL
REMARK 923 INTER-LIGAND FREE ENERGY PREDICTED BY IDOCK:   -2.63 KCAL/MOL
REMARK 924 INTRA-LIGAND FREE ENERGY PREDICTED BY IDOCK:    0.11 KCAL/MOL
REMARK 927      BINDING AFFINITY PREDICTED BY RF-SCORE:    0.00 PKD
ROOT
HETATM    1  C   UNL     1      -6.903   8.122  66.816  1.00  0.00    -0.069 C  
HETATM    2  C   UNL     1      -8.428   8.279  66.675  1.00  0.00    -0.123 C  
HETATM    3  C   UNL     1      -8.971   9.420  67.590  1.00  0.00    -0.125 C  
HETATM    4  N   UNL     1      -8.756   8.518  65.232  1.00  0.00    -0.292 NA 
HETATM    5  C   UNL     1      -9.228   6.986  67.029  1.00  0.00    -0.147 C  
HETATM    6  H2  UNL     1      -7.184   9.725  64.798  1.00  0.00     0.000 HD 
HETATM    7  H   UNL     1      -9.767   8.507  65.096  1.00  0.00     0.000 HD 
HETATM    8  O   UNL     1     -10.455   6.944  66.976  1.00  0.00    -0.244 OA 
HETATM    9  O   UNL     1      -8.525   5.884  67.368  1.00  0.00    -0.105 OA 
HETATM   10  N   UNL     1      -8.194   9.714  64.663  1.00  0.00    -0.139 NA 
HETATM   11  H1  UNL     1      -8.418   9.877  63.680  1.00  0.00     0.000 HD 
ENDROOT
BRANCH   3  12
HETATM   12  C   UNL     1      -8.738   9.230  69.078  1.00  0.00    -0.135 A  
HETATM   13  C   UNL     1      -7.443   9.314  69.619  1.00  0.00    -0.078 A  
HETATM   14  C   UNL     1      -7.250   9.097  70.980  1.00  0.00    -0.100 A  
HETATM   15  C   UNL     1      -8.331   8.813  71.810  1.00  0.00    -0.094 A  
HETATM   16  O   UNL     1      -6.008   9.142  71.550  1.00  0.00    -0.063 OA 
HETATM   17  H   UNL     1      -5.876   8.993  72.480  1.00  0.00     0.000 HD 
HETATM   18  C   UNL     1      -9.617   8.744  71.299  1.00  0.00    -0.323 A  
HETATM   19  O   UNL     1      -8.131   8.597  73.143  1.00  0.00    -0.405 OA 
HETATM   20  C   UNL     1      -9.821   8.954  69.934  1.00  0.00    -0.190 A  
HETATM   21  H   UNL     1      -8.869   8.403  73.709  1.00  0.00     0.000 HD 
ENDBRANCH   3  12
TORSDOF 1
ENDMDL
MODEL      201
REMARK 921   NORMALIZED FREE ENERGY PREDICTED BY IDOCK:   -3.14 KCAL/MOL
REMARK 922        TOTAL FREE ENERGY PREDICTED BY IDOCK:   -2.51 KCAL/MOL
REMARK 923 INTER-LIGAND FREE ENERGY PREDICTED BY IDOCK:   -2.53 KCAL/MOL
REMARK 924 INTRA-LIGAND FREE ENERGY PREDICTED BY IDOCK:    0.02 KCAL/MOL
REMARK 927      BINDING AFFINITY PREDICTED BY RF-SCORE:    0.00 PKD
ROOT
HETATM    1  C   UNL     1     -10.660   5.487  68.517  1.00  0.00    -0.208 C  
HETATM    2  C   UNL     1      -9.597   5.708  67.426  1.00  0.00    -0.118 C  
HETATM    3  C   UNL     1      -8.153   5.562  67.998  1.00  0.00    -0.096 C  
HETATM    4  N   UNL     1      -9.852   4.748  66.303  1.00  0.00    -0.196 NA 
HETATM    5  C   UNL     1      -9.681   7.110  66.742  1.00  0.00    -0.192 C  
HETATM    6  H2  UNL     1     -10.376   3.148  67.437  1.00  0.00     0.000 HD 
HETATM    7  H   UNL     1      -9.234   4.954  65.518  1.00  0.00     0.000 HD 
HETATM    8  O   UNL     1      -8.900   7.449  65.856  1.00  0.00    -0.164 OA 
HETATM    9  O   UNL     1     -10.671   7.941  67.131  1.00  0.00    -0.326 OA 
HETATM   10  N   UNL     1      -9.758   3.354  66.652  1.00  0.00    -0.412 NA 
HETATM   11  H1  UNL     1      -9.931   2.701  65.888  1.00  0.00     0.000 HD 
ENDROOT
BRANCH   3  12
HETATM   12  C   UNL     1      -7.786   6.540  69.100  1.00  0.00    -0.102 A  
HETATM   13  C   UNL     1      -7.123   7.743  68.800  1.00  0.00    -0.076 A  
HETATM   14  C   UNL     1      -6.761   8.605  69.831  1.00  0.00    -0.042 A  
HETATM   15  C   UNL     1      -7.065   8.292  71.153  1.00  0.00    -0.059 A  
HETATM   16  O   UNL     1      -6.092   9.774  69.595  1.00  0.00    -0.042 OA 
HETATM   17  H   UNL     1      -5.846  10.363  70.299  1.00  0.00     0.000 HD 
HETATM   18  C   UNL     1      -7.734   7.119  71.467  1.00  0.00    -0.089 A  
HETATM   19  O   UNL     1      -6.702   9.141  72.158  1.00  0.00    -0.295 OA 
HETATM   20  C   UNL     1      -8.096   6.245  70.440  1.00  0.00    -0.116 A  
HETATM   21  H   UNL     1      -6.909   8.926  73.060  1.00  0.00     0.000 HD 
ENDBRANCH   3  12
TORSDOF 1
ENDMDL
MODEL      202
REMARK 921   NORMALIZED FREE ENERGY PREDICTED BY IDOCK:   -3.07 KCAL/MOL
REMARK 922        TOTAL FREE ENERGY PREDICTED BY IDOCK:   -2.43 KCAL/MOL
REMARK 923 INTER-LIGAND FREE ENERGY PREDICTED BY IDOCK:   -2.53 KCAL/MOL
REMARK 924 INTRA-LIGAND FREE ENERGY PREDICTED BY IDOCK:    0.10 KCAL/MOL
REMARK 927      BINDING AFFINITY PREDICTED BY RF-SCORE:    0.00 PKD
ROOT
HETATM    1  C   UNL     1      -6.938   8.126  67.548  1.00  0.00    -0.075 C  
HETATM    2  C   UNL     1      -7.791   9.405  67.483  1.00  0.00    -0.099 C  
HETATM    3  C   UNL     1      -8.141   9.930  68.910  1.00  0.00    -0.105 C  
HETATM    4  N   UNL     1      -7.056  10.433  66.676  1.00  0.00    -0.106 NA 
HETATM    5  C   UNL     1      -9.139   9.224  66.716  1.00  0.00    -0.140 C  
HETATM    6  H2  UNL     1      -5.191  10.033  67.370  1.00  0.00     0.000 HD 
HETATM    7  H   UNL     1      -7.651  11.247  66.519  1.00  0.00     0.000 HD 
HETATM    8  O   UNL     1      -9.939  10.147  66.580  1.00  0.00    -0.204 OA 
HETATM    9  O   UNL     1      -9.392   8.017  66.166  1.00  0.00    -0.192 OA 
HETATM   10  N   UNL     1      -5.786  10.846  67.214  1.00  0.00    -0.046 NA 
HETATM   11  H1  UNL     1      -5.286  11.546  66.664  1.00  0.00     0.000 HD 
ENDROOT
BRANCH   3  12
HETATM   12  C   UNL     1      -8.942   8.976  69.778  1.00  0.00    -0.157 A  
HETATM   13  C   UNL     1      -8.353   7.809  70.293  1.00  0.00    -0.127 A  
HETATM   14  C   UNL     1      -9.119   6.930  71.053  1.00  0.00    -0.155 A  
HETATM   15  C   UNL     1     -10.457   7.207  71.319  1.00  0.00    -0.205 A  
HETATM   16  O   UNL     1      -8.601   5.768  71.556  1.00  0.00    -0.130 OA 
HETATM   17  H   UNL     1      -9.124   5.168  72.075  1.00  0.00     0.000 HD 
HETATM   18  C   UNL     1     -11.050   8.361  70.835  1.00  0.00    -0.289 A  
HETATM   19  O   UNL     1     -11.201   6.336  72.061  1.00  0.00    -0.252 OA 
HETATM   20  C   UNL     1     -10.292   9.247  70.066  1.00  0.00    -0.245 A  
HETATM   21  H   UNL     1     -12.114   6.526  72.243  1.00  0.00     0.000 HD 
ENDBRANCH   3  12
TORSDOF 1
ENDMDL
MODEL      203
REMARK 921   NORMALIZED FREE ENERGY PREDICTED BY IDOCK:   -3.05 KCAL/MOL
REMARK 922        TOTAL FREE ENERGY PREDICTED BY IDOCK:   -2.41 KCAL/MOL
REMARK 923 INTER-LIGAND FREE ENERGY PREDICTED BY IDOCK:   -2.56 KCAL/MOL
REMARK 924 INTRA-LIGAND FREE ENERGY PREDICTED BY IDOCK:    0.16 KCAL/MOL
REMARK 927      BINDING AFFINITY PREDICTED BY RF-SCORE:    0.00 PKD
ROOT
HETATM    1  C   UNL     1      -9.991   7.565  72.238  1.00  0.00    -0.226 C  
HETATM    2  C   UNL     1     -10.297   8.280  70.910  1.00  0.00    -0.192 C  
HETATM    3  C   UNL     1     -10.361   7.270  69.722  1.00  0.00    -0.227 C  
HETATM    4  N   UNL     1     -11.577   9.046  71.059  1.00  0.00    -0.288 NA 
HETATM    5  C   UNL     1      -9.250   9.373  70.528  1.00  0.00    -0.259 C  
HETATM    6  H2  UNL     1     -12.579   7.676  72.170  1.00  0.00     0.000 HD 
HETATM    7  H   UNL     1     -11.739   9.621  70.232  1.00  0.00     0.000 HD 
HETATM    8  O   UNL     1      -9.344  10.031  69.494  1.00  0.00    -0.207 OA 
HETATM    9  O   UNL     1      -8.241   9.608  71.393  1.00  0.00    -0.124 OA 
HETATM   10  N   UNL     1     -12.742   8.250  71.343  1.00  0.00    -0.405 NA 
HETATM   11  H1  UNL     1     -13.613   8.773  71.444  1.00  0.00     0.000 HD 
ENDROOT
BRANCH   3  12
HETATM   12  C   UNL     1      -9.084   6.492  69.457  1.00  0.00    -0.140 A  
HETATM   13  C   UNL     1      -8.958   5.156  69.874  1.00  0.00    -0.139 A  
HETATM   14  C   UNL     1      -7.763   4.476  69.655  1.00  0.00    -0.054 A  
HETATM   15  C   UNL     1      -6.700   5.105  69.013  1.00  0.00    -0.053 A  
HETATM   16  O   UNL     1      -7.581   3.184  70.064  1.00  0.00    -0.044 OA 
HETATM   17  H   UNL     1      -6.765   2.720  69.914  1.00  0.00     0.000 HD 
HETATM   18  C   UNL     1      -6.812   6.416  68.578  1.00  0.00    -0.071 A  
HETATM   19  O   UNL     1      -5.532   4.432  68.807  1.00  0.00    -0.011 OA 
HETATM   20  C   UNL     1      -8.004   7.109  68.799  1.00  0.00    -0.123 A  
HETATM   21  H   UNL     1      -4.806   4.862  68.368  1.00  0.00     0.000 HD 
ENDBRANCH   3  12
TORSDOF 1
ENDMDL
MODEL      204
REMARK 921   NORMALIZED FREE ENERGY PREDICTED BY IDOCK:   -3.02 KCAL/MOL
REMARK 922        TOTAL FREE ENERGY PREDICTED BY IDOCK:   -2.38 KCAL/MOL
REMARK 923 INTER-LIGAND FREE ENERGY PREDICTED BY IDOCK:   -2.54 KCAL/MOL
REMARK 924 INTRA-LIGAND FREE ENERGY PREDICTED BY IDOCK:    0.16 KCAL/MOL
REMARK 927      BINDING AFFINITY PREDICTED BY RF-SCORE:    0.00 PKD
ROOT
HETATM    1  C   UNL     1      -8.665  11.079  68.325  1.00  0.00    -0.144 C  
HETATM    2  C   UNL     1      -9.075   9.627  68.630  1.00  0.00    -0.132 C  
HETATM    3  C   UNL     1      -8.071   8.608  68.006  1.00  0.00    -0.111 C  
HETATM    4  N   UNL     1      -9.187   9.460  70.116  1.00  0.00    -0.217 NA 
HETATM    5  C   UNL     1     -10.497   9.251  68.105  1.00  0.00    -0.215 C  
HETATM    6  H2  UNL     1      -7.587  10.596  70.632  1.00  0.00     0.000 HD 
HETATM    7  H   UNL     1      -9.570   8.541  70.337  1.00  0.00     0.000 HD 
HETATM    8  O   UNL     1     -10.972   8.128  68.260  1.00  0.00     0.025 OA 
HETATM    9  O   UNL     1     -11.219  10.217  67.498  1.00  0.00    -0.295 OA 
HETATM   10  N   UNL     1      -7.970   9.677  70.853  1.00  0.00    -0.354 NA 
HETATM   11  H1  UNL     1      -8.047   9.563  71.865  1.00  0.00     0.000 HD 
ENDROOT
BRANCH   3  12
HETATM   12  C   UNL     1      -7.940   8.663  66.494  1.00  0.00    -0.099 A  
HETATM   13  C   UNL     1      -8.249   7.542  65.706  1.00  0.00    -0.137 A  
HETATM   14  C   UNL     1      -8.083   7.604  64.326  1.00  0.00    -0.071 A  
HETATM   15  C   UNL     1      -7.630   8.773  63.720  1.00  0.00    -0.124 A  
HETATM   16  O   UNL     1      -8.345   6.532  63.517  1.00  0.00    -0.318 OA 
HETATM   17  H   UNL     1      -8.231   6.575  62.574  1.00  0.00     0.000 HD 
HETATM   18  C   UNL     1      -7.338   9.895  64.479  1.00  0.00    -0.140 A  
HETATM   19  O   UNL     1      -7.466   8.823  62.367  1.00  0.00    -0.101 OA 
HETATM   20  C   UNL     1      -7.495   9.841  65.866  1.00  0.00    -0.103 A  
HETATM   21  H   UNL     1      -7.157   9.621  61.954  1.00  0.00     0.000 HD 
ENDBRANCH   3  12
TORSDOF 1
ENDMDL
MODEL      205
REMARK 921   NORMALIZED FREE ENERGY PREDICTED BY IDOCK:   -2.96 KCAL/MOL
REMARK 922        TOTAL FREE ENERGY PREDICTED BY IDOCK:   -2.31 KCAL/MOL
REMARK 923 INTER-LIGAND FREE ENERGY PREDICTED BY IDOCK:   -2.37 KCAL/MOL
REMARK 924 INTRA-LIGAND FREE ENERGY PREDICTED BY IDOCK:    0.06 KCAL/MOL
REMARK 927      BINDING AFFINITY PREDICTED BY RF-SCORE:    0.00 PKD
ROOT
HETATM    1  C   UNL     1      -6.986   4.511  66.294  1.00  0.00    -0.063 C  
HETATM    2  C   UNL     1      -8.202   4.767  65.387  1.00  0.00    -0.118 C  
HETATM    3  C   UNL     1      -8.484   6.293  65.228  1.00  0.00    -0.113 C  
HETATM    4  N   UNL     1      -7.964   4.104  64.063  1.00  0.00    -0.087 NA 
HETATM    5  C   UNL     1      -9.521   4.107  65.901  1.00  0.00    -0.178 C  
HETATM    6  H2  UNL     1      -5.987   4.535  63.902  1.00  0.00     0.000 HD 
HETATM    7  H   UNL     1      -8.804   4.159  63.487  1.00  0.00     0.000 HD 
HETATM    8  O   UNL     1     -10.585   4.222  65.297  1.00  0.00    -0.248 OA 
HETATM    9  O   UNL     1      -9.455   3.366  67.028  1.00  0.00    -0.199 OA 
HETATM   10  N   UNL     1      -6.827   4.590  63.327  1.00  0.00    -0.038 NA 
HETATM   11  H1  UNL     1      -6.665   4.138  62.426  1.00  0.00     0.000 HD 
ENDROOT
BRANCH   3  12
HETATM   12  C   UNL     1      -8.798   7.036  66.514  1.00  0.00    -0.151 A  
HETATM   13  C   UNL     1      -7.765   7.476  67.360  1.00  0.00    -0.117 A  
HETATM   14  C   UNL     1      -8.080   8.120  68.553  1.00  0.00    -0.124 A  
HETATM   15  C   UNL     1      -9.408   8.345  68.906  1.00  0.00    -0.147 A  
HETATM   16  O   UNL     1      -7.113   8.544  69.423  1.00  0.00    -0.052 OA 
HETATM   17  H   UNL     1      -7.329   8.983  70.238  1.00  0.00     0.000 HD 
HETATM   18  C   UNL     1     -10.439   7.935  68.076  1.00  0.00    -0.245 A  
HETATM   19  O   UNL     1      -9.707   8.973  70.079  1.00  0.00    -0.170 OA 
HETATM   20  C   UNL     1     -10.134   7.282  66.880  1.00  0.00    -0.317 A  
HETATM   21  H   UNL     1     -10.613   9.126  70.320  1.00  0.00     0.000 HD 
ENDBRANCH   3  12
TORSDOF 1
ENDMDL
MODEL      206
REMARK 921   NORMALIZED FREE ENERGY PREDICTED BY IDOCK:   -2.63 KCAL/MOL
REMARK 922        TOTAL FREE ENERGY PREDICTED BY IDOCK:   -1.97 KCAL/MOL
REMARK 923 INTER-LIGAND FREE ENERGY PREDICTED BY IDOCK:   -1.99 KCAL/MOL
REMARK 924 INTRA-LIGAND FREE ENERGY PREDICTED BY IDOCK:    0.02 KCAL/MOL
REMARK 927      BINDING AFFINITY PREDICTED BY RF-SCORE:    0.00 PKD
ROOT
HETATM    1  C   UNL     1     -11.267   8.884  68.768  1.00  0.00     0.325 C  
HETATM    2  C   UNL     1     -10.605   7.611  69.327  1.00  0.00    -0.201 C  
HETATM    3  C   UNL     1      -9.224   7.928  69.980  1.00  0.00    -0.153 C  
HETATM    4  N   UNL     1     -11.546   6.965  70.299  1.00  0.00    -0.471 NA 
HETATM    5  C   UNL     1     -10.362   6.505  68.252  1.00  0.00    -0.190 C  
HETATM    6  H2  UNL     1     -12.249   8.664  71.157  1.00  0.00     0.000 HD 
HETATM    7  H   UNL     1     -11.179   6.060  70.593  1.00  0.00     0.000 HD 
HETATM    8  O   UNL     1      -9.835   5.431  68.531  1.00  0.00    -0.130 OA 
HETATM    9  O   UNL     1     -10.784   6.748  66.993  1.00  0.00    -0.303 OA 
HETATM   10  N   UNL     1     -11.882   7.759  71.451  1.00  0.00    -0.290 NA 
HETATM   11  H1  UNL     1     -12.523   7.319  72.112  1.00  0.00     0.000 HD 
ENDROOT
BRANCH   3  12
HETATM   12  C   UNL     1      -8.184   8.528  69.051  1.00  0.00    -0.116 A  
HETATM   13  C   UNL     1      -7.241   7.710  68.405  1.00  0.00    -0.090 A  
HETATM   14  C   UNL     1      -6.273   8.289  67.589  1.00  0.00    -0.052 A  
HETATM   15  C   UNL     1      -6.243   9.667  67.396  1.00  0.00    -0.064 A  
HETATM   16  O   UNL     1      -5.317   7.540  66.959  1.00  0.00    -0.024 OA 
HETATM   17  H   UNL     1      -4.656   7.935  66.402  1.00  0.00     0.000 HD 
HETATM   18  C   UNL     1      -7.175  10.487  68.010  1.00  0.00    -0.087 A  
HETATM   19  O   UNL     1      -5.287  10.225  66.598  1.00  0.00    -0.039 OA 
HETATM   20  C   UNL     1      -8.147   9.918  68.836  1.00  0.00    -0.105 A  
HETATM   21  H   UNL     1      -5.267  11.165  66.466  1.00  0.00     0.000 HD 
ENDBRANCH   3  12
TORSDOF 1
ENDMDL
MODEL      207
REMARK 921   NORMALIZED FREE ENERGY PREDICTED BY IDOCK:   -2.61 KCAL/MOL
REMARK 922        TOTAL FREE ENERGY PREDICTED BY IDOCK:   -1.94 KCAL/MOL
REMARK 923 INTER-LIGAND FREE ENERGY PREDICTED BY IDOCK:   -1.97 KCAL/MOL
REMARK 924 INTRA-LIGAND FREE ENERGY PREDICTED BY IDOCK:    0.02 KCAL/MOL
REMARK 927      BINDING AFFINITY PREDICTED BY RF-SCORE:    0.00 PKD
ROOT
HETATM    1  C   UNL     1      -9.770   9.625  67.332  1.00  0.00    -0.198 C  
HETATM    2  C   UNL     1      -8.426   9.298  66.656  1.00  0.00    -0.126 C  
HETATM    3  C   UNL     1      -8.178   7.759  66.596  1.00  0.00    -0.123 C  
HETATM    4  N   UNL     1      -8.409   9.919  65.291  1.00  0.00    -0.141 NA 
HETATM    5  C   UNL     1      -7.192   9.935  67.370  1.00  0.00    -0.086 C  
HETATM    6  H2  UNL     1     -10.344   9.544  64.805  1.00  0.00     0.000 HD 
HETATM    7  H   UNL     1      -7.486   9.816  64.871  1.00  0.00     0.000 HD 
HETATM    8  O   UNL     1      -6.045   9.765  66.962  1.00  0.00    -0.061 OA 
HETATM    9  O   UNL     1      -7.422  10.720  68.444  1.00  0.00    -0.087 OA 
HETATM   10  N   UNL     1      -9.420   9.441  64.385  1.00  0.00    -0.388 NA 
HETATM   11  H1  UNL     1      -9.409   9.864  63.456  1.00  0.00     0.000 HD 
ENDROOT
BRANCH   3  12
HETATM   12  C   UNL     1      -8.116   7.055  67.940  1.00  0.00    -0.115 A  
HETATM   13  C   UNL     1      -6.884   6.839  68.580  1.00  0.00    -0.066 A  
HETATM   14  C   UNL     1      -6.850   6.155  69.793  1.00  0.00    -0.068 A  
HETATM   15  C   UNL     1      -8.026   5.701  70.381  1.00  0.00    -0.104 A  
HETATM   16  O   UNL     1      -5.675   5.896  70.444  1.00  0.00    -0.012 OA 
HETATM   17  H   UNL     1      -5.651   5.430  71.271  1.00  0.00     0.000 HD 
HETATM   18  C   UNL     1      -9.252   5.921  69.774  1.00  0.00    -0.160 A  
HETATM   19  O   UNL     1      -7.982   5.028  71.568  1.00  0.00    -0.106 OA 
HETATM   20  C   UNL     1      -9.297   6.599  68.554  1.00  0.00    -0.125 A  
HETATM   21  H   UNL     1      -8.785   4.718  71.969  1.00  0.00     0.000 HD 
ENDBRANCH   3  12
TORSDOF 1
ENDMDL
MODEL      208
REMARK 921   NORMALIZED FREE ENERGY PREDICTED BY IDOCK:   -1.53 KCAL/MOL
REMARK 922        TOTAL FREE ENERGY PREDICTED BY IDOCK:   -0.80 KCAL/MOL
REMARK 923 INTER-LIGAND FREE ENERGY PREDICTED BY IDOCK:   -1.49 KCAL/MOL
REMARK 924 INTRA-LIGAND FREE ENERGY PREDICTED BY IDOCK:    0.69 KCAL/MOL
REMARK 927      BINDING AFFINITY PREDICTED BY RF-SCORE:    0.00 PKD
ROOT
HETATM    1  C   UNL     1      -7.518   6.465  67.830  1.00  0.00    -0.094 C  
HETATM    2  C   UNL     1      -7.515   7.859  68.483  1.00  0.00    -0.096 C  
HETATM    3  C   UNL     1      -6.597   7.896  69.744  1.00  0.00    -0.034 C  
HETATM    4  N   UNL     1      -7.095   8.870  67.458  1.00  0.00    -0.075 NA 
HETATM    5  C   UNL     1      -8.930   8.347  68.929  1.00  0.00    -0.146 C  
HETATM    6  H2  UNL     1      -5.666   7.751  66.551  1.00  0.00     0.000 HD 
HETATM    7  H   UNL     1      -7.199   9.813  67.834  1.00  0.00     0.000 HD 
HETATM    8  O   UNL     1      -9.101   9.435  69.474  1.00  0.00    -0.145 OA 
HETATM    9  O   UNL     1      -9.984   7.546  68.666  1.00  0.00    -0.162 OA 
HETATM   10  N   UNL     1      -5.770   8.694  66.927  1.00  0.00    -0.041 NA 
HETATM   11  H1  UNL     1      -5.484   9.382  66.229  1.00  0.00     0.000 HD 
ENDROOT
BRANCH   3  12
HETATM   12  C   UNL     1      -6.987   6.946  70.863  1.00  0.00    -0.066 A  
HETATM   13  C   UNL     1      -7.771   5.810  70.599  1.00  0.00    -0.093 A  
HETATM   14  C   UNL     1      -8.149   4.976  71.647  1.00  0.00    -0.114 A  
HETATM   15  C   UNL     1      -7.742   5.250  72.950  1.00  0.00    -0.098 A  
HETATM   16  O   UNL     1      -8.933   3.872  71.448  1.00  0.00    -0.099 OA 
HETATM   17  H   UNL     1      -9.190   3.303  72.164  1.00  0.00     0.000 HD 
HETATM   18  C   UNL     1      -6.954   6.355  73.227  1.00  0.00    -0.078 A  
HETATM   19  O   UNL     1      -8.121   4.429  73.972  1.00  0.00    -0.091 OA 
HETATM   20  C   UNL     1      -6.575   7.202  72.183  1.00  0.00    -0.055 A  
HETATM   21  H   UNL     1      -7.843   4.617  74.861  1.00  0.00     0.000 HD 
ENDBRANCH   3  12
TORSDOF 1
ENDMDL
MODEL      209
REMARK 921   NORMALIZED FREE ENERGY PREDICTED BY IDOCK:    3.51 KCAL/MOL
REMARK 922        TOTAL FREE ENERGY PREDICTED BY IDOCK:    4.53 KCAL/MOL
REMARK 923 INTER-LIGAND FREE ENERGY PREDICTED BY IDOCK:    4.43 KCAL/MOL
REMARK 924 INTRA-LIGAND FREE ENERGY PREDICTED BY IDOCK:    0.11 KCAL/MOL
REMARK 927      BINDING AFFINITY PREDICTED BY RF-SCORE:    0.00 PKD
ROOT
HETATM    1  C   UNL     1      -7.551  12.122  69.786  1.00  0.00     1.071 C  
HETATM    2  C   UNL     1      -7.718  11.434  68.419  1.00  0.00    -0.127 C  
HETATM    3  C   UNL     1      -8.749  12.189  67.524  1.00  0.00    -0.173 C  
HETATM    4  N   UNL     1      -6.374  11.337  67.761  1.00  0.00    -0.054 NA 
HETATM    5  C   UNL     1      -8.193   9.950  68.517  1.00  0.00    -0.106 C  
HETATM    6  H2  UNL     1      -5.667  13.151  68.333  1.00  0.00     0.000 HD 
HETATM    7  H   UNL     1      -6.441  10.781  66.909  1.00  0.00     0.000 HD 
HETATM    8  O   UNL     1      -8.383   9.261  67.517  1.00  0.00    -0.117 OA 
HETATM    9  O   UNL     1      -8.360   9.422  69.748  1.00  0.00    -0.126 OA 
HETATM   10  N   UNL     1      -5.734  12.595  67.481  1.00  0.00    -0.168 NA 
HETATM   11  H1  UNL     1      -4.819  12.529  67.033  1.00  0.00     0.000 HD 
ENDROOT
BRANCH   3  12
HETATM   12  C   UNL     1     -10.157  12.281  68.085  1.00  0.00    -0.211 A  
HETATM   13  C   UNL     1     -10.579  13.427  68.781  1.00  0.00    -0.230 A  
HETATM   14  C   UNL     1     -11.861  13.471  69.320  1.00  0.00    -0.341 A  
HETATM   15  C   UNL     1     -12.732  12.397  69.161  1.00  0.00     0.988 A  
HETATM   16  O   UNL     1     -12.311  14.552  70.028  1.00  0.00    -0.321 OA 
HETATM   17  H   UNL     1     -13.187  14.582  70.396  1.00  0.00     0.000 HD 
HETATM   18  C   UNL     1     -12.340  11.266  68.463  1.00  0.00     0.302 A  
HETATM   19  O   UNL     1     -13.986  12.448  69.698  1.00  0.00     4.373 OA 
HETATM   20  C   UNL     1     -11.054  11.209  67.923  1.00  0.00    -0.331 A  
HETATM   21  H   UNL     1     -14.580  11.714  69.589  1.00  0.00     0.000 HD 
ENDBRANCH   3  12
TORSDOF 1
ENDMDL
MODEL      210
REMARK 921   NORMALIZED FREE ENERGY PREDICTED BY IDOCK:    8.01 KCAL/MOL
REMARK 922        TOTAL FREE ENERGY PREDICTED BY IDOCK:    9.29 KCAL/MOL
REMARK 923 INTER-LIGAND FREE ENERGY PREDICTED BY IDOCK:    9.01 KCAL/MOL
REMARK 924 INTRA-LIGAND FREE ENERGY PREDICTED BY IDOCK:    0.28 KCAL/MOL
REMARK 927      BINDING AFFINITY PREDICTED BY RF-SCORE:    0.00 PKD
ROOT
HETATM    1  C   UNL     1      -7.834  20.533  68.451  1.00  0.00     0.198 C  
HETATM    2  C   UNL     1      -8.090  19.792  69.775  1.00  0.00     0.576 C  
HETATM    3  C   UNL     1      -8.179  18.250  69.557  1.00  0.00     0.598 C  
HETATM    4  N   UNL     1      -7.009  20.156  70.748  1.00  0.00     0.028 NA 
HETATM    5  C   UNL     1      -9.404  20.230  70.497  1.00  0.00     1.502 C  
HETATM    6  H2  UNL     1      -5.463  20.171  69.433  1.00  0.00     0.000 HD 
HETATM    7  H   UNL     1      -7.222  19.771  71.668  1.00  0.00     0.000 HD 
HETATM    8  O   UNL     1      -9.759  19.730  71.562  1.00  0.00     1.854 OA 
HETATM    9  O   UNL     1     -10.135  21.214  69.930  1.00  0.00     1.115 OA 
HETATM   10  N   UNL     1      -5.676  19.786  70.353  1.00  0.00    -0.254 NA 
HETATM   11  H1  UNL     1      -4.940  20.034  71.016  1.00  0.00     0.000 HD 
ENDROOT
BRANCH   3  12
HETATM   12  C   UNL     1      -9.290  17.784  68.632  1.00  0.00    -0.275 A  
HETATM   13  C   UNL     1      -8.991  17.211  67.384  1.00  0.00    -0.223 A  
HETATM   14  C   UNL     1     -10.027  16.828  66.537  1.00  0.00    -0.298 A  
HETATM   15  C   UNL     1     -11.354  16.994  66.924  1.00  0.00     0.662 A  
HETATM   16  O   UNL     1      -9.790  16.291  65.302  1.00  0.00    -0.470 OA 
HETATM   17  H   UNL     1     -10.498  16.029  64.724  1.00  0.00     0.000 HD 
HETATM   18  C   UNL     1     -11.668  17.539  68.159  1.00  0.00     1.280 A  
HETATM   19  O   UNL     1     -12.363  16.619  66.085  1.00  0.00     2.658 OA 
HETATM   20  C   UNL     1     -10.636  17.933  69.013  1.00  0.00     0.058 A  
HETATM   21  H   UNL     1     -13.268  16.732  66.350  1.00  0.00     0.000 HD 
ENDBRANCH   3  12
TORSDOF 1
ENDMDL
MODEL      211
REMARK 921   NORMALIZED FREE ENERGY PREDICTED BY IDOCK:   13.42 KCAL/MOL
REMARK 922        TOTAL FREE ENERGY PREDICTED BY IDOCK:   15.02 KCAL/MOL
REMARK 923 INTER-LIGAND FREE ENERGY PREDICTED BY IDOCK:   14.04 KCAL/MOL
REMARK 924 INTRA-LIGAND FREE ENERGY PREDICTED BY IDOCK:    0.98 KCAL/MOL
REMARK 927      BINDING AFFINITY PREDICTED BY RF-SCORE:    0.00 PKD
ROOT
HETATM    1  C   UNL     1      -9.529  16.791  65.872  1.00  0.00    -0.185 C  
HETATM    2  C   UNL     1      -9.206  15.348  66.300  1.00  0.00    -0.319 C  
HETATM    3  C   UNL     1      -9.275  15.184  67.850  1.00  0.00    -0.184 C  
HETATM    4  N   UNL     1     -10.148  14.415  65.599  1.00  0.00    -0.339 NA 
HETATM    5  C   UNL     1      -7.794  14.859  65.848  1.00  0.00     2.896 C  
HETATM    6  H2  UNL     1     -11.811  15.571  65.729  1.00  0.00     0.000 HD 
HETATM    7  H   UNL     1      -9.879  13.448  65.775  1.00  0.00     0.000 HD 
HETATM    8  O   UNL     1      -7.378  13.734  66.116  1.00  0.00     1.959 OA 
HETATM    9  O   UNL     1      -7.040  15.705  65.114  1.00  0.00     5.793 OA 
HETATM   10  N   UNL     1     -11.542  14.603  65.905  1.00  0.00    -0.349 NA 
HETATM   11  H1  UNL     1     -12.183  13.968  65.427  1.00  0.00     0.000 HD 
ENDROOT
BRANCH   3  12
HETATM   12  C   UNL     1      -8.308  16.047  68.641  1.00  0.00    -0.203 A  
HETATM   13  C   UNL     1      -7.190  16.627  68.018  1.00  0.00    -0.162 A  
HETATM   14  C   UNL     1      -6.296  17.381  68.774  1.00  0.00    -0.188 A  
HETATM   15  C   UNL     1      -6.511  17.577  70.135  1.00  0.00     0.376 A  
HETATM   16  O   UNL     1      -5.179  17.945  68.221  1.00  0.00    -0.151 OA 
HETATM   17  H   UNL     1      -4.569  18.461  68.737  1.00  0.00     0.000 HD 
HETATM   18  C   UNL     1      -7.617  17.028  70.762  1.00  0.00     4.176 A  
HETATM   19  O   UNL     1      -5.627  18.314  70.867  1.00  0.00    -0.203 OA 
HETATM   20  C   UNL     1      -8.517  16.264  70.015  1.00  0.00     1.124 A  
HETATM   21  H   UNL     1      -5.774  18.448  71.797  1.00  0.00     0.000 HD 
ENDBRANCH   3  12
TORSDOF 1
ENDMDL
MODEL      212
REMARK 921   NORMALIZED FREE ENERGY PREDICTED BY IDOCK:   31.00 KCAL/MOL
REMARK 922        TOTAL FREE ENERGY PREDICTED BY IDOCK:   33.64 KCAL/MOL
REMARK 923 INTER-LIGAND FREE ENERGY PREDICTED BY IDOCK:   33.52 KCAL/MOL
REMARK 924 INTRA-LIGAND FREE ENERGY PREDICTED BY IDOCK:    0.11 KCAL/MOL
REMARK 927      BINDING AFFINITY PREDICTED BY RF-SCORE:    0.00 PKD
ROOT
HETATM    1  C   UNL     1     -11.886  10.812  68.633  1.00  0.00    -0.208 C  
HETATM    2  C   UNL     1     -12.250   9.369  68.240  1.00  0.00     3.580 C  
HETATM    3  C   UNL     1     -13.673   8.982  68.750  1.00  0.00    10.631 C  
HETATM    4  N   UNL     1     -12.134   9.231  66.752  1.00  0.00     4.169 NA 
HETATM    5  C   UNL     1     -11.257   8.298  68.792  1.00  0.00     0.516 C  
HETATM    6  H2  UNL     1     -12.894  11.046  66.257  1.00  0.00     0.000 HD 
HETATM    7  H   UNL     1     -12.255   8.255  66.480  1.00  0.00     0.000 HD 
HETATM    8  O   UNL     1     -11.408   7.098  68.576  1.00  0.00     0.098 OA 
HETATM    9  O   UNL     1     -10.190   8.733  69.495  1.00  0.00    -0.197 OA 
HETATM   10  N   UNL     1     -13.016  10.070  65.985  1.00  0.00    10.593 NA 
HETATM   11  H1  UNL     1     -12.937   9.976  64.972  1.00  0.00     0.000 HD 
ENDROOT
BRANCH   3  12
HETATM   12  C   UNL     1     -13.864   9.032  70.255  1.00  0.00     1.380 A  
HETATM   13  C   UNL     1     -13.852  10.260  70.939  1.00  0.00     0.464 A  
HETATM   14  C   UNL     1     -13.990  10.278  72.324  1.00  0.00     0.299 A  
HETATM   15  C   UNL     1     -14.154   9.091  73.033  1.00  0.00     0.268 A  
HETATM   16  O   UNL     1     -13.959  11.444  73.039  1.00  0.00     0.658 OA 
HETATM   17  H   UNL     1     -14.053  11.455  73.985  1.00  0.00     0.000 HD 
HETATM   18  C   UNL     1     -14.186   7.873  72.374  1.00  0.00    -0.148 A  
HETATM   19  O   UNL     1     -14.283   9.118  74.391  1.00  0.00     1.525 OA 
HETATM   20  C   UNL     1     -14.043   7.843  70.985  1.00  0.00    -0.104 A  
HETATM   21  H   UNL     1     -14.395   8.308  74.874  1.00  0.00     0.000 HD 
ENDBRANCH   3  12
TORSDOF 1
ENDMDL
