MODEL        1
REMARK 921   NORMALIZED FREE ENERGY PREDICTED BY IDOCK:   -6.79 KCAL/MOL
REMARK 922        TOTAL FREE ENERGY PREDICTED BY IDOCK:  -17.56 KCAL/MOL
REMARK 923 INTER-LIGAND FREE ENERGY PREDICTED BY IDOCK:  -13.93 KCAL/MOL
REMARK 924 INTRA-LIGAND FREE ENERGY PREDICTED BY IDOCK:   -3.63 KCAL/MOL
REMARK 927      BINDING AFFINITY PREDICTED BY RF-SCORE:    0.00 PKD
ROOT
HETATM    1  C   UNL     1     -11.519  15.730  71.161  1.00  0.00    -0.466 C  
HETATM    2  C   UNL     1     -12.472  14.533  71.199  1.00  0.00    -0.411 C  
HETATM    3  C   UNL     1     -12.638  13.804  69.848  1.00  0.00    -0.147 C  
HETATM    4  C   UNL     1     -13.832  14.994  71.734  1.00  0.00    -0.576 C  
ENDROOT
BRANCH   3   5
HETATM    5  C   UNL     1     -11.348  13.205  69.249  1.00  0.00    -0.253 C  
BRANCH   5   6
HETATM    6  C   UNL     1     -11.350  11.691  68.923  1.00  0.00    -0.267 C  
HETATM    7  H   UNL     1      -9.363  11.550  69.452  1.00  0.00     0.000 HD 
HETATM    8  N   UNL     1     -10.203  11.010  69.246  1.00  0.00    -0.175 N  
HETATM    9  O   UNL     1     -12.361  11.127  68.508  1.00  0.00    -0.561 OA 
BRANCH   8  10
HETATM   10  C   UNL     1     -10.121   9.547  69.310  1.00  0.00    -0.198 C  
BRANCH  10  11
HETATM   11  C   UNL     1      -8.912   8.921  68.579  1.00  0.00    -0.134 C  
BRANCH  11  12
HETATM   12  C   UNL     1      -9.265   7.603  67.930  1.00  0.00    -0.139 A  
HETATM   13  C   UNL     1     -10.547   7.391  67.405  1.00  0.00    -0.371 A  
HETATM   14  C   UNL     1      -8.775   5.253  67.640  1.00  0.00    -0.106 A  
HETATM   15  C   UNL     1      -8.365   6.535  67.994  1.00  0.00    -0.116 A  
HETATM   16  C   UNL     1     -10.075   5.036  67.189  1.00  0.00    -0.239 A  
HETATM   17  C   UNL     1     -10.954   6.108  67.049  1.00  0.00    -0.414 A  
ENDBRANCH  11  12
ENDBRANCH  10  11
BRANCH  10  18
HETATM   18  C   UNL     1     -10.159   9.136  70.808  1.00  0.00    -0.268 C  
HETATM   19  N   UNL     1      -9.166   8.257  71.179  1.00  0.00    -0.152 N  
HETATM   20  O   UNL     1     -11.018   9.528  71.596  1.00  0.00    -0.362 OA 
HETATM   21  H   UNL     1      -8.469   8.002  70.480  1.00  0.00     0.000 HD 
BRANCH  19  22
HETATM   22  C   UNL     1      -9.048   7.666  72.512  1.00  0.00    -0.155 C  
BRANCH  22  23
HETATM   23  C   UNL     1      -7.664   8.091  73.024  1.00  0.00    -0.144 C  
HETATM   24  O   UNL     1      -7.482   8.476  74.178  1.00  0.00    -0.309 OA 
BRANCH  23  25
HETATM   25  C   UNL     1      -6.501   8.020  72.092  1.00  0.00    -0.057 C  
HETATM   26  O   UNL     1      -6.589   7.011  71.073  1.00  0.00    -0.047 OA 
HETATM   27  C   UNL     1      -5.807   9.272  71.656  1.00  0.00    -0.070 C  
HETATM   28  C   UNL     1      -5.672   6.744  72.141  1.00  0.00    -0.038 C  
ENDBRANCH  23  25
ENDBRANCH  22  23
BRANCH  22  29
HETATM   29  C   UNL     1      -9.227   6.137  72.522  1.00  0.00    -0.137 C  
HETATM   30  C   UNL     1      -9.793   5.478  71.243  1.00  0.00    -0.228 C  
HETATM   31  C   UNL     1      -9.835   3.954  71.419  1.00  0.00    -0.243 C  
HETATM   32  C   UNL     1     -11.195   5.948  70.845  1.00  0.00    -0.278 C  
ENDBRANCH  22  29
ENDBRANCH  19  22
ENDBRANCH  10  18
ENDBRANCH   8  10
ENDBRANCH   5   6
BRANCH   5  33
HETATM   33  N   UNL     1     -10.869  13.941  68.074  1.00  0.00    -0.242 N  
HETATM   34  H   UNL     1      -9.942  14.364  68.115  1.00  0.00     0.000 HD 
HETATM   35  O   UNL     1     -12.729  13.622  66.765  1.00  0.00    -0.156 OA 
HETATM   36  C   UNL     1     -11.602  14.090  66.918  1.00  0.00    -0.386 C  
BRANCH  36  37
HETATM   37  C   UNL     1     -10.883  14.873  65.801  1.00  0.00    -0.339 C  
BRANCH  37  38
HETATM   38  N   UNL     1     -10.215  16.054  66.357  1.00  0.00    -0.291 N  
HETATM   39  O   UNL     1     -11.151  17.389  64.774  1.00  0.00    -0.973 OA 
HETATM   40  C   UNL     1     -10.421  17.276  65.769  1.00  0.00    -0.229 C  
HETATM   41  H   UNL     1      -9.606  15.967  67.171  1.00  0.00     0.000 HD 
BRANCH  40  42
HETATM   42  C   UNL     1      -9.778  18.519  66.393  1.00  0.00    -0.336 C  
BRANCH  42  43
HETATM   43  N   UNL     1      -8.409  18.858  65.937  1.00  0.00    -0.463 NA 
HETATM   44  C   UNL     1      -7.328  19.872  68.049  1.00  0.00    -0.297 C  
HETATM   45  C   UNL     1      -7.500  17.713  66.237  1.00  0.00    -0.305 C  
HETATM   46  O   UNL     1      -6.539  18.693  68.242  1.00  0.00    -0.214 OA 
HETATM   47  C   UNL     1      -7.209  17.535  67.739  1.00  0.00    -0.177 C  
HETATM   48  C   UNL     1      -7.824  20.050  66.597  1.00  0.00    -0.308 C  
ENDBRANCH  42  43
ENDBRANCH  40  42
ENDBRANCH  37  38
BRANCH  37  49
HETATM   49  C   UNL     1      -9.916  13.927  65.081  1.00  0.00    -0.249 C  
BRANCH  49  50
HETATM   50  C   UNL     1     -10.673  13.039  64.081  1.00  0.00    -0.429 C  
BRANCH  50  51
HETATM   51  C   UNL     1     -10.056  11.673  63.947  1.00  0.00    -0.395 A  
HETATM   52  C   UNL     1      -9.734  10.926  65.086  1.00  0.00    -0.312 A  
HETATM   53  C   UNL     1      -9.165   9.659  64.958  1.00  0.00    -0.310 A  
HETATM   54  C   UNL     1      -9.241   9.862  62.554  1.00  0.00    -0.307 A  
HETATM   55  C   UNL     1      -9.809  11.131  62.679  1.00  0.00    -0.166 A  
HETATM   56  C   UNL     1      -8.920   9.127  63.693  1.00  0.00     0.015 A  
ENDBRANCH  50  51
ENDBRANCH  49  50
ENDBRANCH  37  49
ENDBRANCH  36  37
ENDBRANCH   5  33
ENDBRANCH   3   5
TORSDOF 18
ENDMDL
MODEL        2
REMARK 921   NORMALIZED FREE ENERGY PREDICTED BY IDOCK:   -6.49 KCAL/MOL
REMARK 922        TOTAL FREE ENERGY PREDICTED BY IDOCK:  -16.96 KCAL/MOL
REMARK 923 INTER-LIGAND FREE ENERGY PREDICTED BY IDOCK:  -13.83 KCAL/MOL
REMARK 924 INTRA-LIGAND FREE ENERGY PREDICTED BY IDOCK:   -3.12 KCAL/MOL
REMARK 927      BINDING AFFINITY PREDICTED BY RF-SCORE:    0.00 PKD
ROOT
HETATM    1  C   UNL     1      -7.417   9.670  64.991  1.00  0.00    -0.116 C  
HETATM    2  C   UNL     1      -8.459  10.590  64.348  1.00  0.00    -0.130 C  
HETATM    3  C   UNL     1      -9.919  10.113  64.508  1.00  0.00    -0.275 C  
HETATM    4  C   UNL     1      -8.112  10.778  62.867  1.00  0.00    -0.060 C  
ENDROOT
BRANCH   3   5
HETATM    5  C   UNL     1     -10.422   9.978  65.961  1.00  0.00    -0.074 C  
BRANCH   5   6
HETATM    6  C   UNL     1     -10.041   8.690  66.731  1.00  0.00    -0.296 C  
HETATM    7  H   UNL     1      -8.798   9.770  67.969  1.00  0.00     0.000 HD 
HETATM    8  N   UNL     1      -9.262   8.870  67.846  1.00  0.00    -0.138 N  
HETATM    9  O   UNL     1     -10.509   7.597  66.419  1.00  0.00    -0.099 OA 
BRANCH   8  10
HETATM   10  C   UNL     1      -9.061   7.839  68.869  1.00  0.00    -0.141 C  
BRANCH  10  11
HETATM   11  C   UNL     1      -7.653   7.202  68.897  1.00  0.00    -0.100 C  
BRANCH  11  12
HETATM   12  C   UNL     1      -7.698   5.719  68.618  1.00  0.00    -0.090 A  
HETATM   13  C   UNL     1      -7.452   5.231  67.327  1.00  0.00    -0.084 A  
HETATM   14  C   UNL     1      -8.438   3.517  69.290  1.00  0.00    -0.097 A  
HETATM   15  C   UNL     1      -8.141   4.838  69.609  1.00  0.00    -0.065 A  
HETATM   16  C   UNL     1      -8.263   3.058  67.986  1.00  0.00    -0.088 A  
HETATM   17  C   UNL     1      -7.747   3.908  67.010  1.00  0.00    -0.084 A  
ENDBRANCH  11  12
ENDBRANCH  10  11
BRANCH  10  18
HETATM   18  C   UNL     1      -9.437   8.456  70.244  1.00  0.00    -0.164 C  
HETATM   19  N   UNL     1      -9.975   7.558  71.140  1.00  0.00    -0.181 N  
HETATM   20  O   UNL     1      -9.302   9.649  70.510  1.00  0.00    -0.253 OA 
HETATM   21  H   UNL     1     -10.025   6.578  70.861  1.00  0.00     0.000 HD 
BRANCH  19  22
HETATM   22  C   UNL     1     -10.478   7.920  72.464  1.00  0.00    -0.300 C  
BRANCH  22  23
HETATM   23  C   UNL     1      -9.793   6.952  73.439  1.00  0.00    -0.218 C  
HETATM   24  O   UNL     1      -9.203   7.343  74.444  1.00  0.00    -0.204 OA 
BRANCH  23  25
HETATM   25  C   UNL     1      -9.860   5.488  73.161  1.00  0.00    -0.163 C  
HETATM   26  O   UNL     1     -10.901   5.078  72.260  1.00  0.00    -0.205 OA 
HETATM   27  C   UNL     1      -8.602   4.683  73.049  1.00  0.00    -0.113 C  
HETATM   28  C   UNL     1     -11.110   4.764  73.642  1.00  0.00    -0.304 C  
ENDBRANCH  23  25
ENDBRANCH  22  23
BRANCH  22  29
HETATM   29  C   UNL     1     -12.014   7.865  72.572  1.00  0.00    -0.349 C  
HETATM   30  C   UNL     1     -12.828   8.732  71.584  1.00  0.00    -0.392 C  
HETATM   31  C   UNL     1     -14.329   8.493  71.799  1.00  0.00    -0.522 C  
HETATM   32  C   UNL     1     -12.568  10.237  71.686  1.00  0.00    -0.534 C  
ENDBRANCH  22  29
ENDBRANCH  19  22
ENDBRANCH  10  18
ENDBRANCH   8  10
ENDBRANCH   5   6
BRANCH   5  33
HETATM   33  N   UNL     1     -10.089  11.141  66.790  1.00  0.00    -0.211 N  
HETATM   34  H   UNL     1      -9.199  11.139  67.289  1.00  0.00     0.000 HD 
HETATM   35  O   UNL     1     -12.004  12.338  66.377  1.00  0.00    -0.589 OA 
HETATM   36  C   UNL     1     -10.912  12.236  66.932  1.00  0.00    -0.267 C  
BRANCH  36  37
HETATM   37  C   UNL     1     -10.340  13.355  67.825  1.00  0.00    -0.241 C  
BRANCH  37  38
HETATM   38  N   UNL     1     -10.259  14.612  67.074  1.00  0.00    -0.259 N  
HETATM   39  O   UNL     1      -8.028  14.768  67.480  1.00  0.00    -0.157 OA 
HETATM   40  C   UNL     1      -9.045  15.241  66.955  1.00  0.00    -0.225 C  
HETATM   41  H   UNL     1     -11.094  15.014  66.647  1.00  0.00     0.000 HD 
BRANCH  40  42
HETATM   42  C   UNL     1      -8.949  16.518  66.112  1.00  0.00    -0.309 C  
BRANCH  42  43
HETATM   43  N   UNL     1      -8.436  17.729  66.798  1.00  0.00    -0.239 NA 
HETATM   44  C   UNL     1     -10.163  19.535  66.155  1.00  0.00    -0.496 C  
HETATM   45  C   UNL     1      -9.082  17.839  68.139  1.00  0.00    -0.274 C  
HETATM   46  O   UNL     1     -10.715  19.511  67.476  1.00  0.00    -0.465 OA 
HETATM   47  C   UNL     1     -10.574  18.221  68.073  1.00  0.00    -0.325 C  
HETATM   48  C   UNL     1      -8.716  18.998  66.084  1.00  0.00    -0.187 C  
ENDBRANCH  42  43
ENDBRANCH  40  42
ENDBRANCH  37  38
BRANCH  37  49
HETATM   49  C   UNL     1     -11.203  13.470  69.085  1.00  0.00    -0.310 C  
BRANCH  49  50
HETATM   50  C   UNL     1     -11.051  14.861  69.721  1.00  0.00    -0.300 C  
BRANCH  50  51
HETATM   51  C   UNL     1     -11.816  14.990  71.009  1.00  0.00    -0.373 A  
HETATM   52  C   UNL     1     -12.648  13.952  71.447  1.00  0.00    -0.444 A  
HETATM   53  C   UNL     1     -13.354  14.074  72.643  1.00  0.00    -0.643 A  
HETATM   54  C   UNL     1     -12.401  16.265  72.988  1.00  0.00    -0.581 A  
HETATM   55  C   UNL     1     -11.695  16.147  71.790  1.00  0.00    -0.568 A  
HETATM   56  C   UNL     1     -13.230  15.230  73.413  1.00  0.00    -0.531 A  
ENDBRANCH  50  51
ENDBRANCH  49  50
ENDBRANCH  37  49
ENDBRANCH  36  37
ENDBRANCH   5  33
ENDBRANCH   3   5
TORSDOF 18
ENDMDL
MODEL        3
REMARK 921   NORMALIZED FREE ENERGY PREDICTED BY IDOCK:   -6.48 KCAL/MOL
REMARK 922        TOTAL FREE ENERGY PREDICTED BY IDOCK:  -16.93 KCAL/MOL
REMARK 923 INTER-LIGAND FREE ENERGY PREDICTED BY IDOCK:  -12.84 KCAL/MOL
REMARK 924 INTRA-LIGAND FREE ENERGY PREDICTED BY IDOCK:   -4.09 KCAL/MOL
REMARK 927      BINDING AFFINITY PREDICTED BY RF-SCORE:    0.00 PKD
ROOT
HETATM    1  C   UNL     1      -8.383   7.736  64.380  1.00  0.00     0.028 C  
HETATM    2  C   UNL     1      -7.066   8.512  64.458  1.00  0.00    -0.078 C  
HETATM    3  C   UNL     1      -7.227  10.048  64.446  1.00  0.00    -0.134 C  
HETATM    4  C   UNL     1      -6.151   8.057  63.316  1.00  0.00    -0.072 C  
ENDROOT
BRANCH   3   5
HETATM    5  C   UNL     1      -8.050  10.642  65.608  1.00  0.00    -0.146 C  
BRANCH   5   6
HETATM    6  C   UNL     1      -9.435  11.246  65.266  1.00  0.00    -0.221 C  
HETATM    7  H   UNL     1      -9.010  12.920  66.390  1.00  0.00     0.000 HD 
HETATM    8  N   UNL     1      -9.648  12.531  65.695  1.00  0.00    -0.154 N  
HETATM    9  O   UNL     1     -10.237  10.643  64.555  1.00  0.00    -0.336 OA 
BRANCH   8  10
HETATM   10  C   UNL     1     -10.744  13.376  65.210  1.00  0.00    -0.313 C  
BRANCH  10  11
HETATM   11  C   UNL     1     -12.081  13.224  65.970  1.00  0.00    -0.491 C  
BRANCH  11  12
HETATM   12  C   UNL     1     -11.893  13.298  67.466  1.00  0.00    -0.403 A  
HETATM   13  C   UNL     1     -11.810  12.126  68.230  1.00  0.00    -0.361 A  
HETATM   14  C   UNL     1     -12.055  14.594  69.501  1.00  0.00    -0.335 A  
HETATM   15  C   UNL     1     -11.961  14.535  68.114  1.00  0.00    -0.296 A  
HETATM   16  C   UNL     1     -12.047  13.419  70.251  1.00  0.00    -0.419 A  
HETATM   17  C   UNL     1     -11.901  12.187  69.618  1.00  0.00    -0.391 A  
ENDBRANCH  11  12
ENDBRANCH  10  11
BRANCH  10  18
HETATM   18  C   UNL     1     -10.247  14.848  65.216  1.00  0.00    -0.373 C  
HETATM   19  N   UNL     1      -9.160  15.075  66.030  1.00  0.00    -0.486 N  
HETATM   20  O   UNL     1     -10.791  15.748  64.579  1.00  0.00    -0.467 OA 
HETATM   21  H   UNL     1      -8.741  14.274  66.501  1.00  0.00     0.000 HD 
BRANCH  19  22
HETATM   22  C   UNL     1      -8.568  16.393  66.261  1.00  0.00    -0.340 C  
BRANCH  22  23
HETATM   23  C   UNL     1      -7.310  16.132  67.103  1.00  0.00    -0.215 C  
HETATM   24  O   UNL     1      -6.333  16.878  67.068  1.00  0.00    -0.158 OA 
BRANCH  23  25
HETATM   25  C   UNL     1      -7.282  14.941  68.001  1.00  0.00    -0.134 C  
HETATM   26  O   UNL     1      -8.487  14.701  68.744  1.00  0.00    -0.162 OA 
HETATM   27  C   UNL     1      -6.563  13.697  67.580  1.00  0.00    -0.176 C  
HETATM   28  C   UNL     1      -7.382  15.218  69.494  1.00  0.00    -0.210 C  
ENDBRANCH  23  25
ENDBRANCH  22  23
BRANCH  22  29
HETATM   29  C   UNL     1      -9.528  17.384  66.944  1.00  0.00    -0.275 C  
HETATM   30  C   UNL     1      -9.736  18.757  66.262  1.00  0.00    -0.354 C  
HETATM   31  C   UNL     1     -10.771  19.575  67.046  1.00  0.00    -0.592 C  
HETATM   32  C   UNL     1      -8.468  19.604  66.124  1.00  0.00    -0.354 C  
ENDBRANCH  22  29
ENDBRANCH  19  22
ENDBRANCH  10  18
ENDBRANCH   8  10
ENDBRANCH   5   6
BRANCH   5  33
HETATM   33  N   UNL     1      -8.205   9.712  66.732  1.00  0.00    -0.113 N  
HETATM   34  H   UNL     1      -9.067   9.170  66.793  1.00  0.00     0.000 HD 
HETATM   35  O   UNL     1      -6.180  10.136  67.727  1.00  0.00    -0.056 OA 
HETATM   36  C   UNL     1      -7.250   9.531  67.708  1.00  0.00    -0.082 C  
BRANCH  36  37
HETATM   37  C   UNL     1      -7.615   8.476  68.771  1.00  0.00    -0.097 C  
BRANCH  37  38
HETATM   38  N   UNL     1      -8.968   8.717  69.283  1.00  0.00    -0.144 N  
HETATM   39  O   UNL     1      -8.150   9.239  71.338  1.00  0.00    -0.330 OA 
HETATM   40  C   UNL     1      -9.128   9.104  70.589  1.00  0.00    -0.257 C  
HETATM   41  H   UNL     1      -9.778   8.598  68.675  1.00  0.00     0.000 HD 
BRANCH  40  42
HETATM   42  C   UNL     1     -10.536   9.422  71.103  1.00  0.00    -0.333 C  
BRANCH  42  43
HETATM   43  N   UNL     1     -11.057   8.559  72.191  1.00  0.00    -0.345 NA 
HETATM   44  C   UNL     1     -13.524   8.208  71.522  1.00  0.00    -0.286 C  
HETATM   45  C   UNL     1     -10.926   7.130  71.782  1.00  0.00    -0.229 C  
HETATM   46  O   UNL     1     -13.250   6.858  71.128  1.00  0.00    -0.283 OA 
HETATM   47  C   UNL     1     -11.905   6.716  70.667  1.00  0.00    -0.383 C  
HETATM   48  C   UNL     1     -12.487   8.781  72.513  1.00  0.00    -0.298 C  
ENDBRANCH  42  43
ENDBRANCH  40  42
ENDBRANCH  37  38
BRANCH  37  49
HETATM   49  C   UNL     1      -7.451   7.082  68.157  1.00  0.00    -0.099 C  
BRANCH  49  50
HETATM   50  C   UNL     1      -8.773   6.300  68.230  1.00  0.00    -0.115 C  
BRANCH  50  51
HETATM   51  C   UNL     1      -8.956   5.375  67.059  1.00  0.00    -0.112 A  
HETATM   52  C   UNL     1      -7.853   4.740  66.476  1.00  0.00    -0.099 A  
HETATM   53  C   UNL     1      -8.027   3.881  65.392  1.00  0.00    -0.093 A  
HETATM   54  C   UNL     1     -10.409   4.268  65.463  1.00  0.00    -0.210 A  
HETATM   55  C   UNL     1     -10.237   5.130  66.546  1.00  0.00    -0.300 A  
HETATM   56  C   UNL     1      -9.305   3.644  64.886  1.00  0.00    -0.154 A  
ENDBRANCH  50  51
ENDBRANCH  49  50
ENDBRANCH  37  49
ENDBRANCH  36  37
ENDBRANCH   5  33
ENDBRANCH   3   5
TORSDOF 18
ENDMDL
MODEL        4
REMARK 921   NORMALIZED FREE ENERGY PREDICTED BY IDOCK:   -6.44 KCAL/MOL
REMARK 922        TOTAL FREE ENERGY PREDICTED BY IDOCK:  -16.85 KCAL/MOL
REMARK 923 INTER-LIGAND FREE ENERGY PREDICTED BY IDOCK:  -13.63 KCAL/MOL
REMARK 924 INTRA-LIGAND FREE ENERGY PREDICTED BY IDOCK:   -3.23 KCAL/MOL
REMARK 927      BINDING AFFINITY PREDICTED BY RF-SCORE:    0.00 PKD
ROOT
HETATM    1  C   UNL     1     -10.840  11.873  63.381  1.00  0.00    -0.469 C  
HETATM    2  C   UNL     1      -9.809  10.754  63.546  1.00  0.00    -0.401 C  
HETATM    3  C   UNL     1      -9.065  10.764  64.900  1.00  0.00    -0.221 C  
HETATM    4  C   UNL     1      -8.812  10.818  62.384  1.00  0.00    -0.341 C  
ENDROOT
BRANCH   3   5
HETATM    5  C   UNL     1      -9.955  10.606  66.151  1.00  0.00    -0.228 C  
BRANCH   5   6
HETATM    6  C   UNL     1      -9.710   9.368  67.049  1.00  0.00    -0.178 C  
HETATM    7  H   UNL     1     -10.754   8.176  65.732  1.00  0.00     0.000 HD 
HETATM    8  N   UNL     1     -10.124   8.165  66.533  1.00  0.00    -0.255 N  
HETATM    9  O   UNL     1      -9.082   9.456  68.102  1.00  0.00    -0.128 OA 
BRANCH   8  10
HETATM   10  C   UNL     1      -9.707   6.867  67.072  1.00  0.00    -0.163 C  
BRANCH  10  11
HETATM   11  C   UNL     1      -8.180   6.631  67.119  1.00  0.00    -0.113 C  
BRANCH  11  12
HETATM   12  C   UNL     1      -7.797   5.292  66.534  1.00  0.00    -0.100 A  
HETATM   13  C   UNL     1      -8.531   4.744  65.474  1.00  0.00    -0.127 A  
HETATM   14  C   UNL     1      -6.629   3.191  66.790  1.00  0.00    -0.037 A  
HETATM   15  C   UNL     1      -6.807   4.522  67.152  1.00  0.00    -0.055 A  
HETATM   16  C   UNL     1      -7.415   2.630  65.785  1.00  0.00    -0.072 A  
HETATM   17  C   UNL     1      -8.349   3.412  65.111  1.00  0.00    -0.098 A  
ENDBRANCH  11  12
ENDBRANCH  10  11
BRANCH  10  18
HETATM   18  C   UNL     1     -10.353   6.706  68.476  1.00  0.00    -0.192 C  
HETATM   19  N   UNL     1      -9.507   6.987  69.525  1.00  0.00    -0.147 N  
HETATM   20  O   UNL     1     -11.511   6.328  68.648  1.00  0.00    -0.263 OA 
HETATM   21  H   UNL     1      -8.571   7.327  69.305  1.00  0.00     0.000 HD 
BRANCH  19  22
HETATM   22  C   UNL     1      -9.864   6.827  70.934  1.00  0.00    -0.186 C  
BRANCH  22  23
HETATM   23  C   UNL     1     -10.271   8.229  71.412  1.00  0.00    -0.207 C  
HETATM   24  O   UNL     1      -9.464   9.008  71.917  1.00  0.00    -0.313 OA 
BRANCH  23  25
HETATM   25  C   UNL     1     -11.689   8.661  71.244  1.00  0.00    -0.289 C  
HETATM   26  O   UNL     1     -11.952   9.475  70.091  1.00  0.00    -0.087 OA 
HETATM   27  C   UNL     1     -12.807   7.734  71.608  1.00  0.00    -0.365 C  
HETATM   28  C   UNL     1     -11.958  10.155  71.352  1.00  0.00    -0.358 C  
ENDBRANCH  23  25
ENDBRANCH  22  23
BRANCH  22  29
HETATM   29  C   UNL     1      -8.733   6.227  71.789  1.00  0.00    -0.133 C  
HETATM   30  C   UNL     1      -8.793   4.711  72.086  1.00  0.00    -0.135 C  
HETATM   31  C   UNL     1      -7.554   4.289  72.888  1.00  0.00    -0.080 C  
HETATM   32  C   UNL     1     -10.035   4.257  72.859  1.00  0.00    -0.197 C  
ENDBRANCH  22  29
ENDBRANCH  19  22
ENDBRANCH  10  18
ENDBRANCH   8  10
ENDBRANCH   5   6
BRANCH   5  33
HETATM   33  N   UNL     1      -9.971  11.805  66.995  1.00  0.00    -0.203 N  
HETATM   34  H   UNL     1      -9.141  12.016  67.550  1.00  0.00     0.000 HD 
HETATM   35  O   UNL     1     -12.091  12.501  66.454  1.00  0.00    -0.576 OA 
HETATM   36  C   UNL     1     -11.045  12.664  67.079  1.00  0.00    -0.281 C  
BRANCH  36  37
HETATM   37  C   UNL     1     -10.823  13.878  68.002  1.00  0.00    -0.246 C  
BRANCH  37  38
HETATM   38  N   UNL     1     -10.331  15.022  67.226  1.00  0.00    -0.247 N  
HETATM   39  O   UNL     1      -8.174  14.435  67.638  1.00  0.00    -0.149 OA 
HETATM   40  C   UNL     1      -8.978  15.209  67.099  1.00  0.00    -0.213 C  
HETATM   41  H   UNL     1     -10.986  15.668  66.787  1.00  0.00     0.000 HD 
BRANCH  40  42
HETATM   42  C   UNL     1      -8.465  16.364  66.231  1.00  0.00    -0.337 C  
BRANCH  42  43
HETATM   43  N   UNL     1      -7.539  17.323  66.881  1.00  0.00    -0.195 NA 
HETATM   44  C   UNL     1      -8.494  19.615  66.181  1.00  0.00    -0.334 C  
HETATM   45  C   UNL     1      -8.090  17.700  68.217  1.00  0.00    -0.278 C  
HETATM   46  O   UNL     1      -9.005  19.833  67.500  1.00  0.00    -0.307 OA 
HETATM   47  C   UNL     1      -9.339  18.598  68.137  1.00  0.00    -0.318 C  
HETATM   48  C   UNL     1      -7.344  18.586  66.130  1.00  0.00    -0.259 C  
ENDBRANCH  42  43
ENDBRANCH  40  42
ENDBRANCH  37  38
BRANCH  37  49
HETATM   49  C   UNL     1     -12.130  14.180  68.742  1.00  0.00    -0.326 C  
BRANCH  49  50
HETATM   50  C   UNL     1     -12.159  13.465  70.102  1.00  0.00    -0.415 C  
BRANCH  50  51
HETATM   51  C   UNL     1     -12.547  14.386  71.226  1.00  0.00    -0.421 A  
HETATM   52  C   UNL     1     -11.564  15.035  71.982  1.00  0.00    -0.419 A  
HETATM   53  C   UNL     1     -11.928  15.891  73.022  1.00  0.00    -0.596 A  
HETATM   54  C   UNL     1     -14.259  15.470  72.558  1.00  0.00    -0.502 A  
HETATM   55  C   UNL     1     -13.899  14.612  71.519  1.00  0.00    -0.508 A  
HETATM   56  C   UNL     1     -13.275  16.109  73.309  1.00  0.00    -0.559 A  
ENDBRANCH  50  51
ENDBRANCH  49  50
ENDBRANCH  37  49
ENDBRANCH  36  37
ENDBRANCH   5  33
ENDBRANCH   3   5
TORSDOF 18
ENDMDL
MODEL        5
REMARK 921   NORMALIZED FREE ENERGY PREDICTED BY IDOCK:   -6.42 KCAL/MOL
REMARK 922        TOTAL FREE ENERGY PREDICTED BY IDOCK:  -16.80 KCAL/MOL
REMARK 923 INTER-LIGAND FREE ENERGY PREDICTED BY IDOCK:  -13.53 KCAL/MOL
REMARK 924 INTRA-LIGAND FREE ENERGY PREDICTED BY IDOCK:   -3.27 KCAL/MOL
REMARK 927      BINDING AFFINITY PREDICTED BY RF-SCORE:    0.00 PKD
ROOT
HETATM    1  C   UNL     1     -11.177  12.081  63.355  1.00  0.00    -0.481 C  
HETATM    2  C   UNL     1     -10.124  10.984  63.534  1.00  0.00    -0.428 C  
HETATM    3  C   UNL     1      -9.347  11.055  64.867  1.00  0.00    -0.243 C  
HETATM    4  C   UNL     1      -9.158  11.021  62.345  1.00  0.00    -0.328 C  
ENDROOT
BRANCH   3   5
HETATM    5  C   UNL     1     -10.202  10.929  66.146  1.00  0.00    -0.249 C  
BRANCH   5   6
HETATM    6  C   UNL     1      -9.982   9.678  67.031  1.00  0.00    -0.206 C  
HETATM    7  H   UNL     1     -10.036   8.462  65.369  1.00  0.00     0.000 HD 
HETATM    8  N   UNL     1      -9.795   8.496  66.359  1.00  0.00    -0.266 N  
HETATM    9  O   UNL     1      -9.870   9.771  68.252  1.00  0.00    -0.144 OA 
BRANCH   8  10
HETATM   10  C   UNL     1      -9.267   7.282  66.988  1.00  0.00    -0.145 C  
BRANCH  10  11
HETATM   11  C   UNL     1      -7.766   7.327  67.353  1.00  0.00    -0.110 C  
BRANCH  11  12
HETATM   12  C   UNL     1      -6.958   8.090  66.331  1.00  0.00    -0.070 A  
HETATM   13  C   UNL     1      -6.318   9.287  66.680  1.00  0.00    -0.066 A  
HETATM   14  C   UNL     1      -6.459   8.523  64.004  1.00  0.00    -0.072 A  
HETATM   15  C   UNL     1      -6.976   7.689  64.991  1.00  0.00    -0.058 A  
HETATM   16  C   UNL     1      -5.893   9.748  64.352  1.00  0.00    -0.092 A  
HETATM   17  C   UNL     1      -5.800  10.119  65.692  1.00  0.00    -0.079 A  
ENDBRANCH  11  12
ENDBRANCH  10  11
BRANCH  10  18
HETATM   18  C   UNL     1     -10.148   6.968  68.229  1.00  0.00    -0.167 C  
HETATM   19  N   UNL     1      -9.529   7.202  69.436  1.00  0.00    -0.154 N  
HETATM   20  O   UNL     1     -11.289   6.517  68.151  1.00  0.00    -0.225 OA 
HETATM   21  H   UNL     1      -8.594   7.609  69.422  1.00  0.00     0.000 HD 
BRANCH  19  22
HETATM   22  C   UNL     1     -10.127   6.905  70.737  1.00  0.00    -0.194 C  
BRANCH  22  23
HETATM   23  C   UNL     1     -10.276   8.264  71.437  1.00  0.00    -0.207 C  
HETATM   24  O   UNL     1      -9.309   8.882  71.879  1.00  0.00    -0.284 OA 
BRANCH  23  25
HETATM   25  C   UNL     1     -11.638   8.856  71.572  1.00  0.00    -0.318 C  
HETATM   26  O   UNL     1     -12.250   9.279  70.343  1.00  0.00    -0.040 OA 
HETATM   27  C   UNL     1     -12.602   8.311  72.579  1.00  0.00    -0.265 C  
HETATM   28  C   UNL     1     -11.777  10.325  71.199  1.00  0.00    -0.341 C  
ENDBRANCH  23  25
ENDBRANCH  22  23
BRANCH  22  29
HETATM   29  C   UNL     1      -9.308   5.906  71.575  1.00  0.00    -0.160 C  
HETATM   30  C   UNL     1     -10.091   4.852  72.391  1.00  0.00    -0.240 C  
HETATM   31  C   UNL     1      -9.108   3.911  73.101  1.00  0.00    -0.117 C  
HETATM   32  C   UNL     1     -11.038   5.430  73.446  1.00  0.00    -0.326 C  
ENDBRANCH  22  29
ENDBRANCH  19  22
ENDBRANCH  10  18
ENDBRANCH   8  10
ENDBRANCH   5   6
BRANCH   5  33
HETATM   33  N   UNL     1     -10.140  12.125  66.994  1.00  0.00    -0.203 N  
HETATM   34  H   UNL     1      -9.364  12.210  67.651  1.00  0.00     0.000 HD 
HETATM   35  O   UNL     1     -12.044  13.132  66.199  1.00  0.00    -0.407 OA 
HETATM   36  C   UNL     1     -11.072  13.138  66.952  1.00  0.00    -0.282 C  
BRANCH  36  37
HETATM   37  C   UNL     1     -10.784  14.312  67.908  1.00  0.00    -0.240 C  
BRANCH  37  38
HETATM   38  N   UNL     1     -10.333  15.484  67.151  1.00  0.00    -0.266 N  
HETATM   39  O   UNL     1      -8.744  15.941  68.710  1.00  0.00    -0.186 OA 
HETATM   40  C   UNL     1      -9.294  16.235  67.640  1.00  0.00    -0.218 C  
HETATM   41  H   UNL     1     -10.787  15.738  66.273  1.00  0.00     0.000 HD 
BRANCH  40  42
HETATM   42  C   UNL     1      -8.779  17.418  66.813  1.00  0.00    -0.255 C  
BRANCH  42  43
HETATM   43  N   UNL     1      -9.315  18.756  67.163  1.00  0.00    -0.292 NA 
HETATM   44  C   UNL     1      -7.361  19.848  68.445  1.00  0.00    -0.283 C  
HETATM   45  C   UNL     1      -8.928  19.728  66.098  1.00  0.00    -0.336 C  
HETATM   46  O   UNL     1      -7.072  20.698  67.330  1.00  0.00    -0.304 OA 
HETATM   47  C   UNL     1      -7.426  20.072  66.096  1.00  0.00    -0.302 C  
HETATM   48  C   UNL     1      -8.806  19.302  68.444  1.00  0.00    -0.352 C  
ENDBRANCH  42  43
ENDBRANCH  40  42
ENDBRANCH  37  38
BRANCH  37  49
HETATM   49  C   UNL     1     -12.040  14.589  68.740  1.00  0.00    -0.256 C  
BRANCH  49  50
HETATM   50  C   UNL     1     -11.995  13.809  70.064  1.00  0.00    -0.407 C  
BRANCH  50  51
HETATM   51  C   UNL     1     -12.531  14.610  71.219  1.00  0.00    -0.408 A  
HETATM   52  C   UNL     1     -13.887  14.951  71.277  1.00  0.00    -0.500 A  
HETATM   53  C   UNL     1     -14.381  15.691  72.351  1.00  0.00    -0.420 A  
HETATM   54  C   UNL     1     -12.175  15.752  73.329  1.00  0.00    -0.619 A  
HETATM   55  C   UNL     1     -11.677  15.013  72.255  1.00  0.00    -0.423 A  
HETATM   56  C   UNL     1     -13.525  16.090  73.377  1.00  0.00    -0.494 A  
ENDBRANCH  50  51
ENDBRANCH  49  50
ENDBRANCH  37  49
ENDBRANCH  36  37
ENDBRANCH   5  33
ENDBRANCH   3   5
TORSDOF 18
ENDMDL
MODEL        6
REMARK 921   NORMALIZED FREE ENERGY PREDICTED BY IDOCK:   -6.39 KCAL/MOL
REMARK 922        TOTAL FREE ENERGY PREDICTED BY IDOCK:  -16.74 KCAL/MOL
REMARK 923 INTER-LIGAND FREE ENERGY PREDICTED BY IDOCK:  -12.81 KCAL/MOL
REMARK 924 INTRA-LIGAND FREE ENERGY PREDICTED BY IDOCK:   -3.93 KCAL/MOL
REMARK 927      BINDING AFFINITY PREDICTED BY RF-SCORE:    0.00 PKD
ROOT
HETATM    1  C   UNL     1      -7.259  15.043  69.429  1.00  0.00    -0.194 C  
HETATM    2  C   UNL     1      -6.766  14.905  67.986  1.00  0.00    -0.152 C  
HETATM    3  C   UNL     1      -6.604  13.447  67.502  1.00  0.00    -0.143 C  
HETATM    4  C   UNL     1      -5.448  15.673  67.833  1.00  0.00    -0.146 C  
ENDROOT
BRANCH   3   5
HETATM    5  C   UNL     1      -7.890  12.593  67.514  1.00  0.00    -0.175 C  
BRANCH   5   6
HETATM    6  C   UNL     1      -8.055  11.568  68.664  1.00  0.00    -0.132 C  
HETATM    7  H   UNL     1     -10.086  11.481  68.328  1.00  0.00     0.000 HD 
HETATM    8  N   UNL     1      -9.307  11.028  68.806  1.00  0.00    -0.192 N  
HETATM    9  O   UNL     1      -7.089  11.187  69.323  1.00  0.00    -0.109 OA 
BRANCH   8  10
HETATM   10  C   UNL     1      -9.587   9.833  69.609  1.00  0.00    -0.221 C  
BRANCH  10  11
HETATM   11  C   UNL     1     -11.014   9.753  70.199  1.00  0.00    -0.339 C  
BRANCH  11  12
HETATM   12  C   UNL     1     -11.130   8.678  71.253  1.00  0.00    -0.336 A  
HETATM   13  C   UNL     1     -10.305   8.702  72.386  1.00  0.00    -0.317 A  
HETATM   14  C   UNL     1     -11.866   6.456  71.857  1.00  0.00    -0.380 A  
HETATM   15  C   UNL     1     -11.950   7.569  71.027  1.00  0.00    -0.317 A  
HETATM   16  C   UNL     1     -10.987   6.457  72.939  1.00  0.00    -0.281 A  
HETATM   17  C   UNL     1     -10.224   7.589  73.217  1.00  0.00    -0.398 A  
ENDBRANCH  11  12
ENDBRANCH  10  11
BRANCH  10  18
HETATM   18  C   UNL     1      -9.258   8.589  68.739  1.00  0.00    -0.142 C  
HETATM   19  N   UNL     1      -7.930   8.226  68.750  1.00  0.00    -0.112 N  
HETATM   20  O   UNL     1     -10.097   7.992  68.066  1.00  0.00    -0.179 OA 
HETATM   21  H   UNL     1      -7.298   8.747  69.357  1.00  0.00     0.000 HD 
BRANCH  19  22
HETATM   22  C   UNL     1      -7.368   7.141  67.946  1.00  0.00    -0.097 C  
BRANCH  22  23
HETATM   23  C   UNL     1      -6.685   6.201  68.950  1.00  0.00    -0.060 C  
HETATM   24  O   UNL     1      -5.522   6.367  69.315  1.00  0.00    -0.012 OA 
BRANCH  23  25
HETATM   25  C   UNL     1      -7.464   5.059  69.508  1.00  0.00    -0.057 C  
HETATM   26  O   UNL     1      -8.860   5.315  69.731  1.00  0.00    -0.102 OA 
HETATM   27  C   UNL     1      -7.160   3.657  69.079  1.00  0.00    -0.050 C  
HETATM   28  C   UNL     1      -8.040   5.250  70.904  1.00  0.00    -0.107 C  
ENDBRANCH  23  25
ENDBRANCH  22  23
BRANCH  22  29
HETATM   29  C   UNL     1      -6.399   7.627  66.852  1.00  0.00    -0.053 C  
HETATM   30  C   UNL     1      -6.870   8.791  65.950  1.00  0.00    -0.068 C  
HETATM   31  C   UNL     1      -5.751   9.177  64.974  1.00  0.00    -0.058 C  
HETATM   32  C   UNL     1      -8.132   8.500  65.133  1.00  0.00    -0.142 C  
ENDBRANCH  22  29
ENDBRANCH  19  22
ENDBRANCH  10  18
ENDBRANCH   8  10
ENDBRANCH   5   6
BRANCH   5  33
HETATM   33  N   UNL     1      -9.112  13.400  67.422  1.00  0.00    -0.205 N  
HETATM   34  H   UNL     1      -9.337  14.024  68.197  1.00  0.00     0.000 HD 
HETATM   35  O   UNL     1      -9.792  12.644  65.364  1.00  0.00    -0.234 OA 
HETATM   36  C   UNL     1      -9.970  13.361  66.346  1.00  0.00    -0.293 C  
BRANCH  36  37
HETATM   37  C   UNL     1     -11.172  14.321  66.451  1.00  0.00    -0.337 C  
BRANCH  37  38
HETATM   38  N   UNL     1     -11.457  14.624  67.857  1.00  0.00    -0.315 N  
HETATM   39  O   UNL     1     -12.294  12.537  68.188  1.00  0.00    -0.165 OA 
HETATM   40  C   UNL     1     -12.019  13.654  68.648  1.00  0.00    -0.360 C  
HETATM   41  H   UNL     1     -11.242  15.544  68.242  1.00  0.00     0.000 HD 
BRANCH  40  42
HETATM   42  C   UNL     1     -12.252  13.949  70.134  1.00  0.00    -0.358 C  
BRANCH  42  43
HETATM   43  N   UNL     1     -12.774  15.296  70.469  1.00  0.00    -0.395 NA 
HETATM   44  C   UNL     1     -13.838  14.945  72.793  1.00  0.00    -0.337 C  
HETATM   45  C   UNL     1     -11.739  16.037  71.250  1.00  0.00    -0.461 C  
HETATM   46  O   UNL     1     -12.759  15.647  73.421  1.00  0.00    -0.430 OA 
HETATM   47  C   UNL     1     -11.545  15.499  72.680  1.00  0.00    -0.400 C  
HETATM   48  C   UNL     1     -14.005  15.285  71.296  1.00  0.00    -0.457 C  
ENDBRANCH  42  43
ENDBRANCH  40  42
ENDBRANCH  37  38
BRANCH  37  49
HETATM   49  C   UNL     1     -10.875  15.574  65.622  1.00  0.00    -0.354 C  
BRANCH  49  50
HETATM   50  C   UNL     1      -9.453  16.086  65.905  1.00  0.00    -0.351 C  
BRANCH  50  51
HETATM   51  C   UNL     1      -9.445  17.500  66.418  1.00  0.00    -0.276 A  
HETATM   52  C   UNL     1     -10.578  18.035  67.043  1.00  0.00    -0.320 A  
HETATM   53  C   UNL     1     -10.565  19.345  67.520  1.00  0.00    -0.591 A  
HETATM   54  C   UNL     1      -8.287  19.603  66.763  1.00  0.00    -0.338 A  
HETATM   55  C   UNL     1      -8.297  18.294  66.284  1.00  0.00    -0.230 A  
HETATM   56  C   UNL     1      -9.420  20.129  67.381  1.00  0.00    -0.531 A  
ENDBRANCH  50  51
ENDBRANCH  49  50
ENDBRANCH  37  49
ENDBRANCH  36  37
ENDBRANCH   5  33
ENDBRANCH   3   5
TORSDOF 18
ENDMDL
MODEL        7
REMARK 921   NORMALIZED FREE ENERGY PREDICTED BY IDOCK:   -6.22 KCAL/MOL
REMARK 922        TOTAL FREE ENERGY PREDICTED BY IDOCK:  -16.39 KCAL/MOL
REMARK 923 INTER-LIGAND FREE ENERGY PREDICTED BY IDOCK:  -13.25 KCAL/MOL
REMARK 924 INTRA-LIGAND FREE ENERGY PREDICTED BY IDOCK:   -3.14 KCAL/MOL
REMARK 927      BINDING AFFINITY PREDICTED BY RF-SCORE:    0.00 PKD
ROOT
HETATM    1  C   UNL     1     -10.418  11.300  63.437  1.00  0.00    -0.424 C  
HETATM    2  C   UNL     1      -9.351  10.374  64.025  1.00  0.00    -0.321 C  
HETATM    3  C   UNL     1      -8.782  10.835  65.385  1.00  0.00    -0.190 C  
HETATM    4  C   UNL     1      -8.223  10.200  63.001  1.00  0.00    -0.158 C  
ENDROOT
BRANCH   3   5
HETATM    5  C   UNL     1      -9.808  10.954  66.531  1.00  0.00    -0.204 C  
BRANCH   5   6
HETATM    6  C   UNL     1      -9.796   9.851  67.618  1.00  0.00    -0.163 C  
HETATM    7  H   UNL     1     -10.508   8.473  66.261  1.00  0.00     0.000 HD 
HETATM    8  N   UNL     1     -10.086   8.582  67.183  1.00  0.00    -0.234 N  
HETATM    9  O   UNL     1      -9.435  10.091  68.769  1.00  0.00    -0.150 OA 
BRANCH   8  10
HETATM   10  C   UNL     1      -9.822   7.376  67.973  1.00  0.00    -0.148 C  
BRANCH  10  11
HETATM   11  C   UNL     1     -11.064   6.514  68.298  1.00  0.00    -0.332 C  
BRANCH  11  12
HETATM   12  C   UNL     1     -11.132   6.149  69.762  1.00  0.00    -0.486 A  
HETATM   13  C   UNL     1     -11.958   6.869  70.636  1.00  0.00    -0.400 A  
HETATM   14  C   UNL     1     -10.119   5.043  71.659  1.00  0.00    -0.260 A  
HETATM   15  C   UNL     1     -10.250   5.197  70.282  1.00  0.00    -0.342 A  
HETATM   16  C   UNL     1     -10.891   5.816  72.524  1.00  0.00    -0.294 A  
HETATM   17  C   UNL     1     -11.828   6.712  72.013  1.00  0.00    -0.365 A  
ENDBRANCH  11  12
ENDBRANCH  10  11
BRANCH  10  18
HETATM   18  C   UNL     1      -8.733   6.552  67.232  1.00  0.00    -0.110 C  
HETATM   19  N   UNL     1      -9.103   5.259  66.938  1.00  0.00    -0.113 N  
HETATM   20  O   UNL     1      -7.619   6.996  66.957  1.00  0.00    -0.098 OA 
HETATM   21  H   UNL     1     -10.055   4.971  67.166  1.00  0.00     0.000 HD 
BRANCH  19  22
HETATM   22  C   UNL     1      -8.219   4.272  66.319  1.00  0.00    -0.102 C  
BRANCH  22  23
HETATM   23  C   UNL     1      -8.867   3.936  64.967  1.00  0.00    -0.126 C  
HETATM   24  O   UNL     1     -10.071   3.713  64.856  1.00  0.00    -0.164 OA 
BRANCH  23  25
HETATM   25  C   UNL     1      -8.005   3.894  63.750  1.00  0.00    -0.088 C  
HETATM   26  O   UNL     1      -7.596   5.173  63.240  1.00  0.00    -0.057 OA 
HETATM   27  C   UNL     1      -6.982   2.813  63.588  1.00  0.00    -0.040 C  
HETATM   28  C   UNL     1      -8.598   4.488  62.480  1.00  0.00    -0.101 C  
ENDBRANCH  23  25
ENDBRANCH  22  23
BRANCH  22  29
HETATM   29  C   UNL     1      -7.999   3.018  67.185  1.00  0.00    -0.078 C  
HETATM   30  C   UNL     1      -7.720   3.234  68.691  1.00  0.00    -0.055 C  
HETATM   31  C   UNL     1      -7.596   1.876  69.395  1.00  0.00    -0.043 C  
HETATM   32  C   UNL     1      -6.459   4.045  69.000  1.00  0.00    -0.037 C  
ENDBRANCH  22  29
ENDBRANCH  19  22
ENDBRANCH  10  18
ENDBRANCH   8  10
ENDBRANCH   5   6
BRANCH   5  33
HETATM   33  N   UNL     1      -9.778  12.265  67.189  1.00  0.00    -0.199 N  
HETATM   34  H   UNL     1      -9.093  12.418  67.929  1.00  0.00     0.000 HD 
HETATM   35  O   UNL     1     -11.487  13.220  65.988  1.00  0.00    -0.312 OA 
HETATM   36  C   UNL     1     -10.626  13.301  66.862  1.00  0.00    -0.264 C  
BRANCH  36  37
HETATM   37  C   UNL     1     -10.388  14.598  67.661  1.00  0.00    -0.233 C  
BRANCH  37  38
HETATM   38  N   UNL     1      -9.791  15.623  66.799  1.00  0.00    -0.238 N  
HETATM   39  O   UNL     1      -8.111  15.967  68.291  1.00  0.00    -0.139 OA 
HETATM   40  C   UNL     1      -8.640  16.248  67.206  1.00  0.00    -0.179 C  
HETATM   41  H   UNL     1     -10.225  15.867  65.909  1.00  0.00     0.000 HD 
BRANCH  40  42
HETATM   42  C   UNL     1      -7.978  17.269  66.274  1.00  0.00    -0.295 C  
BRANCH  42  43
HETATM   43  N   UNL     1      -8.538  18.642  66.288  1.00  0.00    -0.431 NA 
HETATM   44  C   UNL     1      -7.925  19.494  68.645  1.00  0.00    -0.346 C  
HETATM   45  C   UNL     1      -7.480  19.602  65.857  1.00  0.00    -0.316 C  
HETATM   46  O   UNL     1      -6.911  20.345  68.100  1.00  0.00    -0.289 OA 
HETATM   47  C   UNL     1      -6.362  19.795  66.901  1.00  0.00    -0.186 C  
HETATM   48  C   UNL     1      -9.009  19.095  67.619  1.00  0.00    -0.298 C  
ENDBRANCH  42  43
ENDBRANCH  40  42
ENDBRANCH  37  38
BRANCH  37  49
HETATM   49  C   UNL     1     -11.716  15.044  68.281  1.00  0.00    -0.338 C  
BRANCH  49  50
HETATM   50  C   UNL     1     -12.178  14.041  69.350  1.00  0.00    -0.336 C  
BRANCH  50  51
HETATM   51  C   UNL     1     -12.507  14.708  70.658  1.00  0.00    -0.408 A  
HETATM   52  C   UNL     1     -13.688  14.390  71.339  1.00  0.00    -0.419 A  
HETATM   53  C   UNL     1     -13.989  15.009  72.552  1.00  0.00    -0.551 A  
HETATM   54  C   UNL     1     -11.930  16.264  72.427  1.00  0.00    -0.630 A  
HETATM   55  C   UNL     1     -11.628  15.648  71.212  1.00  0.00    -0.485 A  
HETATM   56  C   UNL     1     -13.110  15.945  73.096  1.00  0.00    -0.673 A  
ENDBRANCH  50  51
ENDBRANCH  49  50
ENDBRANCH  37  49
ENDBRANCH  36  37
ENDBRANCH   5  33
ENDBRANCH   3   5
TORSDOF 18
ENDMDL
MODEL        8
REMARK 921   NORMALIZED FREE ENERGY PREDICTED BY IDOCK:   -6.18 KCAL/MOL
REMARK 922        TOTAL FREE ENERGY PREDICTED BY IDOCK:  -16.31 KCAL/MOL
REMARK 923 INTER-LIGAND FREE ENERGY PREDICTED BY IDOCK:  -13.70 KCAL/MOL
REMARK 924 INTRA-LIGAND FREE ENERGY PREDICTED BY IDOCK:   -2.60 KCAL/MOL
REMARK 927      BINDING AFFINITY PREDICTED BY RF-SCORE:    0.00 PKD
ROOT
HETATM    1  C   UNL     1      -9.621  10.477  63.582  1.00  0.00    -0.370 C  
HETATM    2  C   UNL     1     -10.197  11.789  64.120  1.00  0.00    -0.363 C  
HETATM    3  C   UNL     1     -10.515  11.776  65.631  1.00  0.00    -0.308 C  
HETATM    4  C   UNL     1     -11.446  12.154  63.310  1.00  0.00    -0.410 C  
ENDROOT
BRANCH   3   5
HETATM    5  C   UNL     1      -9.313  11.515  66.564  1.00  0.00    -0.197 C  
BRANCH   5   6
HETATM    6  C   UNL     1      -8.943  12.626  67.578  1.00  0.00    -0.187 C  
HETATM    7  H   UNL     1      -7.274  13.113  66.472  1.00  0.00     0.000 HD 
HETATM    8  N   UNL     1      -7.884  13.425  67.228  1.00  0.00    -0.136 N  
HETATM    9  O   UNL     1      -9.634  12.839  68.573  1.00  0.00    -0.198 OA 
BRANCH   8  10
HETATM   10  C   UNL     1      -7.582  14.702  67.882  1.00  0.00    -0.142 C  
BRANCH  10  11
HETATM   11  C   UNL     1      -6.322  15.429  67.360  1.00  0.00    -0.070 C  
BRANCH  11  12
HETATM   12  C   UNL     1      -6.157  16.794  67.987  1.00  0.00    -0.141 A  
HETATM   13  C   UNL     1      -6.030  16.927  69.376  1.00  0.00    -0.206 A  
HETATM   14  C   UNL     1      -6.404  19.191  67.797  1.00  0.00    -0.226 A  
HETATM   15  C   UNL     1      -6.290  17.940  67.198  1.00  0.00    -0.184 A  
HETATM   16  C   UNL     1      -6.353  19.308  69.185  1.00  0.00    -0.317 A  
HETATM   17  C   UNL     1      -6.141  18.179  69.973  1.00  0.00    -0.109 A  
ENDBRANCH  11  12
ENDBRANCH  10  11
BRANCH  10  18
HETATM   18  C   UNL     1      -8.846  15.600  67.774  1.00  0.00    -0.171 C  
HETATM   19  N   UNL     1      -9.424  15.911  68.985  1.00  0.00    -0.232 N  
HETATM   20  O   UNL     1      -9.318  15.978  66.704  1.00  0.00    -0.213 OA 
HETATM   21  H   UNL     1      -8.957  15.591  69.833  1.00  0.00     0.000 HD 
BRANCH  19  22
HETATM   22  C   UNL     1     -10.664  16.672  69.131  1.00  0.00    -0.342 C  
BRANCH  22  23
HETATM   23  C   UNL     1     -11.785  15.622  69.157  1.00  0.00    -0.390 C  
HETATM   24  O   UNL     1     -12.286  15.174  68.127  1.00  0.00    -0.102 OA 
BRANCH  23  25
HETATM   25  C   UNL     1     -12.270  15.124  70.476  1.00  0.00    -0.341 C  
HETATM   26  O   UNL     1     -13.348  15.873  71.059  1.00  0.00    -0.514 OA 
HETATM   27  C   UNL     1     -12.326  13.653  70.752  1.00  0.00    -0.446 C  
HETATM   28  C   UNL     1     -12.063  16.049  71.667  1.00  0.00    -0.472 C  
ENDBRANCH  23  25
ENDBRANCH  22  23
BRANCH  22  29
HETATM   29  C   UNL     1     -10.875  17.720  68.023  1.00  0.00    -0.217 C  
HETATM   30  C   UNL     1      -9.965  18.971  68.044  1.00  0.00    -0.436 C  
HETATM   31  C   UNL     1     -10.276  19.859  66.832  1.00  0.00    -0.600 C  
HETATM   32  C   UNL     1     -10.086  19.831  69.305  1.00  0.00    -0.302 C  
ENDBRANCH  22  29
ENDBRANCH  19  22
ENDBRANCH  10  18
ENDBRANCH   8  10
ENDBRANCH   5   6
BRANCH   5  33
HETATM   33  N   UNL     1      -9.411  10.238  67.278  1.00  0.00    -0.149 N  
HETATM   34  H   UNL     1      -8.594   9.627  67.288  1.00  0.00     0.000 HD 
HETATM   35  O   UNL     1     -11.584  10.476  67.982  1.00  0.00    -0.442 OA 
HETATM   36  C   UNL     1     -10.546   9.818  67.935  1.00  0.00    -0.259 C  
BRANCH  36  37
HETATM   37  C   UNL     1     -10.408   8.456  68.645  1.00  0.00    -0.197 C  
BRANCH  37  38
HETATM   38  N   UNL     1     -10.004   7.423  67.687  1.00  0.00    -0.156 N  
HETATM   39  O   UNL     1     -11.345   5.892  68.699  1.00  0.00    -0.145 OA 
HETATM   40  C   UNL     1     -10.539   6.164  67.798  1.00  0.00    -0.269 C  
HETATM   41  H   UNL     1      -9.334   7.636  66.948  1.00  0.00     0.000 HD 
BRANCH  40  42
HETATM   42  C   UNL     1     -10.170   5.104  66.754  1.00  0.00    -0.253 C  
BRANCH  42  43
HETATM   43  N   UNL     1      -9.459   3.902  67.252  1.00  0.00    -0.192 NA 
HETATM   44  C   UNL     1      -8.002   3.214  65.237  1.00  0.00    -0.082 C  
HETATM   45  C   UNL     1      -8.148   4.318  67.833  1.00  0.00    -0.094 C  
HETATM   46  O   UNL     1      -6.823   3.690  65.896  1.00  0.00    -0.054 OA 
HETATM   47  C   UNL     1      -7.124   4.774  66.776  1.00  0.00    -0.072 C  
HETATM   48  C   UNL     1      -9.161   2.893  66.207  1.00  0.00    -0.132 C  
ENDBRANCH  42  43
ENDBRANCH  40  42
ENDBRANCH  37  38
BRANCH  37  49
HETATM   49  C   UNL     1      -9.422   8.606  69.808  1.00  0.00    -0.166 C  
BRANCH  49  50
HETATM   50  C   UNL     1      -9.945   7.879  71.058  1.00  0.00    -0.200 C  
BRANCH  50  51
HETATM   51  C   UNL     1     -11.348   8.289  71.413  1.00  0.00    -0.309 A  
HETATM   52  C   UNL     1     -12.346   7.323  71.588  1.00  0.00    -0.387 A  
HETATM   53  C   UNL     1     -13.646   7.706  71.920  1.00  0.00    -0.321 A  
HETATM   54  C   UNL     1     -12.967  10.023  71.918  1.00  0.00    -0.547 A  
HETATM   55  C   UNL     1     -11.667   9.643  71.584  1.00  0.00    -0.439 A  
HETATM   56  C   UNL     1     -13.955   9.055  72.086  1.00  0.00    -0.499 A  
ENDBRANCH  50  51
ENDBRANCH  49  50
ENDBRANCH  37  49
ENDBRANCH  36  37
ENDBRANCH   5  33
ENDBRANCH   3   5
TORSDOF 18
ENDMDL
MODEL        9
REMARK 921   NORMALIZED FREE ENERGY PREDICTED BY IDOCK:   -6.17 KCAL/MOL
REMARK 922        TOTAL FREE ENERGY PREDICTED BY IDOCK:  -16.30 KCAL/MOL
REMARK 923 INTER-LIGAND FREE ENERGY PREDICTED BY IDOCK:  -12.90 KCAL/MOL
REMARK 924 INTRA-LIGAND FREE ENERGY PREDICTED BY IDOCK:   -3.40 KCAL/MOL
REMARK 927      BINDING AFFINITY PREDICTED BY RF-SCORE:    0.00 PKD
ROOT
HETATM    1  C   UNL     1      -7.346  10.157  70.273  1.00  0.00    -0.108 C  
HETATM    2  C   UNL     1      -6.619  10.486  68.967  1.00  0.00    -0.060 C  
HETATM    3  C   UNL     1      -7.220   9.813  67.714  1.00  0.00    -0.088 C  
HETATM    4  C   UNL     1      -5.137  10.121  69.116  1.00  0.00    -0.035 C  
ENDROOT
BRANCH   3   5
HETATM    5  C   UNL     1      -8.686  10.180  67.398  1.00  0.00    -0.125 C  
BRANCH   5   6
HETATM    6  C   UNL     1      -9.732   9.039  67.443  1.00  0.00    -0.168 C  
HETATM    7  H   UNL     1      -8.231   7.628  67.434  1.00  0.00     0.000 HD 
HETATM    8  N   UNL     1      -9.228   7.772  67.593  1.00  0.00    -0.136 N  
HETATM    9  O   UNL     1     -10.938   9.279  67.459  1.00  0.00    -0.199 OA 
BRANCH   8  10
HETATM   10  C   UNL     1     -10.045   6.614  67.969  1.00  0.00    -0.154 C  
BRANCH  10  11
HETATM   11  C   UNL     1      -9.278   5.279  68.100  1.00  0.00    -0.129 C  
BRANCH  11  12
HETATM   12  C   UNL     1      -9.316   4.477  66.822  1.00  0.00    -0.159 A  
HETATM   13  C   UNL     1     -10.259   4.770  65.827  1.00  0.00    -0.251 A  
HETATM   14  C   UNL     1      -8.730   2.447  65.644  1.00  0.00    -0.121 A  
HETATM   15  C   UNL     1      -8.517   3.337  66.693  1.00  0.00    -0.107 A  
HETATM   16  C   UNL     1      -9.722   2.707  64.700  1.00  0.00    -0.045 A  
HETATM   17  C   UNL     1     -10.469   3.880  64.777  1.00  0.00    -0.164 A  
ENDBRANCH  11  12
ENDBRANCH  10  11
BRANCH  10  18
HETATM   18  C   UNL     1     -10.799   6.972  69.280  1.00  0.00    -0.214 C  
HETATM   19  N   UNL     1     -10.074   7.746  70.157  1.00  0.00    -0.194 N  
HETATM   20  O   UNL     1     -11.934   6.574  69.537  1.00  0.00    -0.150 OA 
HETATM   21  H   UNL     1      -9.152   8.066  69.861  1.00  0.00     0.000 HD 
BRANCH  19  22
HETATM   22  C   UNL     1     -10.541   8.138  71.486  1.00  0.00    -0.228 C  
BRANCH  22  23
HETATM   23  C   UNL     1     -11.313   9.449  71.276  1.00  0.00    -0.366 C  
HETATM   24  O   UNL     1     -10.854  10.381  70.618  1.00  0.00    -0.249 OA 
BRANCH  23  25
HETATM   25  C   UNL     1     -12.670   9.588  71.881  1.00  0.00    -0.411 C  
HETATM   26  O   UNL     1     -12.970   8.663  72.938  1.00  0.00    -0.279 OA 
HETATM   27  C   UNL     1     -13.280  10.943  72.061  1.00  0.00    -0.456 C  
HETATM   28  C   UNL     1     -13.621   8.416  71.686  1.00  0.00    -0.349 C  
ENDBRANCH  23  25
ENDBRANCH  22  23
BRANCH  22  29
HETATM   29  C   UNL     1      -9.406   8.291  72.515  1.00  0.00    -0.350 C  
HETATM   30  C   UNL     1      -8.264   7.249  72.475  1.00  0.00    -0.122 C  
HETATM   31  C   UNL     1      -7.200   7.603  73.522  1.00  0.00    -0.116 C  
HETATM   32  C   UNL     1      -8.706   5.803  72.719  1.00  0.00    -0.118 C  
ENDBRANCH  22  29
ENDBRANCH  19  22
ENDBRANCH  10  18
ENDBRANCH   8  10
ENDBRANCH   5   6
BRANCH   5  33
HETATM   33  N   UNL     1      -9.178  11.305  68.200  1.00  0.00    -0.164 N  
HETATM   34  H   UNL     1      -9.205  11.198  69.214  1.00  0.00     0.000 HD 
HETATM   35  O   UNL     1      -9.615  12.726  66.451  1.00  0.00    -0.251 OA 
HETATM   36  C   UNL     1      -9.606  12.497  67.658  1.00  0.00    -0.190 C  
BRANCH  36  37
HETATM   37  C   UNL     1     -10.046  13.549  68.695  1.00  0.00    -0.166 C  
BRANCH  37  38
HETATM   38  N   UNL     1      -9.811  14.901  68.178  1.00  0.00    -0.215 N  
HETATM   39  O   UNL     1      -8.275  15.307  69.804  1.00  0.00    -0.200 OA 
HETATM   40  C   UNL     1      -8.893  15.705  68.806  1.00  0.00    -0.208 C  
HETATM   41  H   UNL     1     -10.323  15.239  67.363  1.00  0.00     0.000 HD 
BRANCH  40  42
HETATM   42  C   UNL     1      -8.598  17.091  68.223  1.00  0.00    -0.234 C  
BRANCH  42  43
HETATM   43  N   UNL     1      -9.506  17.568  67.152  1.00  0.00    -0.253 NA 
HETATM   44  C   UNL     1     -10.480  19.742  68.143  1.00  0.00    -0.360 C  
HETATM   45  C   UNL     1      -8.760  18.514  66.269  1.00  0.00    -0.203 C  
HETATM   46  O   UNL     1      -9.677  20.534  67.261  1.00  0.00    -0.443 OA 
HETATM   47  C   UNL     1      -8.454  19.868  66.937  1.00  0.00    -0.327 C  
HETATM   48  C   UNL     1     -10.700  18.297  67.644  1.00  0.00    -0.348 C  
ENDBRANCH  42  43
ENDBRANCH  40  42
ENDBRANCH  37  38
BRANCH  37  49
HETATM   49  C   UNL     1     -11.513  13.299  69.058  1.00  0.00    -0.350 C  
BRANCH  49  50
HETATM   50  C   UNL     1     -12.294  14.623  69.100  1.00  0.00    -0.130 C  
BRANCH  50  51
HETATM   51  C   UNL     1     -12.559  15.088  70.505  1.00  0.00    -0.420 A  
HETATM   52  C   UNL     1     -11.588  15.809  71.209  1.00  0.00    -0.499 A  
HETATM   53  C   UNL     1     -11.838  16.241  72.511  1.00  0.00    -0.608 A  
HETATM   54  C   UNL     1     -14.037  15.247  72.422  1.00  0.00    -0.622 A  
HETATM   55  C   UNL     1     -13.788  14.812  71.120  1.00  0.00    -0.388 A  
HETATM   56  C   UNL     1     -13.062  15.960  73.117  1.00  0.00    -0.673 A  
ENDBRANCH  50  51
ENDBRANCH  49  50
ENDBRANCH  37  49
ENDBRANCH  36  37
ENDBRANCH   5  33
ENDBRANCH   3   5
TORSDOF 18
ENDMDL
MODEL       10
REMARK 921   NORMALIZED FREE ENERGY PREDICTED BY IDOCK:   -5.99 KCAL/MOL
REMARK 922        TOTAL FREE ENERGY PREDICTED BY IDOCK:  -15.93 KCAL/MOL
REMARK 923 INTER-LIGAND FREE ENERGY PREDICTED BY IDOCK:  -14.22 KCAL/MOL
REMARK 924 INTRA-LIGAND FREE ENERGY PREDICTED BY IDOCK:   -1.71 KCAL/MOL
REMARK 927      BINDING AFFINITY PREDICTED BY RF-SCORE:    0.00 PKD
ROOT
HETATM    1  C   UNL     1     -11.546  16.008  71.300  1.00  0.00    -0.506 C  
HETATM    2  C   UNL     1     -12.349  14.970  72.088  1.00  0.00    -0.433 C  
HETATM    3  C   UNL     1     -12.996  13.868  71.220  1.00  0.00    -0.414 C  
HETATM    4  C   UNL     1     -13.412  15.691  72.924  1.00  0.00    -0.657 C  
ENDROOT
BRANCH   3   5
HETATM    5  C   UNL     1     -12.015  13.002  70.401  1.00  0.00    -0.258 C  
BRANCH   5   6
HETATM    6  C   UNL     1     -12.045  11.472  70.638  1.00  0.00    -0.353 C  
HETATM    7  H   UNL     1     -10.262  11.256  69.628  1.00  0.00     0.000 HD 
HETATM    8  N   UNL     1     -10.925  10.785  70.244  1.00  0.00    -0.184 N  
HETATM    9  O   UNL     1     -12.971  10.938  71.246  1.00  0.00    -0.384 OA 
BRANCH   8  10
HETATM   10  C   UNL     1     -10.630   9.410  70.661  1.00  0.00    -0.290 C  
BRANCH  10  11
HETATM   11  C   UNL     1     -11.837   8.611  71.202  1.00  0.00    -0.331 C  
BRANCH  11  12
HETATM   12  C   UNL     1     -11.418   7.573  72.216  1.00  0.00    -0.348 A  
HETATM   13  C   UNL     1     -10.434   7.867  73.169  1.00  0.00    -0.348 A  
HETATM   14  C   UNL     1     -11.323   5.244  72.861  1.00  0.00    -0.368 A  
HETATM   15  C   UNL     1     -11.896   6.263  72.106  1.00  0.00    -0.365 A  
HETATM   16  C   UNL     1     -10.292   5.532  73.753  1.00  0.00    -0.271 A  
HETATM   17  C   UNL     1      -9.864   6.846  73.925  1.00  0.00    -0.340 A  
ENDBRANCH  11  12
ENDBRANCH  10  11
BRANCH  10  18
HETATM   18  C   UNL     1      -9.955   8.686  69.463  1.00  0.00    -0.196 C  
HETATM   19  N   UNL     1      -9.562   7.394  69.731  1.00  0.00    -0.163 N  
HETATM   20  O   UNL     1      -9.752   9.223  68.375  1.00  0.00    -0.149 OA 
HETATM   21  H   UNL     1      -9.794   7.005  70.645  1.00  0.00     0.000 HD 
BRANCH  19  22
HETATM   22  C   UNL     1      -8.835   6.544  68.789  1.00  0.00    -0.125 C  
BRANCH  22  23
HETATM   23  C   UNL     1      -9.912   5.913  67.894  1.00  0.00    -0.134 C  
HETATM   24  O   UNL     1     -11.077   5.784  68.265  1.00  0.00    -0.186 OA 
BRANCH  23  25
HETATM   25  C   UNL     1      -9.531   5.456  66.526  1.00  0.00    -0.149 C  
HETATM   26  O   UNL     1     -10.556   4.758  65.802  1.00  0.00    -0.286 OA 
HETATM   27  C   UNL     1      -8.643   6.303  65.669  1.00  0.00    -0.143 C  
HETATM   28  C   UNL     1      -9.484   3.951  66.305  1.00  0.00    -0.188 C  
ENDBRANCH  23  25
ENDBRANCH  22  23
BRANCH  22  29
HETATM   29  C   UNL     1      -7.954   5.483  69.474  1.00  0.00    -0.094 C  
HETATM   30  C   UNL     1      -7.811   5.563  71.012  1.00  0.00    -0.105 C  
HETATM   31  C   UNL     1      -6.958   4.391  71.515  1.00  0.00    -0.038 C  
HETATM   32  C   UNL     1      -7.187   6.861  71.532  1.00  0.00    -0.079 C  
ENDBRANCH  22  29
ENDBRANCH  19  22
ENDBRANCH  10  18
ENDBRANCH   8  10
ENDBRANCH   5   6
BRANCH   5  33
HETATM   33  N   UNL     1     -12.096  13.258  68.959  1.00  0.00    -0.283 N  
HETATM   34  H   UNL     1     -13.020  13.316  68.530  1.00  0.00     0.000 HD 
HETATM   35  O   UNL     1      -9.836  13.372  68.567  1.00  0.00    -0.230 OA 
HETATM   36  C   UNL     1     -10.992  13.425  68.152  1.00  0.00    -0.255 C  
BRANCH  36  37
HETATM   37  C   UNL     1     -11.319  13.719  66.674  1.00  0.00    -0.328 C  
BRANCH  37  38
HETATM   38  N   UNL     1     -11.431  15.165  66.457  1.00  0.00    -0.239 N  
HETATM   39  O   UNL     1      -9.187  15.341  66.143  1.00  0.00    -0.298 OA 
HETATM   40  C   UNL     1     -10.297  15.890  66.191  1.00  0.00    -0.328 C  
HETATM   41  H   UNL     1     -12.340  15.626  66.505  1.00  0.00     0.000 HD 
BRANCH  40  42
HETATM   42  C   UNL     1     -10.424  17.388  65.896  1.00  0.00    -0.252 C  
BRANCH  42  43
HETATM   43  N   UNL     1     -10.785  18.262  67.039  1.00  0.00    -0.335 NA 
HETATM   44  C   UNL     1      -8.578  18.420  68.366  1.00  0.00    -0.325 C  
HETATM   45  C   UNL     1     -10.469  19.677  66.687  1.00  0.00    -0.497 C  
HETATM   46  O   UNL     1      -8.377  19.766  67.920  1.00  0.00    -0.299 OA 
HETATM   47  C   UNL     1      -8.959  19.976  66.631  1.00  0.00    -0.355 C  
HETATM   48  C   UNL     1     -10.051  17.961  68.291  1.00  0.00    -0.375 C  
ENDBRANCH  42  43
ENDBRANCH  40  42
ENDBRANCH  37  38
BRANCH  37  49
HETATM   49  C   UNL     1     -10.248  13.068  65.794  1.00  0.00    -0.297 C  
BRANCH  49  50
HETATM   50  C   UNL     1     -10.700  11.672  65.334  1.00  0.00    -0.341 C  
BRANCH  50  51
HETATM   51  C   UNL     1      -9.565  10.857  64.777  1.00  0.00    -0.301 A  
HETATM   52  C   UNL     1      -9.628  10.353  63.473  1.00  0.00    -0.361 A  
HETATM   53  C   UNL     1      -8.573   9.599  62.959  1.00  0.00    -0.207 A  
HETATM   54  C   UNL     1      -7.374   9.851  65.039  1.00  0.00    -0.135 A  
HETATM   55  C   UNL     1      -8.428  10.603  65.556  1.00  0.00    -0.177 A  
HETATM   56  C   UNL     1      -7.446   9.349  63.741  1.00  0.00    -0.112 A  
ENDBRANCH  50  51
ENDBRANCH  49  50
ENDBRANCH  37  49
ENDBRANCH  36  37
ENDBRANCH   5  33
ENDBRANCH   3   5
TORSDOF 18
ENDMDL
MODEL       11
REMARK 921   NORMALIZED FREE ENERGY PREDICTED BY IDOCK:   -5.99 KCAL/MOL
REMARK 922        TOTAL FREE ENERGY PREDICTED BY IDOCK:  -15.93 KCAL/MOL
REMARK 923 INTER-LIGAND FREE ENERGY PREDICTED BY IDOCK:  -11.54 KCAL/MOL
REMARK 924 INTRA-LIGAND FREE ENERGY PREDICTED BY IDOCK:   -4.38 KCAL/MOL
REMARK 927      BINDING AFFINITY PREDICTED BY RF-SCORE:    0.00 PKD
ROOT
HETATM    1  C   UNL     1      -7.689  10.686  65.338  1.00  0.00    -0.051 C  
HETATM    2  C   UNL     1      -6.702  10.273  66.433  1.00  0.00    -0.100 C  
HETATM    3  C   UNL     1      -6.928  10.969  67.793  1.00  0.00    -0.080 C  
HETATM    4  C   UNL     1      -5.273  10.515  65.935  1.00  0.00    -0.079 C  
ENDROOT
BRANCH   3   5
HETATM    5  C   UNL     1      -8.302  10.721  68.450  1.00  0.00    -0.132 C  
BRANCH   5   6
HETATM    6  C   UNL     1      -8.333   9.860  69.737  1.00  0.00    -0.183 C  
HETATM    7  H   UNL     1     -10.021   8.883  69.073  1.00  0.00     0.000 HD 
HETATM    8  N   UNL     1      -9.271   8.859  69.763  1.00  0.00    -0.160 N  
HETATM    9  O   UNL     1      -7.489  10.001  70.620  1.00  0.00    -0.302 OA 
BRANCH   8  10
HETATM   10  C   UNL     1      -9.253   7.757  70.731  1.00  0.00    -0.157 C  
BRANCH  10  11
HETATM   11  C   UNL     1     -10.639   7.318  71.257  1.00  0.00    -0.236 C  
BRANCH  11  12
HETATM   12  C   UNL     1     -10.525   6.410  72.458  1.00  0.00    -0.225 A  
HETATM   13  C   UNL     1      -9.352   6.389  73.225  1.00  0.00    -0.140 A  
HETATM   14  C   UNL     1     -11.318   4.462  73.651  1.00  0.00    -0.287 A  
HETATM   15  C   UNL     1     -11.529   5.472  72.717  1.00  0.00    -0.339 A  
HETATM   16  C   UNL     1     -10.118   4.403  74.356  1.00  0.00    -0.247 A  
HETATM   17  C   UNL     1      -9.144   5.380  74.160  1.00  0.00    -0.118 A  
ENDBRANCH  11  12
ENDBRANCH  10  11
BRANCH  10  18
HETATM   18  C   UNL     1      -8.485   6.571  70.085  1.00  0.00    -0.135 C  
HETATM   19  N   UNL     1      -9.283   5.687  69.395  1.00  0.00    -0.120 N  
HETATM   20  O   UNL     1      -7.271   6.407  70.203  1.00  0.00    -0.078 OA 
HETATM   21  H   UNL     1     -10.276   5.906  69.311  1.00  0.00     0.000 HD 
BRANCH  19  22
HETATM   22  C   UNL     1      -8.799   4.455  68.775  1.00  0.00    -0.099 C  
BRANCH  22  23
HETATM   23  C   UNL     1      -9.218   4.549  67.300  1.00  0.00    -0.136 C  
HETATM   24  O   UNL     1     -10.336   4.933  66.961  1.00  0.00    -0.208 OA 
BRANCH  23  25
HETATM   25  C   UNL     1      -8.230   4.173  66.248  1.00  0.00    -0.105 C  
HETATM   26  O   UNL     1      -7.360   5.230  65.815  1.00  0.00    -0.077 OA 
HETATM   27  C   UNL     1      -7.589   2.820  66.264  1.00  0.00    -0.076 C  
HETATM   28  C   UNL     1      -8.391   4.852  64.895  1.00  0.00    -0.138 C  
ENDBRANCH  23  25
ENDBRANCH  22  23
BRANCH  22  29
HETATM   29  C   UNL     1      -9.333   3.178  69.450  1.00  0.00    -0.225 C  
HETATM   30  C   UNL     1      -9.207   3.081  70.988  1.00  0.00    -0.200 C  
HETATM   31  C   UNL     1      -9.850   1.778  71.481  1.00  0.00    -0.210 C  
HETATM   32  C   UNL     1      -7.772   3.132  71.520  1.00  0.00    -0.055 C  
ENDBRANCH  22  29
ENDBRANCH  19  22
ENDBRANCH  10  18
ENDBRANCH   8  10
ENDBRANCH   5   6
BRANCH   5  33
HETATM   33  N   UNL     1      -9.051  11.959  68.692  1.00  0.00    -0.359 N  
HETATM   34  H   UNL     1      -8.539  12.772  69.035  1.00  0.00     0.000 HD 
HETATM   35  O   UNL     1     -11.114  11.165  68.073  1.00  0.00    -0.232 OA 
HETATM   36  C   UNL     1     -10.406  12.083  68.482  1.00  0.00    -0.217 C  
BRANCH  36  37
HETATM   37  C   UNL     1     -10.972  13.488  68.770  1.00  0.00    -0.261 C  
BRANCH  37  38
HETATM   38  N   UNL     1      -9.968  14.512  68.466  1.00  0.00    -0.233 N  
HETATM   39  O   UNL     1     -10.415  15.598  70.412  1.00  0.00    -0.315 OA 
HETATM   40  C   UNL     1      -9.760  15.530  69.363  1.00  0.00    -0.283 C  
HETATM   41  H   UNL     1      -9.431  14.468  67.600  1.00  0.00     0.000 HD 
BRANCH  40  42
HETATM   42  C   UNL     1      -8.662  16.560  69.076  1.00  0.00    -0.215 C  
BRANCH  42  43
HETATM   43  N   UNL     1      -9.108  17.949  68.810  1.00  0.00    -0.252 NA 
HETATM   44  C   UNL     1      -7.645  18.653  66.804  1.00  0.00    -0.232 C  
HETATM   45  C   UNL     1     -10.192  17.923  67.784  1.00  0.00    -0.368 C  
HETATM   46  O   UNL     1      -8.766  18.551  65.919  1.00  0.00    -0.490 OA 
HETATM   47  C   UNL     1      -9.694  17.562  66.371  1.00  0.00    -0.288 C  
HETATM   48  C   UNL     1      -8.046  18.840  68.284  1.00  0.00    -0.324 C  
ENDBRANCH  42  43
ENDBRANCH  40  42
ENDBRANCH  37  38
BRANCH  37  49
HETATM   49  C   UNL     1     -12.267  13.670  67.972  1.00  0.00    -0.175 C  
BRANCH  49  50
HETATM   50  C   UNL     1     -12.001  14.464  66.683  1.00  0.00    -0.414 C  
BRANCH  50  51
HETATM   51  C   UNL     1     -11.848  13.571  65.482  1.00  0.00    -0.388 A  
HETATM   52  C   UNL     1     -10.598  13.408  64.874  1.00  0.00    -0.398 A  
HETATM   53  C   UNL     1     -10.460  12.577  63.762  1.00  0.00    -0.451 A  
HETATM   54  C   UNL     1     -12.815  12.053  63.856  1.00  0.00    -0.400 A  
HETATM   55  C   UNL     1     -12.956  12.885  64.967  1.00  0.00    -0.171 A  
HETATM   56  C   UNL     1     -11.568  11.900  63.254  1.00  0.00    -0.380 A  
ENDBRANCH  50  51
ENDBRANCH  49  50
ENDBRANCH  37  49
ENDBRANCH  36  37
ENDBRANCH   5  33
ENDBRANCH   3   5
TORSDOF 18
ENDMDL
MODEL       12
REMARK 921   NORMALIZED FREE ENERGY PREDICTED BY IDOCK:   -5.90 KCAL/MOL
REMARK 922        TOTAL FREE ENERGY PREDICTED BY IDOCK:  -15.73 KCAL/MOL
REMARK 923 INTER-LIGAND FREE ENERGY PREDICTED BY IDOCK:  -13.18 KCAL/MOL
REMARK 924 INTRA-LIGAND FREE ENERGY PREDICTED BY IDOCK:   -2.56 KCAL/MOL
REMARK 927      BINDING AFFINITY PREDICTED BY RF-SCORE:    0.00 PKD
ROOT
HETATM    1  C   UNL     1      -7.242   7.829  68.675  1.00  0.00    -0.085 C  
HETATM    2  C   UNL     1      -7.089   8.791  67.494  1.00  0.00    -0.079 C  
HETATM    3  C   UNL     1      -8.220   9.835  67.369  1.00  0.00    -0.114 C  
HETATM    4  C   UNL     1      -6.961   7.978  66.201  1.00  0.00    -0.058 C  
ENDROOT
BRANCH   3   5
HETATM    5  C   UNL     1      -8.387  10.786  68.573  1.00  0.00    -0.138 C  
BRANCH   5   6
HETATM    6  C   UNL     1      -8.671  12.278  68.271  1.00  0.00    -0.178 C  
HETATM    7  H   UNL     1      -7.569  12.161  66.534  1.00  0.00     0.000 HD 
HETATM    8  N   UNL     1      -8.235  12.733  67.053  1.00  0.00    -0.141 N  
HETATM    9  O   UNL     1      -9.347  12.967  69.034  1.00  0.00     0.214 OA 
BRANCH   8  10
HETATM   10  C   UNL     1      -8.675  13.998  66.457  1.00  0.00     0.079 C  
BRANCH  10  11
HETATM   11  C   UNL     1     -10.191  14.282  66.554  1.00  0.00    -0.277 C  
BRANCH  11  12
HETATM   12  C   UNL     1     -10.989  13.425  65.601  1.00  0.00    -0.292 A  
HETATM   13  C   UNL     1     -10.357  12.765  64.539  1.00  0.00    -0.373 A  
HETATM   14  C   UNL     1     -13.139  12.848  64.656  1.00  0.00    -0.030 A  
HETATM   15  C   UNL     1     -12.385  13.414  65.679  1.00  0.00    -0.521 A  
HETATM   16  C   UNL     1     -12.503  12.259  63.565  1.00  0.00    -0.642 A  
HETATM   17  C   UNL     1     -11.112  12.196  63.518  1.00  0.00    -0.525 A  
ENDBRANCH  11  12
ENDBRANCH  10  11
BRANCH  10  18
HETATM   18  C   UNL     1      -7.837  15.141  67.095  1.00  0.00    -0.205 C  
HETATM   19  N   UNL     1      -8.289  16.407  66.799  1.00  0.00    -0.221 N  
HETATM   20  O   UNL     1      -6.835  14.943  67.780  1.00  0.00    -0.143 OA 
HETATM   21  H   UNL     1      -9.146  16.493  66.254  1.00  0.00     0.000 HD 
BRANCH  19  22
HETATM   22  C   UNL     1      -7.617  17.637  67.218  1.00  0.00    -0.199 C  
BRANCH  22  23
HETATM   23  C   UNL     1      -8.672  18.430  68.004  1.00  0.00    -0.287 C  
HETATM   24  O   UNL     1      -8.366  19.225  68.891  1.00  0.00    -0.360 OA 
BRANCH  23  25
HETATM   25  C   UNL     1     -10.112  18.235  67.669  1.00  0.00    -0.356 C  
HETATM   26  O   UNL     1     -10.432  18.289  66.270  1.00  0.00    -0.399 OA 
HETATM   27  C   UNL     1     -10.944  17.267  68.451  1.00  0.00    -0.171 C  
HETATM   28  C   UNL     1     -10.829  19.425  67.046  1.00  0.00    -0.432 C  
ENDBRANCH  23  25
ENDBRANCH  22  23
BRANCH  22  29
HETATM   29  C   UNL     1      -7.036  18.448  66.045  1.00  0.00    -0.310 C  
HETATM   30  C   UNL     1      -5.576  18.940  66.175  1.00  0.00    -0.181 C  
HETATM   31  C   UNL     1      -5.156  19.665  64.889  1.00  0.00    -0.184 C  
HETATM   32  C   UNL     1      -5.318  19.881  67.355  1.00  0.00    -0.171 C  
ENDBRANCH  22  29
ENDBRANCH  19  22
ENDBRANCH  10  18
ENDBRANCH   8  10
ENDBRANCH   5   6
BRANCH   5  33
HETATM   33  N   UNL     1      -9.374  10.305  69.547  1.00  0.00    -0.325 N  
HETATM   34  H   UNL     1      -9.146  10.376  70.539  1.00  0.00     0.000 HD 
HETATM   35  O   UNL     1     -10.959   9.630  68.029  1.00  0.00    -0.227 OA 
HETATM   36  C   UNL     1     -10.590   9.762  69.195  1.00  0.00    -0.218 C  
BRANCH  36  37
HETATM   37  C   UNL     1     -11.479   9.358  70.387  1.00  0.00    -0.223 C  
BRANCH  37  38
HETATM   38  N   UNL     1     -10.769   8.409  71.251  1.00  0.00    -0.221 N  
HETATM   39  O   UNL     1     -12.404   6.855  70.970  1.00  0.00    -0.381 OA 
HETATM   40  C   UNL     1     -11.319   7.172  71.476  1.00  0.00    -0.255 C  
HETATM   41  H   UNL     1      -9.880   8.666  71.679  1.00  0.00     0.000 HD 
BRANCH  40  42
HETATM   42  C   UNL     1     -10.542   6.157  72.323  1.00  0.00    -0.216 C  
BRANCH  42  43
HETATM   43  N   UNL     1      -9.174   5.817  71.863  1.00  0.00    -0.145 NA 
HETATM   44  C   UNL     1      -8.593   3.731  73.265  1.00  0.00    -0.090 C  
HETATM   45  C   UNL     1      -9.269   4.826  70.751  1.00  0.00    -0.139 C  
HETATM   46  O   UNL     1      -8.754   2.886  72.121  1.00  0.00    -0.072 OA 
HETATM   47  C   UNL     1      -9.716   3.425  71.211  1.00  0.00    -0.157 C  
HETATM   48  C   UNL     1      -8.314   5.207  72.905  1.00  0.00    -0.109 C  
ENDBRANCH  42  43
ENDBRANCH  40  42
ENDBRANCH  37  38
BRANCH  37  49
HETATM   49  C   UNL     1     -11.915  10.625  71.128  1.00  0.00    -0.401 C  
BRANCH  49  50
HETATM   50  C   UNL     1     -12.369  11.705  70.133  1.00  0.00    -0.297 C  
BRANCH  50  51
HETATM   51  C   UNL     1     -12.759  12.987  70.816  1.00  0.00    -0.243 A  
HETATM   52  C   UNL     1     -12.495  14.222  70.211  1.00  0.00    -0.422 A  
HETATM   53  C   UNL     1     -12.860  15.409  70.847  1.00  0.00    -0.536 A  
HETATM   54  C   UNL     1     -13.765  14.146  72.694  1.00  0.00    -0.568 A  
HETATM   55  C   UNL     1     -13.400  12.957  72.062  1.00  0.00    -0.579 A  
HETATM   56  C   UNL     1     -13.495  15.370  72.087  1.00  0.00    -0.570 A  
ENDBRANCH  50  51
ENDBRANCH  49  50
ENDBRANCH  37  49
ENDBRANCH  36  37
ENDBRANCH   5  33
ENDBRANCH   3   5
TORSDOF 18
ENDMDL
MODEL       13
REMARK 921   NORMALIZED FREE ENERGY PREDICTED BY IDOCK:   -5.83 KCAL/MOL
REMARK 922        TOTAL FREE ENERGY PREDICTED BY IDOCK:  -15.60 KCAL/MOL
REMARK 923 INTER-LIGAND FREE ENERGY PREDICTED BY IDOCK:  -12.24 KCAL/MOL
REMARK 924 INTRA-LIGAND FREE ENERGY PREDICTED BY IDOCK:   -3.36 KCAL/MOL
REMARK 927      BINDING AFFINITY PREDICTED BY RF-SCORE:    0.00 PKD
ROOT
HETATM    1  C   UNL     1     -10.403  11.206  65.464  1.00  0.00    -0.326 C  
HETATM    2  C   UNL     1     -11.253  12.434  65.126  1.00  0.00    -0.356 C  
HETATM    3  C   UNL     1     -12.158  12.922  66.279  1.00  0.00    -0.433 C  
HETATM    4  C   UNL     1     -12.088  12.133  63.877  1.00  0.00    -0.584 C  
ENDROOT
BRANCH   3   5
HETATM    5  C   UNL     1     -11.424  13.350  67.568  1.00  0.00    -0.323 C  
BRANCH   5   6
HETATM    6  C   UNL     1     -11.632  12.478  68.831  1.00  0.00    -0.318 C  
HETATM    7  H   UNL     1     -10.885  10.830  67.846  1.00  0.00     0.000 HD 
HETATM    8  N   UNL     1     -11.138  11.200  68.761  1.00  0.00    -0.214 N  
HETATM    9  O   UNL     1     -12.108  12.951  69.862  1.00  0.00    -0.309 OA 
BRANCH   8  10
HETATM   10  C   UNL     1     -10.954  10.339  69.934  1.00  0.00    -0.303 C  
BRANCH  10  11
HETATM   11  C   UNL     1     -12.242   9.679  70.477  1.00  0.00    -0.153 C  
BRANCH  11  12
HETATM   12  C   UNL     1     -11.940   8.578  71.465  1.00  0.00    -0.354 A  
HETATM   13  C   UNL     1     -10.957   8.757  72.449  1.00  0.00    -0.229 A  
HETATM   14  C   UNL     1     -12.061   6.232  72.037  1.00  0.00    -0.321 A  
HETATM   15  C   UNL     1     -12.526   7.319  71.303  1.00  0.00    -0.402 A  
HETATM   16  C   UNL     1     -11.031   6.401  72.959  1.00  0.00    -0.269 A  
HETATM   17  C   UNL     1     -10.496   7.668  73.183  1.00  0.00    -0.433 A  
ENDBRANCH  11  12
ENDBRANCH  10  11
BRANCH  10  18
HETATM   18  C   UNL     1      -9.875   9.279  69.579  1.00  0.00    -0.181 C  
HETATM   19  N   UNL     1     -10.338   8.236  68.807  1.00  0.00    -0.211 N  
HETATM   20  O   UNL     1      -8.713   9.337  69.976  1.00  0.00    -0.158 OA 
HETATM   21  H   UNL     1     -11.305   8.272  68.487  1.00  0.00     0.000 HD 
BRANCH  19  22
HETATM   22  C   UNL     1      -9.530   7.081  68.417  1.00  0.00    -0.133 C  
BRANCH  22  23
HETATM   23  C   UNL     1     -10.260   6.459  67.218  1.00  0.00    -0.187 C  
HETATM   24  O   UNL     1     -11.447   6.683  66.986  1.00  0.00    -0.233 OA 
BRANCH  23  25
HETATM   25  C   UNL     1      -9.497   5.566  66.298  1.00  0.00    -0.157 C  
HETATM   26  O   UNL     1     -10.289   4.624  65.557  1.00  0.00    -0.235 OA 
HETATM   27  C   UNL     1      -8.310   6.090  65.552  1.00  0.00    -0.146 C  
HETATM   28  C   UNL     1      -9.512   4.081  66.631  1.00  0.00    -0.197 C  
ENDBRANCH  23  25
ENDBRANCH  22  23
BRANCH  22  29
HETATM   29  C   UNL     1      -9.319   6.068  69.558  1.00  0.00    -0.151 C  
HETATM   30  C   UNL     1      -7.912   5.999  70.196  1.00  0.00    -0.106 C  
HETATM   31  C   UNL     1      -7.916   4.988  71.351  1.00  0.00    -0.111 C  
HETATM   32  C   UNL     1      -6.788   5.612  69.232  1.00  0.00    -0.062 C  
ENDBRANCH  22  29
ENDBRANCH  19  22
ENDBRANCH  10  18
ENDBRANCH   8  10
ENDBRANCH   5   6
BRANCH   5  33
HETATM   33  N   UNL     1      -9.986  13.552  67.365  1.00  0.00    -0.231 N  
HETATM   34  H   UNL     1      -9.544  13.101  66.564  1.00  0.00     0.000 HD 
HETATM   35  O   UNL     1      -9.632  14.902  69.188  1.00  0.00    -0.210 OA 
HETATM   36  C   UNL     1      -9.199  14.318  68.196  1.00  0.00    -0.202 C  
BRANCH  36  37
HETATM   37  C   UNL     1      -7.722  14.418  67.767  1.00  0.00    -0.161 C  
BRANCH  37  38
HETATM   38  N   UNL     1      -7.308  13.188  67.084  1.00  0.00    -0.367 N  
HETATM   39  O   UNL     1      -5.258  13.278  68.061  1.00  0.00    -0.091 OA 
HETATM   40  C   UNL     1      -6.047  12.694  67.305  1.00  0.00    -0.082 C  
HETATM   41  H   UNL     1      -7.949  12.707  66.453  1.00  0.00     0.000 HD 
BRANCH  40  42
HETATM   42  C   UNL     1      -5.641  11.372  66.645  1.00  0.00    -0.138 C  
BRANCH  42  43
HETATM   43  N   UNL     1      -6.726  10.391  66.399  1.00  0.00    -0.099 NA 
HETATM   44  C   UNL     1      -5.991   9.251  64.204  1.00  0.00    -0.076 C  
HETATM   45  C   UNL     1      -6.341   9.081  67.002  1.00  0.00    -0.060 C  
HETATM   46  O   UNL     1      -5.625   8.064  64.915  1.00  0.00    -0.042 OA 
HETATM   47  C   UNL     1      -5.204   8.366  66.247  1.00  0.00    -0.027 C  
HETATM   48  C   UNL     1      -7.003  10.135  64.966  1.00  0.00    -0.135 C  
ENDBRANCH  42  43
ENDBRANCH  40  42
ENDBRANCH  37  38
BRANCH  37  49
HETATM   49  C   UNL     1      -7.544  15.668  66.900  1.00  0.00    -0.201 C  
BRANCH  49  50
HETATM   50  C   UNL     1      -7.327  16.910  67.779  1.00  0.00    -0.169 C  
BRANCH  50  51
HETATM   51  C   UNL     1      -8.338  17.989  67.506  1.00  0.00    -0.233 A  
HETATM   52  C   UNL     1      -9.373  18.238  68.416  1.00  0.00    -0.328 A  
HETATM   53  C   UNL     1     -10.308  19.241  68.161  1.00  0.00    -0.496 A  
HETATM   54  C   UNL     1      -9.183  19.768  66.091  1.00  0.00    -0.418 A  
HETATM   55  C   UNL     1      -8.247  18.764  66.342  1.00  0.00    -0.299 A  
HETATM   56  C   UNL     1     -10.212  20.006  66.999  1.00  0.00    -0.587 A  
ENDBRANCH  50  51
ENDBRANCH  49  50
ENDBRANCH  37  49
ENDBRANCH  36  37
ENDBRANCH   5  33
ENDBRANCH   3   5
TORSDOF 18
ENDMDL
MODEL       14
REMARK 921   NORMALIZED FREE ENERGY PREDICTED BY IDOCK:   -5.81 KCAL/MOL
REMARK 922        TOTAL FREE ENERGY PREDICTED BY IDOCK:  -15.56 KCAL/MOL
REMARK 923 INTER-LIGAND FREE ENERGY PREDICTED BY IDOCK:  -11.64 KCAL/MOL
REMARK 924 INTRA-LIGAND FREE ENERGY PREDICTED BY IDOCK:   -3.92 KCAL/MOL
REMARK 927      BINDING AFFINITY PREDICTED BY RF-SCORE:    0.00 PKD
ROOT
HETATM    1  C   UNL     1     -10.375  10.971  66.226  1.00  0.00    -0.304 C  
HETATM    2  C   UNL     1     -11.121  12.295  66.041  1.00  0.00    -0.347 C  
HETATM    3  C   UNL     1     -12.016  12.698  67.234  1.00  0.00    -0.321 C  
HETATM    4  C   UNL     1     -11.944  12.227  64.749  1.00  0.00    -0.429 C  
ENDROOT
BRANCH   3   5
HETATM    5  C   UNL     1     -11.285  12.895  68.579  1.00  0.00    -0.274 C  
BRANCH   5   6
HETATM    6  C   UNL     1     -11.503  11.821  69.673  1.00  0.00    -0.270 C  
HETATM    7  H   UNL     1     -10.402  10.458  68.590  1.00  0.00     0.000 HD 
HETATM    8  N   UNL     1     -10.814  10.647  69.503  1.00  0.00    -0.244 N  
HETATM    9  O   UNL     1     -12.162  12.063  70.683  1.00  0.00    -0.374 OA 
BRANCH   8  10
HETATM   10  C   UNL     1     -10.638   9.651  70.564  1.00  0.00    -0.306 C  
BRANCH  10  11
HETATM   11  C   UNL     1     -11.942   9.008  71.089  1.00  0.00    -0.356 C  
BRANCH  11  12
HETATM   12  C   UNL     1     -11.667   7.859  72.029  1.00  0.00    -0.360 A  
HETATM   13  C   UNL     1     -10.694   7.978  73.031  1.00  0.00    -0.325 A  
HETATM   14  C   UNL     1     -11.827   5.490  72.491  1.00  0.00    -0.158 A  
HETATM   15  C   UNL     1     -12.268   6.617  71.803  1.00  0.00    -0.400 A  
HETATM   16  C   UNL     1     -10.806   5.603  73.433  1.00  0.00    -0.315 A  
HETATM   17  C   UNL     1     -10.257   6.851  73.721  1.00  0.00    -0.396 A  
ENDBRANCH  11  12
ENDBRANCH  10  11
BRANCH  10  18
HETATM   18  C   UNL     1      -9.640   8.578  70.046  1.00  0.00    -0.169 C  
HETATM   19  N   UNL     1     -10.184   7.682  69.153  1.00  0.00    -0.199 N  
HETATM   20  O   UNL     1      -8.471   8.505  70.422  1.00  0.00    -0.123 OA 
HETATM   21  H   UNL     1     -11.151   7.826  68.863  1.00  0.00     0.000 HD 
BRANCH  19  22
HETATM   22  C   UNL     1      -9.463   6.539  68.595  1.00  0.00    -0.123 C  
BRANCH  22  23
HETATM   23  C   UNL     1      -9.881   6.475  67.118  1.00  0.00    -0.148 C  
HETATM   24  O   UNL     1     -10.714   7.243  66.640  1.00  0.00    -0.243 OA 
BRANCH  23  25
HETATM   25  C   UNL     1      -9.244   5.455  66.236  1.00  0.00    -0.152 C  
HETATM   26  O   UNL     1      -7.810   5.400  66.293  1.00  0.00    -0.098 OA 
HETATM   27  C   UNL     1      -9.900   4.126  66.024  1.00  0.00    -0.206 C  
HETATM   28  C   UNL     1      -8.367   5.987  65.111  1.00  0.00    -0.140 C  
ENDBRANCH  23  25
ENDBRANCH  22  23
BRANCH  22  29
HETATM   29  C   UNL     1      -9.742   5.218  69.335  1.00  0.00    -0.241 C  
HETATM   30  C   UNL     1      -8.701   4.754  70.380  1.00  0.00    -0.125 C  
HETATM   31  C   UNL     1      -9.183   3.463  71.056  1.00  0.00    -0.197 C  
HETATM   32  C   UNL     1      -7.299   4.500  69.820  1.00  0.00    -0.051 C  
ENDBRANCH  22  29
ENDBRANCH  19  22
ENDBRANCH  10  18
ENDBRANCH   8  10
ENDBRANCH   5   6
BRANCH   5  33
HETATM   33  N   UNL     1      -9.845  13.121  68.418  1.00  0.00    -0.280 N  
HETATM   34  H   UNL     1      -9.224  12.311  68.445  1.00  0.00     0.000 HD 
HETATM   35  O   UNL     1      -9.942  15.403  68.187  1.00  0.00    -0.218 OA 
HETATM   36  C   UNL     1      -9.285  14.365  68.233  1.00  0.00    -0.201 C  
BRANCH  36  37
HETATM   37  C   UNL     1      -7.754  14.357  68.051  1.00  0.00    -0.138 C  
BRANCH  37  38
HETATM   38  N   UNL     1      -7.171  15.587  68.598  1.00  0.00    -0.118 N  
HETATM   39  O   UNL     1      -6.602  16.299  66.516  1.00  0.00    -0.224 OA 
HETATM   40  C   UNL     1      -6.621  16.504  67.738  1.00  0.00    -0.141 C  
HETATM   41  H   UNL     1      -7.175  15.758  69.603  1.00  0.00     0.000 HD 
BRANCH  40  42
HETATM   42  C   UNL     1      -6.076  17.820  68.304  1.00  0.00    -0.171 C  
BRANCH  42  43
HETATM   43  N   UNL     1      -7.068  18.749  68.897  1.00  0.00    -0.301 NA 
HETATM   44  C   UNL     1      -5.987  21.063  68.531  1.00  0.00    -0.276 C  
HETATM   45  C   UNL     1      -8.001  19.211  67.828  1.00  0.00    -0.273 C  
HETATM   46  O   UNL     1      -6.925  21.364  67.492  1.00  0.00    -0.539 OA 
HETATM   47  C   UNL     1      -7.350  20.177  66.819  1.00  0.00    -0.268 C  
HETATM   48  C   UNL     1      -6.476  19.966  69.502  1.00  0.00    -0.354 C  
ENDBRANCH  42  43
ENDBRANCH  40  42
ENDBRANCH  37  38
BRANCH  37  49
HETATM   49  C   UNL     1      -7.187  13.091  68.702  1.00  0.00    -0.101 C  
BRANCH  49  50
HETATM   50  C   UNL     1      -5.943  12.603  67.943  1.00  0.00    -0.108 C  
BRANCH  50  51
HETATM   51  C   UNL     1      -6.191  11.315  67.206  1.00  0.00    -0.081 A  
HETATM   52  C   UNL     1      -5.587  11.081  65.964  1.00  0.00    -0.143 A  
HETATM   53  C   UNL     1      -5.817   9.885  65.285  1.00  0.00    -0.078 A  
HETATM   54  C   UNL     1      -7.247   9.136  67.079  1.00  0.00    -0.090 A  
HETATM   55  C   UNL     1      -7.021  10.332  67.761  1.00  0.00    -0.083 A  
HETATM   56  C   UNL     1      -6.646   8.913  65.843  1.00  0.00    -0.057 A  
ENDBRANCH  50  51
ENDBRANCH  49  50
ENDBRANCH  37  49
ENDBRANCH  36  37
ENDBRANCH   5  33
ENDBRANCH   3   5
TORSDOF 18
ENDMDL
MODEL       15
REMARK 921   NORMALIZED FREE ENERGY PREDICTED BY IDOCK:   -5.76 KCAL/MOL
REMARK 922        TOTAL FREE ENERGY PREDICTED BY IDOCK:  -15.46 KCAL/MOL
REMARK 923 INTER-LIGAND FREE ENERGY PREDICTED BY IDOCK:  -12.19 KCAL/MOL
REMARK 924 INTRA-LIGAND FREE ENERGY PREDICTED BY IDOCK:   -3.26 KCAL/MOL
REMARK 927      BINDING AFFINITY PREDICTED BY RF-SCORE:    0.00 PKD
ROOT
HETATM    1  C   UNL     1      -8.447   9.582  64.582  1.00  0.00    -0.177 C  
HETATM    2  C   UNL     1      -9.090  10.968  64.681  1.00  0.00    -0.138 C  
HETATM    3  C   UNL     1      -9.399  11.428  66.122  1.00  0.00    -0.232 C  
HETATM    4  C   UNL     1     -10.360  10.991  63.824  1.00  0.00    -0.427 C  
ENDROOT
BRANCH   3   5
HETATM    5  C   UNL     1      -8.181  11.541  67.064  1.00  0.00    -0.167 C  
BRANCH   5   6
HETATM    6  C   UNL     1      -8.017  12.856  67.864  1.00  0.00    -0.156 C  
HETATM    7  H   UNL     1      -6.456  13.430  66.648  1.00  0.00     0.000 HD 
HETATM    8  N   UNL     1      -7.115  13.756  67.355  1.00  0.00    -0.143 N  
HETATM    9  O   UNL     1      -8.740  13.113  68.825  1.00  0.00    -0.010 OA 
BRANCH   8  10
HETATM   10  C   UNL     1      -7.046  15.159  67.774  1.00  0.00    -0.165 C  
BRANCH  10  11
HETATM   11  C   UNL     1      -5.900  15.982  67.142  1.00  0.00     0.016 C  
BRANCH  11  12
HETATM   12  C   UNL     1      -5.948  17.432  67.561  1.00  0.00    -0.161 A  
HETATM   13  C   UNL     1      -5.914  17.781  68.918  1.00  0.00    -0.197 A  
HETATM   14  C   UNL     1      -6.494  19.720  67.004  1.00  0.00    -0.208 A  
HETATM   15  C   UNL     1      -6.186  18.423  66.605  1.00  0.00    -0.201 A  
HETATM   16  C   UNL     1      -6.533  20.043  68.359  1.00  0.00    -0.324 A  
HETATM   17  C   UNL     1      -6.220  19.079  69.315  1.00  0.00    -0.296 A  
ENDBRANCH  11  12
ENDBRANCH  10  11
BRANCH  10  18
HETATM   18  C   UNL     1      -8.432  15.804  67.499  1.00  0.00    -0.168 C  
HETATM   19  N   UNL     1      -9.104  16.207  68.631  1.00  0.00    -0.207 N  
HETATM   20  O   UNL     1      -8.914  15.919  66.373  1.00  0.00    -0.266 OA 
HETATM   21  H   UNL     1      -8.628  16.111  69.528  1.00  0.00     0.000 HD 
BRANCH  19  22
HETATM   22  C   UNL     1     -10.456  16.765  68.630  1.00  0.00    -0.333 C  
BRANCH  22  23
HETATM   23  C   UNL     1     -11.397  15.552  68.681  1.00  0.00    -0.344 C  
HETATM   24  O   UNL     1     -11.801  14.993  67.663  1.00  0.00    -0.328 OA 
BRANCH  23  25
HETATM   25  C   UNL     1     -11.821  15.029  70.012  1.00  0.00    -0.319 C  
HETATM   26  O   UNL     1     -12.668  15.903  70.776  1.00  0.00    -0.409 OA 
HETATM   27  C   UNL     1     -12.123  13.574  70.189  1.00  0.00    -0.425 C  
HETATM   28  C   UNL     1     -11.314  15.789  71.230  1.00  0.00    -0.376 C  
ENDBRANCH  23  25
ENDBRANCH  22  23
BRANCH  22  29
HETATM   29  C   UNL     1     -10.744  17.672  67.419  1.00  0.00    -0.262 C  
HETATM   30  C   UNL     1      -9.952  18.996  67.318  1.00  0.00    -0.410 C  
HETATM   31  C   UNL     1     -10.323  19.726  66.020  1.00  0.00    -0.612 C  
HETATM   32  C   UNL     1     -10.170  19.965  68.484  1.00  0.00    -0.529 C  
ENDBRANCH  22  29
ENDBRANCH  19  22
ENDBRANCH  10  18
ENDBRANCH   8  10
ENDBRANCH   5   6
BRANCH   5  33
HETATM   33  N   UNL     1      -8.068  10.408  67.988  1.00  0.00    -0.109 N  
HETATM   34  H   UNL     1      -8.927  10.000  68.359  1.00  0.00     0.000 HD 
HETATM   35  O   UNL     1      -5.776  10.281  67.998  1.00  0.00    -0.041 OA 
HETATM   36  C   UNL     1      -6.866   9.864  68.384  1.00  0.00    -0.063 C  
BRANCH  36  37
HETATM   37  C   UNL     1      -6.991   8.656  69.333  1.00  0.00    -0.053 C  
BRANCH  37  38
HETATM   38  N   UNL     1      -8.360   8.556  69.849  1.00  0.00    -0.120 N  
HETATM   39  O   UNL     1      -7.675   9.177  71.925  1.00  0.00    -0.339 OA 
HETATM   40  C   UNL     1      -8.599   8.846  71.169  1.00  0.00    -0.208 C  
HETATM   41  H   UNL     1      -9.125   8.275  69.235  1.00  0.00     0.000 HD 
BRANCH  40  42
HETATM   42  C   UNL     1     -10.040   8.808  71.690  1.00  0.00    -0.319 C  
BRANCH  42  43
HETATM   43  N   UNL     1     -11.116   8.857  70.670  1.00  0.00    -0.255 NA 
HETATM   44  C   UNL     1     -12.919   7.298  71.656  1.00  0.00    -0.372 C  
HETATM   45  C   UNL     1     -12.088   9.927  71.042  1.00  0.00    -0.358 C  
HETATM   46  O   UNL     1     -13.741   8.421  71.994  1.00  0.00    -0.362 OA 
HETATM   47  C   UNL     1     -12.947   9.577  72.272  1.00  0.00    -0.384 C  
HETATM   48  C   UNL     1     -11.892   7.601  70.543  1.00  0.00    -0.080 C  
ENDBRANCH  42  43
ENDBRANCH  40  42
ENDBRANCH  37  38
BRANCH  37  49
HETATM   49  C   UNL     1      -6.544   7.395  68.588  1.00  0.00    -0.045 C  
BRANCH  49  50
HETATM   50  C   UNL     1      -7.015   7.435  67.125  1.00  0.00    -0.083 C  
BRANCH  50  51
HETATM   51  C   UNL     1      -8.129   6.462  66.855  1.00  0.00    -0.109 A  
HETATM   52  C   UNL     1      -8.247   5.850  65.601  1.00  0.00    -0.134 A  
HETATM   53  C   UNL     1      -9.280   4.945  65.355  1.00  0.00    -0.157 A  
HETATM   54  C   UNL     1     -10.084   5.243  67.611  1.00  0.00    -0.216 A  
HETATM   55  C   UNL     1      -9.054   6.149  67.860  1.00  0.00    -0.117 A  
HETATM   56  C   UNL     1     -10.197   4.642  66.360  1.00  0.00    -0.293 A  
ENDBRANCH  50  51
ENDBRANCH  49  50
ENDBRANCH  37  49
ENDBRANCH  36  37
ENDBRANCH   5  33
ENDBRANCH   3   5
TORSDOF 18
ENDMDL
MODEL       16
REMARK 921   NORMALIZED FREE ENERGY PREDICTED BY IDOCK:   -5.72 KCAL/MOL
REMARK 922        TOTAL FREE ENERGY PREDICTED BY IDOCK:  -15.37 KCAL/MOL
REMARK 923 INTER-LIGAND FREE ENERGY PREDICTED BY IDOCK:  -11.28 KCAL/MOL
REMARK 924 INTRA-LIGAND FREE ENERGY PREDICTED BY IDOCK:   -4.09 KCAL/MOL
REMARK 927      BINDING AFFINITY PREDICTED BY RF-SCORE:    0.00 PKD
ROOT
HETATM    1  C   UNL     1      -7.809   9.936  69.206  1.00  0.00    -0.117 C  
HETATM    2  C   UNL     1      -6.630  10.853  69.542  1.00  0.00    -0.109 C  
HETATM    3  C   UNL     1      -5.493  10.841  68.497  1.00  0.00    -0.040 C  
HETATM    4  C   UNL     1      -6.091  10.484  70.929  1.00  0.00     0.017 C  
ENDROOT
BRANCH   3   5
HETATM    5  C   UNL     1      -5.888  11.290  67.074  1.00  0.00    -0.091 C  
BRANCH   5   6
HETATM    6  C   UNL     1      -5.903  10.211  65.964  1.00  0.00    -0.074 C  
HETATM    7  H   UNL     1      -5.540   8.737  67.357  1.00  0.00     0.000 HD 
HETATM    8  N   UNL     1      -5.828   8.911  66.394  1.00  0.00    -0.053 N  
HETATM    9  O   UNL     1      -6.087  10.510  64.785  1.00  0.00    -0.125 OA 
BRANCH   8  10
HETATM   10  C   UNL     1      -6.141   7.758  65.544  1.00  0.00    -0.038 C  
BRANCH  10  11
HETATM   11  C   UNL     1      -5.693   6.387  66.100  1.00  0.00    -0.021 C  
BRANCH  11  12
HETATM   12  C   UNL     1      -6.544   5.945  67.267  1.00  0.00    -0.056 A  
HETATM   13  C   UNL     1      -6.550   6.680  68.461  1.00  0.00    -0.051 A  
HETATM   14  C   UNL     1      -7.769   4.176  68.370  1.00  0.00    -0.070 A  
HETATM   15  C   UNL     1      -7.205   4.714  67.218  1.00  0.00    -0.073 A  
HETATM   16  C   UNL     1      -7.706   4.879  69.572  1.00  0.00    -0.067 A  
HETATM   17  C   UNL     1      -7.118   6.141  69.612  1.00  0.00    -0.073 A  
ENDBRANCH  11  12
ENDBRANCH  10  11
BRANCH  10  18
HETATM   18  C   UNL     1      -7.666   7.784  65.250  1.00  0.00    -0.102 C  
HETATM   19  N   UNL     1      -8.378   8.670  66.028  1.00  0.00    -0.125 N  
HETATM   20  O   UNL     1      -8.208   7.057  64.419  1.00  0.00    -0.084 OA 
HETATM   21  H   UNL     1      -7.857   9.265  66.672  1.00  0.00     0.000 HD 
BRANCH  19  22
HETATM   22  C   UNL     1      -9.833   8.812  65.989  1.00  0.00    -0.164 C  
BRANCH  22  23
HETATM   23  C   UNL     1     -10.091  10.317  65.830  1.00  0.00    -0.255 C  
HETATM   24  O   UNL     1     -10.187  11.071  66.796  1.00  0.00    -0.212 OA 
BRANCH  23  25
HETATM   25  C   UNL     1     -10.215  10.882  64.454  1.00  0.00    -0.358 C  
HETATM   26  O   UNL     1     -10.292  12.314  64.381  1.00  0.00    -0.299 OA 
HETATM   27  C   UNL     1      -9.486  10.248  63.311  1.00  0.00    -0.342 C  
HETATM   28  C   UNL     1     -11.514  11.608  64.136  1.00  0.00    -0.280 C  
ENDBRANCH  23  25
ENDBRANCH  22  23
BRANCH  22  29
HETATM   29  C   UNL     1     -10.538   8.230  67.228  1.00  0.00    -0.335 C  
HETATM   30  C   UNL     1     -10.265   6.746  67.571  1.00  0.00    -0.241 C  
HETATM   31  C   UNL     1     -10.997   6.370  68.866  1.00  0.00    -0.412 C  
HETATM   32  C   UNL     1     -10.680   5.750  66.485  1.00  0.00    -0.274 C  
ENDBRANCH  22  29
ENDBRANCH  19  22
ENDBRANCH  10  18
ENDBRANCH   8  10
ENDBRANCH   5   6
BRANCH   5  33
HETATM   33  N   UNL     1      -7.159  12.021  67.040  1.00  0.00    -0.283 N  
HETATM   34  H   UNL     1      -8.015  11.493  66.866  1.00  0.00     0.000 HD 
HETATM   35  O   UNL     1      -6.294  14.109  67.445  1.00  0.00    -0.324 OA 
HETATM   36  C   UNL     1      -7.261  13.382  67.230  1.00  0.00    -0.006 C  
BRANCH  36  37
HETATM   37  C   UNL     1      -8.702  13.928  67.186  1.00  0.00    -0.221 C  
BRANCH  37  38
HETATM   38  N   UNL     1      -9.341  13.781  68.498  1.00  0.00    -0.305 N  
HETATM   39  O   UNL     1     -11.396  14.125  67.591  1.00  0.00    -0.291 OA 
HETATM   40  C   UNL     1     -10.705  13.893  68.592  1.00  0.00    -0.260 C  
HETATM   41  H   UNL     1      -8.778  13.599  69.329  1.00  0.00     0.000 HD 
BRANCH  40  42
HETATM   42  C   UNL     1     -11.377  13.670  69.952  1.00  0.00    -0.056 C  
BRANCH  42  43
HETATM   43  N   UNL     1     -12.653  14.389  70.188  1.00  0.00    -0.332 NA 
HETATM   44  C   UNL     1     -13.109  13.954  72.689  1.00  0.00    -0.429 C  
HETATM   45  C   UNL     1     -12.350  15.771  70.665  1.00  0.00    -0.371 C  
HETATM   46  O   UNL     1     -12.754  15.302  73.014  1.00  0.00    -0.361 OA 
HETATM   47  C   UNL     1     -11.786  15.818  72.098  1.00  0.00    -0.496 C  
HETATM   48  C   UNL     1     -13.523  13.766  71.213  1.00  0.00    -0.164 C  
ENDBRANCH  42  43
ENDBRANCH  40  42
ENDBRANCH  37  38
BRANCH  37  49
HETATM   49  C   UNL     1      -8.664  15.381  66.704  1.00  0.00    -0.332 C  
BRANCH  49  50
HETATM   50  C   UNL     1      -8.569  16.345  67.897  1.00  0.00    -0.175 C  
BRANCH  50  51
HETATM   51  C   UNL     1      -9.093  17.716  67.569  1.00  0.00    -0.239 A  
HETATM   52  C   UNL     1     -10.023  18.341  68.410  1.00  0.00    -0.401 A  
HETATM   53  C   UNL     1     -10.504  19.613  68.104  1.00  0.00    -0.503 A  
HETATM   54  C   UNL     1      -9.129  19.661  66.120  1.00  0.00    -0.380 A  
HETATM   55  C   UNL     1      -8.647  18.388  66.422  1.00  0.00    -0.264 A  
HETATM   56  C   UNL     1     -10.057  20.273  66.960  1.00  0.00    -0.567 A  
ENDBRANCH  50  51
ENDBRANCH  49  50
ENDBRANCH  37  49
ENDBRANCH  36  37
ENDBRANCH   5  33
ENDBRANCH   3   5
TORSDOF 18
ENDMDL
MODEL       17
REMARK 921   NORMALIZED FREE ENERGY PREDICTED BY IDOCK:   -5.65 KCAL/MOL
REMARK 922        TOTAL FREE ENERGY PREDICTED BY IDOCK:  -15.22 KCAL/MOL
REMARK 923 INTER-LIGAND FREE ENERGY PREDICTED BY IDOCK:  -13.81 KCAL/MOL
REMARK 924 INTRA-LIGAND FREE ENERGY PREDICTED BY IDOCK:   -1.41 KCAL/MOL
REMARK 927      BINDING AFFINITY PREDICTED BY RF-SCORE:    0.00 PKD
ROOT
HETATM    1  C   UNL     1     -11.694   8.861  72.203  1.00  0.00    -0.411 C  
HETATM    2  C   UNL     1     -13.000   8.994  71.415  1.00  0.00    -0.343 C  
HETATM    3  C   UNL     1     -13.075  10.241  70.507  1.00  0.00    -0.198 C  
HETATM    4  C   UNL     1     -14.178   8.970  72.396  1.00  0.00    -0.416 C  
ENDROOT
BRANCH   3   5
HETATM    5  C   UNL     1     -11.995  10.332  69.408  1.00  0.00     0.017 C  
BRANCH   5   6
HETATM    6  C   UNL     1     -11.242  11.677  69.258  1.00  0.00    -0.265 C  
HETATM    7  H   UNL     1     -12.953  12.584  68.553  1.00  0.00     0.000 HD 
HETATM    8  N   UNL     1     -12.013  12.757  68.911  1.00  0.00    -0.286 N  
HETATM    9  O   UNL     1     -10.051  11.778  69.547  1.00  0.00     0.264 OA 
BRANCH   8  10
HETATM   10  C   UNL     1     -11.560  14.147  69.026  1.00  0.00    -0.304 C  
BRANCH  10  11
HETATM   11  C   UNL     1     -10.973  14.538  70.402  1.00  0.00     0.049 C  
BRANCH  11  12
HETATM   12  C   UNL     1     -12.053  14.869  71.404  1.00  0.00    -0.392 A  
HETATM   13  C   UNL     1     -13.405  14.742  71.059  1.00  0.00    -0.427 A  
HETATM   14  C   UNL     1     -12.697  16.005  73.439  1.00  0.00    -0.668 A  
HETATM   15  C   UNL     1     -11.710  15.456  72.625  1.00  0.00    -0.556 A  
HETATM   16  C   UNL     1     -14.034  15.942  73.053  1.00  0.00    -0.353 A  
HETATM   17  C   UNL     1     -14.391  15.289  71.875  1.00  0.00    -0.691 A  
ENDBRANCH  11  12
ENDBRANCH  10  11
BRANCH  10  18
HETATM   18  C   UNL     1     -10.548  14.413  67.877  1.00  0.00    -0.240 C  
HETATM   19  N   UNL     1     -11.129  14.797  66.689  1.00  0.00    -0.328 N  
HETATM   20  O   UNL     1      -9.333  14.263  67.997  1.00  0.00    -0.188 OA 
HETATM   21  H   UNL     1     -12.139  14.933  66.674  1.00  0.00     0.000 HD 
BRANCH  19  22
HETATM   22  C   UNL     1     -10.389  15.022  65.448  1.00  0.00    -0.383 C  
BRANCH  22  23
HETATM   23  C   UNL     1     -10.590  16.509  65.118  1.00  0.00    -0.215 C  
HETATM   24  O   UNL     1     -11.297  16.882  64.184  1.00  0.00    -1.208 OA 
BRANCH  23  25
HETATM   25  C   UNL     1      -9.913  17.530  65.969  1.00  0.00    -0.218 C  
HETATM   26  O   UNL     1     -10.686  18.016  67.078  1.00  0.00    -0.342 OA 
HETATM   27  C   UNL     1      -8.445  17.432  66.241  1.00  0.00    -0.260 C  
HETATM   28  C   UNL     1     -10.532  18.920  65.978  1.00  0.00    -0.446 C  
ENDBRANCH  23  25
ENDBRANCH  22  23
BRANCH  22  29
HETATM   29  C   UNL     1     -10.834  14.105  64.294  1.00  0.00    -0.056 C  
HETATM   30  C   UNL     1     -12.165  13.337  64.469  1.00  0.00    -0.456 C  
HETATM   31  C   UNL     1     -12.473  12.536  63.197  1.00  0.00    -0.249 C  
HETATM   32  C   UNL     1     -12.198  12.372  65.656  1.00  0.00    -0.322 C  
ENDBRANCH  22  29
ENDBRANCH  19  22
ENDBRANCH  10  18
ENDBRANCH   8  10
ENDBRANCH   5   6
BRANCH   5  33
HETATM   33  N   UNL     1     -11.012   9.246  69.483  1.00  0.00    -0.377 N  
HETATM   34  H   UNL     1     -10.723   8.921  70.405  1.00  0.00     0.000 HD 
HETATM   35  O   UNL     1     -10.739   8.960  67.221  1.00  0.00    -0.273 OA 
HETATM   36  C   UNL     1     -10.459   8.642  68.375  1.00  0.00    -0.176 C  
BRANCH  36  37
HETATM   37  C   UNL     1      -9.475   7.499  68.695  1.00  0.00    -0.146 C  
BRANCH  37  38
HETATM   38  N   UNL     1      -9.874   6.816  69.930  1.00  0.00    -0.165 N  
HETATM   39  O   UNL     1      -7.765   6.986  70.761  1.00  0.00    -0.092 OA 
HETATM   40  C   UNL     1      -8.937   6.613  70.911  1.00  0.00    -0.147 C  
HETATM   41  H   UNL     1     -10.834   6.497  70.057  1.00  0.00     0.000 HD 
BRANCH  40  42
HETATM   42  C   UNL     1      -9.371   5.961  72.229  1.00  0.00    -0.144 C  
BRANCH  42  43
HETATM   43  N   UNL     1     -10.399   4.897  72.137  1.00  0.00    -0.199 NA 
HETATM   44  C   UNL     1      -9.145   2.804  72.975  1.00  0.00    -0.085 C  
HETATM   45  C   UNL     1     -11.101   4.785  73.449  1.00  0.00    -0.344 C  
HETATM   46  O   UNL     1      -9.866   2.836  74.211  1.00  0.00    -0.092 OA 
HETATM   47  C   UNL     1     -10.230   4.173  74.563  1.00  0.00    -0.221 C  
HETATM   48  C   UNL     1      -9.858   3.552  71.827  1.00  0.00    -0.160 C  
ENDBRANCH  42  43
ENDBRANCH  40  42
ENDBRANCH  37  38
BRANCH  37  49
HETATM   49  C   UNL     1      -9.408   6.556  67.490  1.00  0.00    -0.124 C  
BRANCH  49  50
HETATM   50  C   UNL     1     -10.266   5.304  67.734  1.00  0.00    -0.211 C  
BRANCH  50  51
HETATM   51  C   UNL     1      -9.599   4.047  67.245  1.00  0.00    -0.229 A  
HETATM   52  C   UNL     1      -9.190   3.935  65.911  1.00  0.00    -0.155 A  
HETATM   53  C   UNL     1      -8.569   2.769  65.462  1.00  0.00    -0.110 A  
HETATM   54  C   UNL     1      -8.748   1.817  67.673  1.00  0.00    -0.123 A  
HETATM   55  C   UNL     1      -9.371   2.981  68.125  1.00  0.00    -0.254 A  
HETATM   56  C   UNL     1      -8.348   1.712  66.343  1.00  0.00    -0.090 A  
ENDBRANCH  50  51
ENDBRANCH  49  50
ENDBRANCH  37  49
ENDBRANCH  36  37
ENDBRANCH   5  33
ENDBRANCH   3   5
TORSDOF 18
ENDMDL
MODEL       18
REMARK 921   NORMALIZED FREE ENERGY PREDICTED BY IDOCK:   -5.64 KCAL/MOL
REMARK 922        TOTAL FREE ENERGY PREDICTED BY IDOCK:  -15.21 KCAL/MOL
REMARK 923 INTER-LIGAND FREE ENERGY PREDICTED BY IDOCK:  -13.46 KCAL/MOL
REMARK 924 INTRA-LIGAND FREE ENERGY PREDICTED BY IDOCK:   -1.75 KCAL/MOL
REMARK 927      BINDING AFFINITY PREDICTED BY RF-SCORE:    0.00 PKD
ROOT
HETATM    1  C   UNL     1     -11.991  15.987  72.186  1.00  0.00    -0.629 C  
HETATM    2  C   UNL     1     -13.016  14.851  72.136  1.00  0.00    -0.415 C  
HETATM    3  C   UNL     1     -13.145  14.166  70.758  1.00  0.00    -0.289 C  
HETATM    4  C   UNL     1     -14.375  15.385  72.602  1.00  0.00    -0.194 C  
ENDROOT
BRANCH   3   5
HETATM    5  C   UNL     1     -11.861  13.500  70.221  1.00  0.00    -0.257 C  
BRANCH   5   6
HETATM    6  C   UNL     1     -11.807  11.952  70.220  1.00  0.00    -0.281 C  
HETATM    7  H   UNL     1     -10.099  11.988  69.067  1.00  0.00     0.000 HD 
HETATM    8  N   UNL     1     -10.692  11.394  69.647  1.00  0.00    -0.057 N  
HETATM    9  O   UNL     1     -12.659  11.282  70.801  1.00  0.00    -0.344 OA 
BRANCH   8  10
HETATM   10  C   UNL     1     -10.307   9.991  69.823  1.00  0.00    -0.255 C  
BRANCH  10  11
HETATM   11  C   UNL     1     -11.459   8.968  69.694  1.00  0.00     0.221 C  
BRANCH  11  12
HETATM   12  C   UNL     1     -11.505   8.017  70.866  1.00  0.00    -0.291 A  
HETATM   13  C   UNL     1     -10.862   8.340  72.069  1.00  0.00    -0.370 A  
HETATM   14  C   UNL     1     -11.866   5.769  71.682  1.00  0.00     0.124 A  
HETATM   15  C   UNL     1     -12.052   6.741  70.703  1.00  0.00    -0.371 A  
HETATM   16  C   UNL     1     -11.160   6.076  72.844  1.00  0.00    -0.290 A  
HETATM   17  C   UNL     1     -10.679   7.368  73.048  1.00  0.00    -0.413 A  
ENDBRANCH  11  12
ENDBRANCH  10  11
BRANCH  10  18
HETATM   18  C   UNL     1      -9.156   9.685  68.824  1.00  0.00    -0.134 C  
HETATM   19  N   UNL     1      -9.413   8.637  67.968  1.00  0.00    -0.139 N  
HETATM   20  O   UNL     1      -8.090  10.297  68.813  1.00  0.00    -0.105 OA 
HETATM   21  H   UNL     1     -10.333   8.199  68.013  1.00  0.00     0.000 HD 
BRANCH  19  22
HETATM   22  C   UNL     1      -8.451   8.114  66.999  1.00  0.00    -0.120 C  
BRANCH  22  23
HETATM   23  C   UNL     1      -8.865   8.717  65.649  1.00  0.00    -0.187 C  
HETATM   24  O   UNL     1      -9.963   9.242  65.475  1.00  0.00    -0.228 OA 
BRANCH  23  25
HETATM   25  C   UNL     1      -7.894   8.674  64.517  1.00  0.00    -0.132 C  
HETATM   26  O   UNL     1      -6.561   9.106  64.832  1.00  0.00    -0.069 OA 
HETATM   27  C   UNL     1      -7.958   7.568  63.510  1.00  0.00    -0.078 C  
HETATM   28  C   UNL     1      -7.343  10.013  64.048  1.00  0.00    -0.132 C  
ENDBRANCH  23  25
ENDBRANCH  22  23
BRANCH  22  29
HETATM   29  C   UNL     1      -8.399   6.575  66.957  1.00  0.00    -0.113 C  
HETATM   30  C   UNL     1      -9.598   5.841  66.313  1.00  0.00    -0.159 C  
HETATM   31  C   UNL     1      -9.336   4.329  66.302  1.00  0.00    -0.165 C  
HETATM   32  C   UNL     1     -10.944   6.082  67.001  1.00  0.00    -0.364 C  
ENDBRANCH  22  29
ENDBRANCH  19  22
ENDBRANCH  10  18
ENDBRANCH   8  10
ENDBRANCH   5   6
BRANCH   5  33
HETATM   33  N   UNL     1     -11.479  13.987  68.892  1.00  0.00    -0.273 N  
HETATM   34  H   UNL     1     -12.084  13.759  68.102  1.00  0.00     0.000 HD 
HETATM   35  O   UNL     1      -9.552  15.061  69.529  1.00  0.00    -0.175 OA 
HETATM   36  C   UNL     1     -10.348  14.735  68.650  1.00  0.00    -0.245 C  
BRANCH  36  37
HETATM   37  C   UNL     1     -10.167  15.166  67.181  1.00  0.00    -0.247 C  
BRANCH  37  38
HETATM   38  N   UNL     1      -9.872  16.601  67.106  1.00  0.00    -0.251 N  
HETATM   39  O   UNL     1     -10.879  16.751  65.075  1.00  0.00    -0.653 OA 
HETATM   40  C   UNL     1     -10.279  17.309  66.004  1.00  0.00    -0.304 C  
HETATM   41  H   UNL     1      -9.370  17.065  67.863  1.00  0.00     0.000 HD 
BRANCH  40  42
HETATM   42  C   UNL     1     -10.031  18.821  65.959  1.00  0.00    -0.255 C  
BRANCH  42  43
HETATM   43  N   UNL     1     -10.207  19.561  67.232  1.00  0.00    -0.398 NA 
HETATM   44  C   UNL     1      -8.184  18.790  68.635  1.00  0.00    -0.329 C  
HETATM   45  C   UNL     1      -9.444  20.842  67.158  1.00  0.00    -0.304 C  
HETATM   46  O   UNL     1      -7.543  20.058  68.453  1.00  0.00    -0.288 OA 
HETATM   47  C   UNL     1      -7.915  20.651  67.207  1.00  0.00    -0.273 C  
HETATM   48  C   UNL     1      -9.714  18.840  68.430  1.00  0.00    -0.376 C  
ENDBRANCH  42  43
ENDBRANCH  40  42
ENDBRANCH  37  38
BRANCH  37  49
HETATM   49  C   UNL     1      -9.076  14.301  66.544  1.00  0.00    -0.212 C  
BRANCH  49  50
HETATM   50  C   UNL     1      -9.528  12.834  66.460  1.00  0.00    -0.253 C  
BRANCH  50  51
HETATM   51  C   UNL     1     -10.571  12.616  65.398  1.00  0.00    -0.307 A  
HETATM   52  C   UNL     1     -11.924  12.839  65.677  1.00  0.00    -0.503 A  
HETATM   53  C   UNL     1     -12.888  12.638  64.689  1.00  0.00    -0.361 A  
HETATM   54  C   UNL     1     -11.161  12.000  63.128  1.00  0.00    -0.265 A  
HETATM   55  C   UNL     1     -10.195  12.198  64.115  1.00  0.00    -0.370 A  
HETATM   56  C   UNL     1     -12.506  12.219  63.415  1.00  0.00    -0.592 A  
ENDBRANCH  50  51
ENDBRANCH  49  50
ENDBRANCH  37  49
ENDBRANCH  36  37
ENDBRANCH   5  33
ENDBRANCH   3   5
TORSDOF 18
ENDMDL
MODEL       19
REMARK 921   NORMALIZED FREE ENERGY PREDICTED BY IDOCK:   -5.57 KCAL/MOL
REMARK 922        TOTAL FREE ENERGY PREDICTED BY IDOCK:  -15.07 KCAL/MOL
REMARK 923 INTER-LIGAND FREE ENERGY PREDICTED BY IDOCK:  -11.62 KCAL/MOL
REMARK 924 INTRA-LIGAND FREE ENERGY PREDICTED BY IDOCK:   -3.45 KCAL/MOL
REMARK 927      BINDING AFFINITY PREDICTED BY RF-SCORE:    0.00 PKD
ROOT
HETATM    1  C   UNL     1      -8.883   9.209  65.105  1.00  0.00    -0.241 C  
HETATM    2  C   UNL     1      -7.732   9.191  66.116  1.00  0.00    -0.095 C  
HETATM    3  C   UNL     1      -7.727  10.383  67.099  1.00  0.00    -0.100 C  
HETATM    4  C   UNL     1      -6.403   9.113  65.357  1.00  0.00    -0.064 C  
ENDROOT
BRANCH   3   5
HETATM    5  C   UNL     1      -8.976  10.514  67.995  1.00  0.00    -0.135 C  
BRANCH   5   6
HETATM    6  C   UNL     1      -8.940   9.816  69.377  1.00  0.00    -0.190 C  
HETATM    7  H   UNL     1     -10.222   8.352  68.699  1.00  0.00     0.000 HD 
HETATM    8  N   UNL     1      -9.582   8.606  69.451  1.00  0.00    -0.165 N  
HETATM    9  O   UNL     1      -8.277  10.273  70.306  1.00  0.00    -0.050 OA 
BRANCH   8  10
HETATM   10  C   UNL     1      -9.397   7.658  70.554  1.00  0.00    -0.163 C  
BRANCH  10  11
HETATM   11  C   UNL     1     -10.595   6.720  70.827  1.00  0.00    -0.254 C  
BRANCH  11  12
HETATM   12  C   UNL     1     -11.767   7.459  71.429  1.00  0.00    -0.316 A  
HETATM   13  C   UNL     1     -13.055   6.908  71.381  1.00  0.00    -0.316 A  
HETATM   14  C   UNL     1     -12.707   9.547  72.203  1.00  0.00    -0.442 A  
HETATM   15  C   UNL     1     -11.598   8.766  71.894  1.00  0.00    -0.432 A  
HETATM   16  C   UNL     1     -13.990   9.017  72.081  1.00  0.00    -0.499 A  
HETATM   17  C   UNL     1     -14.163   7.690  71.693  1.00  0.00    -0.578 A  
ENDBRANCH  11  12
ENDBRANCH  10  11
BRANCH  10  18
HETATM   18  C   UNL     1      -8.095   6.856  70.278  1.00  0.00    -0.120 C  
HETATM   19  N   UNL     1      -8.305   5.561  69.859  1.00  0.00    -0.104 N  
HETATM   20  O   UNL     1      -6.968   7.317  70.449  1.00  0.00    -0.055 OA 
HETATM   21  H   UNL     1      -9.267   5.259  69.707  1.00  0.00     0.000 HD 
BRANCH  19  22
HETATM   22  C   UNL     1      -7.237   4.593  69.617  1.00  0.00    -0.051 C  
BRANCH  22  23
HETATM   23  C   UNL     1      -7.197   4.402  68.093  1.00  0.00    -0.064 C  
HETATM   24  O   UNL     1      -6.142   4.244  67.481  1.00  0.00    -0.026 OA 
BRANCH  23  25
HETATM   25  C   UNL     1      -8.483   4.396  67.337  1.00  0.00    -0.103 C  
HETATM   26  O   UNL     1      -9.579   3.740  67.992  1.00  0.00    -0.173 OA 
HETATM   27  C   UNL     1      -8.881   5.584  66.518  1.00  0.00    -0.121 C  
HETATM   28  C   UNL     1      -8.997   3.036  66.889  1.00  0.00    -0.161 C  
ENDBRANCH  23  25
ENDBRANCH  22  23
BRANCH  22  29
HETATM   29  C   UNL     1      -7.437   3.261  70.364  1.00  0.00    -0.040 C  
HETATM   30  C   UNL     1      -8.082   3.322  71.768  1.00  0.00    -0.058 C  
HETATM   31  C   UNL     1      -8.260   1.902  72.320  1.00  0.00    -0.053 C  
HETATM   32  C   UNL     1      -7.298   4.137  72.800  1.00  0.00    -0.072 C  
ENDBRANCH  22  29
ENDBRANCH  19  22
ENDBRANCH  10  18
ENDBRANCH   8  10
ENDBRANCH   5   6
BRANCH   5  33
HETATM   33  N   UNL     1      -9.401  11.906  68.180  1.00  0.00    -0.187 N  
HETATM   34  H   UNL     1      -8.698  12.640  68.094  1.00  0.00     0.000 HD 
HETATM   35  O   UNL     1     -11.618  11.470  68.590  1.00  0.00    -0.259 OA 
HETATM   36  C   UNL     1     -10.698  12.275  68.464  1.00  0.00    -0.237 C  
BRANCH  36  37
HETATM   37  C   UNL     1     -10.918  13.796  68.581  1.00  0.00    -0.266 C  
BRANCH  37  38
HETATM   38  N   UNL     1      -9.690  14.516  68.229  1.00  0.00    -0.212 N  
HETATM   39  O   UNL     1     -10.199  16.191  69.679  1.00  0.00    -0.260 OA 
HETATM   40  C   UNL     1      -9.418  15.712  68.845  1.00  0.00    -0.228 C  
HETATM   41  H   UNL     1      -9.047  14.133  67.536  1.00  0.00     0.000 HD 
BRANCH  40  42
HETATM   42  C   UNL     1      -8.101  16.428  68.527  1.00  0.00    -0.205 C  
BRANCH  42  43
HETATM   43  N   UNL     1      -8.207  17.748  67.859  1.00  0.00    -0.231 NA 
HETATM   44  C   UNL     1      -6.574  19.217  69.212  1.00  0.00    -0.306 C  
HETATM   45  C   UNL     1      -7.149  17.847  66.810  1.00  0.00    -0.197 C  
HETATM   46  O   UNL     1      -5.628  19.198  68.138  1.00  0.00    -0.193 OA 
HETATM   47  C   UNL     1      -5.726  17.989  67.383  1.00  0.00    -0.141 C  
HETATM   48  C   UNL     1      -8.019  18.907  68.764  1.00  0.00    -0.317 C  
ENDBRANCH  42  43
ENDBRANCH  40  42
ENDBRANCH  37  38
BRANCH  37  49
HETATM   49  C   UNL     1     -12.110  14.190  67.702  1.00  0.00    -0.337 C  
BRANCH  49  50
HETATM   50  C   UNL     1     -11.627  14.720  66.342  1.00  0.00    -0.301 C  
BRANCH  50  51
HETATM   51  C   UNL     1     -11.539  13.636  65.303  1.00  0.00    -0.334 A  
HETATM   52  C   UNL     1     -12.693  12.975  64.867  1.00  0.00    -0.456 A  
HETATM   53  C   UNL     1     -12.608  11.972  63.902  1.00  0.00    -0.517 A  
HETATM   54  C   UNL     1     -10.216  12.282  63.786  1.00  0.00    -0.427 A  
HETATM   55  C   UNL     1     -10.298  13.284  64.753  1.00  0.00    -0.381 A  
HETATM   56  C   UNL     1     -11.370  11.626  63.362  1.00  0.00    -0.380 A  
ENDBRANCH  50  51
ENDBRANCH  49  50
ENDBRANCH  37  49
ENDBRANCH  36  37
ENDBRANCH   5  33
ENDBRANCH   3   5
TORSDOF 18
ENDMDL
MODEL       20
REMARK 921   NORMALIZED FREE ENERGY PREDICTED BY IDOCK:   -5.49 KCAL/MOL
REMARK 922        TOTAL FREE ENERGY PREDICTED BY IDOCK:  -14.90 KCAL/MOL
REMARK 923 INTER-LIGAND FREE ENERGY PREDICTED BY IDOCK:  -14.12 KCAL/MOL
REMARK 924 INTRA-LIGAND FREE ENERGY PREDICTED BY IDOCK:   -0.78 KCAL/MOL
REMARK 927      BINDING AFFINITY PREDICTED BY RF-SCORE:    0.00 PKD
ROOT
HETATM    1  C   UNL     1      -6.529  10.705  68.395  1.00  0.00    -0.054 C  
HETATM    2  C   UNL     1      -7.337  11.038  67.138  1.00  0.00    -0.116 C  
HETATM    3  C   UNL     1      -8.866  11.071  67.351  1.00  0.00    -0.138 C  
HETATM    4  C   UNL     1      -6.969  10.045  66.031  1.00  0.00    -0.110 C  
ENDROOT
BRANCH   3   5
HETATM    5  C   UNL     1      -9.375  12.107  68.377  1.00  0.00    -0.170 C  
BRANCH   5   6
HETATM    6  C   UNL     1      -9.921  13.447  67.827  1.00  0.00    -0.233 C  
HETATM    7  H   UNL     1      -8.338  13.582  66.515  1.00  0.00     0.000 HD 
HETATM    8  N   UNL     1      -9.256  13.963  66.743  1.00  0.00    -0.260 N  
HETATM    9  O   UNL     1     -10.954  13.946  68.270  1.00  0.00    -0.241 OA 
BRANCH   8  10
HETATM   10  C   UNL     1      -9.794  15.032  65.897  1.00  0.00    -0.338 C  
BRANCH  10  11
HETATM   11  C   UNL     1     -11.280  14.876  65.501  1.00  0.00    -0.348 C  
BRANCH  11  12
HETATM   12  C   UNL     1     -11.544  13.565  64.800  1.00  0.00    -0.372 A  
HETATM   13  C   UNL     1     -10.537  12.947  64.045  1.00  0.00    -0.418 A  
HETATM   14  C   UNL     1     -13.150  11.988  63.915  1.00  0.00    -0.165 A  
HETATM   15  C   UNL     1     -12.840  13.042  64.769  1.00  0.00    -0.336 A  
HETATM   16  C   UNL     1     -12.159  11.428  63.111  1.00  0.00     0.254 A  
HETATM   17  C   UNL     1     -10.848  11.891  63.194  1.00  0.00    -0.294 A  
ENDBRANCH  11  12
ENDBRANCH  10  11
BRANCH  10  18
HETATM   18  C   UNL     1      -9.533  16.384  66.616  1.00  0.00    -0.256 C  
HETATM   19  N   UNL     1      -8.225  16.810  66.566  1.00  0.00    -0.261 N  
HETATM   20  O   UNL     1     -10.406  17.013  67.212  1.00  0.00    -0.301 OA 
HETATM   21  H   UNL     1      -7.563  16.254  66.025  1.00  0.00     0.000 HD 
BRANCH  19  22
HETATM   22  C   UNL     1      -7.724  18.007  67.239  1.00  0.00    -0.209 C  
BRANCH  22  23
HETATM   23  C   UNL     1      -6.662  18.591  66.295  1.00  0.00    -0.224 C  
HETATM   24  O   UNL     1      -5.936  17.878  65.606  1.00  0.00    -0.199 OA 
BRANCH  23  25
HETATM   25  C   UNL     1      -6.521  20.073  66.204  1.00  0.00    -0.206 C  
HETATM   26  O   UNL     1      -5.781  20.688  67.270  1.00  0.00    -0.172 OA 
HETATM   27  C   UNL     1      -6.340  20.733  64.872  1.00  0.00    -0.298 C  
HETATM   28  C   UNL     1      -7.200  20.886  67.297  1.00  0.00    -0.350 C  
ENDBRANCH  23  25
ENDBRANCH  22  23
BRANCH  22  29
HETATM   29  C   UNL     1      -7.161  17.730  68.645  1.00  0.00    -0.257 C  
HETATM   30  C   UNL     1      -5.957  16.765  68.752  1.00  0.00    -0.147 C  
HETATM   31  C   UNL     1      -5.498  16.668  70.213  1.00  0.00    -0.204 C  
HETATM   32  C   UNL     1      -6.225  15.346  68.244  1.00  0.00    -0.121 C  
ENDBRANCH  22  29
ENDBRANCH  19  22
ENDBRANCH  10  18
ENDBRANCH   8  10
ENDBRANCH   5   6
BRANCH   5  33
HETATM   33  N   UNL     1     -10.354  11.546  69.314  1.00  0.00    -0.426 N  
HETATM   34  H   UNL     1     -10.145  11.589  70.312  1.00  0.00     0.000 HD 
HETATM   35  O   UNL     1     -11.886  10.865  67.746  1.00  0.00    -0.579 OA 
HETATM   36  C   UNL     1     -11.540  10.967  68.921  1.00  0.00    -0.314 C  
BRANCH  36  37
HETATM   37  C   UNL     1     -12.430  10.479  70.082  1.00  0.00    -0.226 C  
BRANCH  37  38
HETATM   38  N   UNL     1     -12.110   9.088  70.416  1.00  0.00    -0.465 N  
HETATM   39  O   UNL     1     -13.644   9.087  72.093  1.00  0.00    -0.406 OA 
HETATM   40  C   UNL     1     -12.784   8.477  71.444  1.00  0.00    -0.271 C  
HETATM   41  H   UNL     1     -11.396   8.581  69.892  1.00  0.00     0.000 HD 
BRANCH  40  42
HETATM   42  C   UNL     1     -12.497   7.002  71.747  1.00  0.00    -0.356 C  
BRANCH  42  43
HETATM   43  N   UNL     1     -11.143   6.504  71.405  1.00  0.00    -0.257 NA 
HETATM   44  C   UNL     1      -9.667   7.524  73.260  1.00  0.00    -0.272 C  
HETATM   45  C   UNL     1     -10.891   5.234  72.148  1.00  0.00    -0.188 C  
HETATM   46  O   UNL     1      -9.538   6.247  73.894  1.00  0.00    -0.151 OA 
HETATM   47  C   UNL     1     -10.691   5.435  73.662  1.00  0.00    -0.293 C  
HETATM   48  C   UNL     1     -10.044   7.433  71.765  1.00  0.00    -0.175 C  
ENDBRANCH  42  43
ENDBRANCH  40  42
ENDBRANCH  37  38
BRANCH  37  49
HETATM   49  C   UNL     1     -12.255  11.431  71.270  1.00  0.00    -0.240 C  
BRANCH  49  50
HETATM   50  C   UNL     1     -13.408  12.447  71.323  1.00  0.00     0.098 C  
BRANCH  50  51
HETATM   51  C   UNL     1     -12.951  13.808  71.771  1.00  0.00    -0.441 A  
HETATM   52  C   UNL     1     -13.651  14.499  72.767  1.00  0.00    -0.533 A  
HETATM   53  C   UNL     1     -13.223  15.760  73.181  1.00  0.00    -0.694 A  
HETATM   54  C   UNL     1     -11.386  15.655  71.618  1.00  0.00    -0.446 A  
HETATM   55  C   UNL     1     -11.813  14.394  71.200  1.00  0.00    -0.316 A  
HETATM   56  C   UNL     1     -12.091  16.337  72.607  1.00  0.00    -0.628 A  
ENDBRANCH  50  51
ENDBRANCH  49  50
ENDBRANCH  37  49
ENDBRANCH  36  37
ENDBRANCH   5  33
ENDBRANCH   3   5
TORSDOF 18
ENDMDL
MODEL       21
REMARK 921   NORMALIZED FREE ENERGY PREDICTED BY IDOCK:   -5.49 KCAL/MOL
REMARK 922        TOTAL FREE ENERGY PREDICTED BY IDOCK:  -14.90 KCAL/MOL
REMARK 923 INTER-LIGAND FREE ENERGY PREDICTED BY IDOCK:  -12.84 KCAL/MOL
REMARK 924 INTRA-LIGAND FREE ENERGY PREDICTED BY IDOCK:   -2.06 KCAL/MOL
REMARK 927      BINDING AFFINITY PREDICTED BY RF-SCORE:    0.00 PKD
ROOT
HETATM    1  C   UNL     1      -9.198   9.219  65.249  1.00  0.00    -0.275 C  
HETATM    2  C   UNL     1      -7.986   9.068  66.172  1.00  0.00    -0.103 C  
HETATM    3  C   UNL     1      -7.804  10.220  67.184  1.00  0.00    -0.110 C  
HETATM    4  C   UNL     1      -6.725   8.899  65.317  1.00  0.00    -0.068 C  
ENDROOT
BRANCH   3   5
HETATM    5  C   UNL     1      -8.971  10.430  68.173  1.00  0.00    -0.132 C  
BRANCH   5   6
HETATM    6  C   UNL     1      -8.985   9.562  69.455  1.00  0.00    -0.181 C  
HETATM    7  H   UNL     1     -10.329   8.262  68.590  1.00  0.00     0.000 HD 
HETATM    8  N   UNL     1      -9.686   8.386  69.372  1.00  0.00    -0.175 N  
HETATM    9  O   UNL     1      -8.311   9.865  70.438  1.00  0.00    -0.153 OA 
BRANCH   8  10
HETATM   10  C   UNL     1      -9.561   7.299  70.348  1.00  0.00    -0.165 C  
BRANCH  10  11
HETATM   11  C   UNL     1     -10.876   6.558  70.683  1.00  0.00    -0.317 C  
BRANCH  11  12
HETATM   12  C   UNL     1     -11.962   7.508  71.128  1.00  0.00    -0.334 A  
HETATM   13  C   UNL     1     -11.637   8.691  71.806  1.00  0.00    -0.403 A  
HETATM   14  C   UNL     1     -14.296   7.872  71.646  1.00  0.00    -0.595 A  
HETATM   15  C   UNL     1     -13.304   7.135  71.008  1.00  0.00    -0.130 A  
HETATM   16  C   UNL     1     -13.957   9.006  72.382  1.00  0.00    -0.517 A  
HETATM   17  C   UNL     1     -12.631   9.429  72.442  1.00  0.00    -0.307 A  
ENDBRANCH  11  12
ENDBRANCH  10  11
BRANCH  10  18
HETATM   18  C   UNL     1      -8.470   6.320  69.830  1.00  0.00    -0.126 C  
HETATM   19  N   UNL     1      -8.941   5.068  69.505  1.00  0.00    -0.094 N  
HETATM   20  O   UNL     1      -7.280   6.617  69.746  1.00  0.00    -0.073 OA 
HETATM   21  H   UNL     1      -9.946   4.905  69.567  1.00  0.00     0.000 HD 
BRANCH  19  22
HETATM   22  C   UNL     1      -8.092   3.957  69.075  1.00  0.00    -0.062 C  
BRANCH  22  23
HETATM   23  C   UNL     1      -8.736   3.428  67.785  1.00  0.00    -0.110 C  
HETATM   24  O   UNL     1      -9.534   2.492  67.788  1.00  0.00    -0.202 OA 
BRANCH  23  25
HETATM   25  C   UNL     1      -8.389   4.082  66.490  1.00  0.00    -0.104 C  
HETATM   26  O   UNL     1      -7.654   5.311  66.598  1.00  0.00    -0.086 OA 
HETATM   27  C   UNL     1      -8.022   3.251  65.300  1.00  0.00    -0.082 C  
HETATM   28  C   UNL     1      -9.031   5.436  66.223  1.00  0.00    -0.137 C  
ENDBRANCH  23  25
ENDBRANCH  22  23
BRANCH  22  29
HETATM   29  C   UNL     1      -7.937   2.857  70.141  1.00  0.00    -0.052 C  
HETATM   30  C   UNL     1      -8.549   3.126  71.536  1.00  0.00    -0.102 C  
HETATM   31  C   UNL     1      -8.354   1.897  72.434  1.00  0.00    -0.054 C  
HETATM   32  C   UNL     1      -7.972   4.342  72.266  1.00  0.00    -0.091 C  
ENDBRANCH  22  29
ENDBRANCH  19  22
ENDBRANCH  10  18
ENDBRANCH   8  10
ENDBRANCH   5   6
BRANCH   5  33
HETATM   33  N   UNL     1      -9.151  11.836  68.551  1.00  0.00    -0.302 N  
HETATM   34  H   UNL     1      -8.854  12.126  69.483  1.00  0.00     0.000 HD 
HETATM   35  O   UNL     1     -10.091  12.540  66.578  1.00  0.00    -0.230 OA 
HETATM   36  C   UNL     1      -9.700  12.785  67.718  1.00  0.00    -0.207 C  
BRANCH  36  37
HETATM   37  C   UNL     1      -9.758  14.205  68.315  1.00  0.00    -0.227 C  
BRANCH  37  38
HETATM   38  N   UNL     1      -8.943  15.126  67.516  1.00  0.00    -0.176 N  
HETATM   39  O   UNL     1      -9.184  16.766  69.071  1.00  0.00    -0.257 OA 
HETATM   40  C   UNL     1      -8.709  16.392  67.990  1.00  0.00    -0.183 C  
HETATM   41  H   UNL     1      -8.555  14.828  66.621  1.00  0.00     0.000 HD 
BRANCH  40  42
HETATM   42  C   UNL     1      -7.800  17.329  67.187  1.00  0.00    -0.198 C  
BRANCH  42  43
HETATM   43  N   UNL     1      -8.425  18.049  66.052  1.00  0.00    -0.515 NA 
HETATM   44  C   UNL     1     -10.413  19.264  67.160  1.00  0.00    -0.457 C  
HETATM   45  C   UNL     1      -7.854  19.426  65.976  1.00  0.00    -0.281 C  
HETATM   46  O   UNL     1      -9.734  20.520  67.060  1.00  0.00    -0.436 OA 
HETATM   47  C   UNL     1      -8.316  20.348  67.121  1.00  0.00    -0.318 C  
HETATM   48  C   UNL     1      -9.896  18.204  66.163  1.00  0.00    -0.251 C  
ENDBRANCH  42  43
ENDBRANCH  40  42
ENDBRANCH  37  38
BRANCH  37  49
HETATM   49  C   UNL     1     -11.224  14.640  68.411  1.00  0.00    -0.290 C  
BRANCH  49  50
HETATM   50  C   UNL     1     -12.050  13.593  69.176  1.00  0.00    -0.361 C  
BRANCH  50  51
HETATM   51  C   UNL     1     -12.355  14.022  70.585  1.00  0.00    -0.446 A  
HETATM   52  C   UNL     1     -11.545  14.963  71.231  1.00  0.00    -0.359 A  
HETATM   53  C   UNL     1     -11.833  15.360  72.537  1.00  0.00    -0.564 A  
HETATM   54  C   UNL     1     -13.748  13.891  72.565  1.00  0.00    -0.665 A  
HETATM   55  C   UNL     1     -13.462  13.490  71.261  1.00  0.00    -0.153 A  
HETATM   56  C   UNL     1     -12.935  14.824  73.203  1.00  0.00    -0.623 A  
ENDBRANCH  50  51
ENDBRANCH  49  50
ENDBRANCH  37  49
ENDBRANCH  36  37
ENDBRANCH   5  33
ENDBRANCH   3   5
TORSDOF 18
ENDMDL
MODEL       22
REMARK 921   NORMALIZED FREE ENERGY PREDICTED BY IDOCK:   -5.46 KCAL/MOL
REMARK 922        TOTAL FREE ENERGY PREDICTED BY IDOCK:  -14.84 KCAL/MOL
REMARK 923 INTER-LIGAND FREE ENERGY PREDICTED BY IDOCK:  -14.33 KCAL/MOL
REMARK 924 INTRA-LIGAND FREE ENERGY PREDICTED BY IDOCK:   -0.50 KCAL/MOL
REMARK 927      BINDING AFFINITY PREDICTED BY RF-SCORE:    0.00 PKD
ROOT
HETATM    1  C   UNL     1     -11.873  15.254  72.136  1.00  0.00    -0.526 C  
HETATM    2  C   UNL     1     -12.818  14.111  71.755  1.00  0.00    -0.428 C  
HETATM    3  C   UNL     1     -12.897  13.825  70.240  1.00  0.00    -0.093 C  
HETATM    4  C   UNL     1     -14.212  14.407  72.321  1.00  0.00    -0.580 C  
ENDROOT
BRANCH   3   5
HETATM    5  C   UNL     1     -11.569  13.417  69.567  1.00  0.00    -0.290 C  
BRANCH   5   6
HETATM    6  C   UNL     1     -11.381  11.923  69.208  1.00  0.00    -0.277 C  
HETATM    7  H   UNL     1      -9.335  12.119  69.360  1.00  0.00     0.000 HD 
HETATM    8  N   UNL     1     -10.098  11.445  69.297  1.00  0.00    -0.019 N  
HETATM    9  O   UNL     1     -12.344  11.196  68.973  1.00  0.00    -0.479 OA 
BRANCH   8  10
HETATM   10  C   UNL     1      -9.764  10.017  69.308  1.00  0.00    -0.215 C  
BRANCH  10  11
HETATM   11  C   UNL     1     -10.973   9.058  69.397  1.00  0.00    -0.082 C  
BRANCH  11  12
HETATM   12  C   UNL     1     -11.058   8.379  70.744  1.00  0.00    -0.286 A  
HETATM   13  C   UNL     1     -10.296   8.845  71.824  1.00  0.00    -0.426 A  
HETATM   14  C   UNL     1     -11.645   6.416  72.028  1.00  0.00    -0.368 A  
HETATM   15  C   UNL     1     -11.774   7.186  70.876  1.00  0.00    -0.367 A  
HETATM   16  C   UNL     1     -10.826   6.850  73.069  1.00  0.00    -0.328 A  
HETATM   17  C   UNL     1     -10.170   8.076  72.977  1.00  0.00    -0.357 A  
ENDBRANCH  11  12
ENDBRANCH  10  11
BRANCH  10  18
HETATM   18  C   UNL     1      -8.893   9.724  68.055  1.00  0.00    -0.119 C  
HETATM   19  N   UNL     1      -9.539   9.010  67.071  1.00  0.00    -0.165 N  
HETATM   20  O   UNL     1      -7.716  10.065  67.955  1.00  0.00    -0.088 OA 
HETATM   21  H   UNL     1     -10.525   8.791  67.210  1.00  0.00     0.000 HD 
BRANCH  19  22
HETATM   22  C   UNL     1      -8.900   8.546  65.840  1.00  0.00    -0.182 C  
BRANCH  22  23
HETATM   23  C   UNL     1      -8.902   7.013  65.933  1.00  0.00    -0.103 C  
HETATM   24  O   UNL     1      -8.308   6.307  65.120  1.00  0.00    -0.142 OA 
BRANCH  23  25
HETATM   25  C   UNL     1      -9.637   6.363  67.056  1.00  0.00    -0.142 C  
HETATM   26  O   UNL     1      -9.024   6.488  68.349  1.00  0.00    -0.126 OA 
HETATM   27  C   UNL     1     -11.134   6.377  67.085  1.00  0.00    -0.422 C  
HETATM   28  C   UNL     1      -8.938   5.195  67.737  1.00  0.00    -0.110 C  
ENDBRANCH  23  25
ENDBRANCH  22  23
BRANCH  22  29
HETATM   29  C   UNL     1      -7.484   9.114  65.632  1.00  0.00    -0.093 C  
HETATM   30  C   UNL     1      -7.206   9.863  64.308  1.00  0.00    -0.134 C  
HETATM   31  C   UNL     1      -5.772  10.411  64.314  1.00  0.00    -0.130 C  
HETATM   32  C   UNL     1      -7.386   9.020  63.043  1.00  0.00    -0.095 C  
ENDBRANCH  22  29
ENDBRANCH  19  22
ENDBRANCH  10  18
ENDBRANCH   8  10
ENDBRANCH   5   6
BRANCH   5  33
HETATM   33  N   UNL     1     -11.254  14.230  68.387  1.00  0.00    -0.257 N  
HETATM   34  H   UNL     1     -11.733  14.015  67.512  1.00  0.00     0.000 HD 
HETATM   35  O   UNL     1      -9.717  15.605  69.396  1.00  0.00    -0.257 OA 
HETATM   36  C   UNL     1     -10.348  15.267  68.396  1.00  0.00    -0.227 C  
BRANCH  36  37
HETATM   37  C   UNL     1     -10.205  16.003  67.050  1.00  0.00    -0.282 C  
BRANCH  37  38
HETATM   38  N   UNL     1     -11.285  15.610  66.139  1.00  0.00    -0.125 N  
HETATM   39  O   UNL     1      -9.799  14.642  64.717  1.00  0.00    -0.132 OA 
HETATM   40  C   UNL     1     -10.974  14.922  64.993  1.00  0.00    -0.420 C  
HETATM   41  H   UNL     1     -12.254  15.845  66.354  1.00  0.00     0.000 HD 
BRANCH  40  42
HETATM   42  C   UNL     1     -12.109  14.452  64.078  1.00  0.00    -0.280 C  
BRANCH  42  43
HETATM   43  N   UNL     1     -12.695  13.122  64.376  1.00  0.00    -0.685 NA 
HETATM   44  C   UNL     1     -10.990  11.491  63.332  1.00  0.00    -0.315 C  
HETATM   45  C   UNL     1     -12.125  12.618  65.660  1.00  0.00    -0.443 C  
HETATM   46  O   UNL     1     -10.509  11.124  64.630  1.00  0.00    -0.309 OA 
HETATM   47  C   UNL     1     -10.645  12.204  65.556  1.00  0.00    -0.277 C  
HETATM   48  C   UNL     1     -12.414  12.088  63.350  1.00  0.00    -0.509 C  
ENDBRANCH  42  43
ENDBRANCH  40  42
ENDBRANCH  37  38
BRANCH  37  49
HETATM   49  C   UNL     1     -10.170  17.512  67.314  1.00  0.00    -0.335 C  
BRANCH  49  50
HETATM   50  C   UNL     1      -9.108  18.191  66.435  1.00  0.00    -0.255 C  
BRANCH  50  51
HETATM   51  C   UNL     1      -8.154  19.033  67.237  1.00  0.00    -0.281 A  
HETATM   52  C   UNL     1      -7.747  18.624  68.513  1.00  0.00    -0.342 A  
HETATM   53  C   UNL     1      -6.860  19.406  69.253  1.00  0.00    -0.367 A  
HETATM   54  C   UNL     1      -6.765  21.010  67.451  1.00  0.00    -0.446 A  
HETATM   55  C   UNL     1      -7.653  20.231  66.710  1.00  0.00    -0.336 A  
HETATM   56  C   UNL     1      -6.369  20.598  68.721  1.00  0.00    -0.280 A  
ENDBRANCH  50  51
ENDBRANCH  49  50
ENDBRANCH  37  49
ENDBRANCH  36  37
ENDBRANCH   5  33
ENDBRANCH   3   5
TORSDOF 18
ENDMDL
MODEL       23
REMARK 921   NORMALIZED FREE ENERGY PREDICTED BY IDOCK:   -5.40 KCAL/MOL
REMARK 922        TOTAL FREE ENERGY PREDICTED BY IDOCK:  -14.72 KCAL/MOL
REMARK 923 INTER-LIGAND FREE ENERGY PREDICTED BY IDOCK:  -10.32 KCAL/MOL
REMARK 924 INTRA-LIGAND FREE ENERGY PREDICTED BY IDOCK:   -4.40 KCAL/MOL
REMARK 927      BINDING AFFINITY PREDICTED BY RF-SCORE:    0.00 PKD
ROOT
HETATM    1  C   UNL     1      -7.975   7.692  64.618  1.00  0.00    -0.136 C  
HETATM    2  C   UNL     1      -6.740   8.589  64.491  1.00  0.00    -0.066 C  
HETATM    3  C   UNL     1      -6.999  10.080  64.796  1.00  0.00    -0.137 C  
HETATM    4  C   UNL     1      -6.143   8.421  63.090  1.00  0.00    -0.081 C  
ENDROOT
BRANCH   3   5
HETATM    5  C   UNL     1      -7.512  10.392  66.218  1.00  0.00    -0.127 C  
BRANCH   5   6
HETATM    6  C   UNL     1      -8.995  10.816  66.365  1.00  0.00    -0.166 C  
HETATM    7  H   UNL     1      -8.552  11.856  68.087  1.00  0.00     0.000 HD 
HETATM    8  N   UNL     1      -9.263  11.708  67.372  1.00  0.00    -0.166 N  
HETATM    9  O   UNL     1      -9.845  10.456  65.553  1.00  0.00    -0.232 OA 
BRANCH   8  10
HETATM   10  C   UNL     1     -10.518  12.460  67.473  1.00  0.00    -0.215 C  
BRANCH  10  11
HETATM   11  C   UNL     1     -11.749  11.635  67.911  1.00  0.00    -0.329 C  
BRANCH  11  12
HETATM   12  C   UNL     1     -11.541  10.979  69.256  1.00  0.00    -0.384 A  
HETATM   13  C   UNL     1     -10.875   9.749  69.351  1.00  0.00    -0.256 A  
HETATM   14  C   UNL     1     -12.190  10.786  71.577  1.00  0.00    -0.302 A  
HETATM   15  C   UNL     1     -12.152  11.516  70.392  1.00  0.00    -0.471 A  
HETATM   16  C   UNL     1     -11.590   9.530  71.642  1.00  0.00    -0.451 A  
HETATM   17  C   UNL     1     -10.912   9.022  70.537  1.00  0.00    -0.295 A  
ENDBRANCH  11  12
ENDBRANCH  10  11
BRANCH  10  18
HETATM   18  C   UNL     1     -10.272  13.667  68.421  1.00  0.00    -0.245 C  
HETATM   19  N   UNL     1     -11.207  14.672  68.312  1.00  0.00    -0.272 N  
HETATM   20  O   UNL     1      -9.310  13.743  69.183  1.00  0.00     0.149 OA 
HETATM   21  H   UNL     1     -11.996  14.524  67.683  1.00  0.00     0.000 HD 
BRANCH  19  22
HETATM   22  C   UNL     1     -11.140  15.938  69.040  1.00  0.00    -0.294 C  
BRANCH  22  23
HETATM   23  C   UNL     1      -9.968  16.708  68.412  1.00  0.00    -0.255 C  
HETATM   24  O   UNL     1      -8.906  16.882  69.006  1.00  0.00    -0.247 OA 
BRANCH  23  25
HETATM   25  C   UNL     1     -10.123  17.248  67.030  1.00  0.00    -0.303 C  
HETATM   26  O   UNL     1     -10.535  16.294  66.038  1.00  0.00    -0.325 OA 
HETATM   27  C   UNL     1     -10.665  18.627  66.816  1.00  0.00    -0.337 C  
HETATM   28  C   UNL     1      -9.164  16.706  65.980  1.00  0.00    -0.228 C  
ENDBRANCH  23  25
ENDBRANCH  22  23
BRANCH  22  29
HETATM   29  C   UNL     1     -10.971  15.763  70.561  1.00  0.00    -0.361 C  
HETATM   30  C   UNL     1     -12.035  14.920  71.302  1.00  0.00    -0.393 C  
HETATM   31  C   UNL     1     -11.662  14.803  72.786  1.00  0.00    -0.115 C  
HETATM   32  C   UNL     1     -13.462  15.466  71.213  1.00  0.00    -0.598 C  
ENDBRANCH  22  29
ENDBRANCH  19  22
ENDBRANCH  10  18
ENDBRANCH   8  10
ENDBRANCH   5   6
BRANCH   5  33
HETATM   33  N   UNL     1      -7.231   9.316  67.175  1.00  0.00    -0.086 N  
HETATM   34  H   UNL     1      -7.588   8.383  66.969  1.00  0.00     0.000 HD 
HETATM   35  O   UNL     1      -6.039  10.580  68.676  1.00  0.00    -0.044 OA 
HETATM   36  C   UNL     1      -6.511   9.497  68.335  1.00  0.00    -0.053 C  
BRANCH  36  37
HETATM   37  C   UNL     1      -6.310   8.217  69.169  1.00  0.00    -0.039 C  
BRANCH  37  38
HETATM   38  N   UNL     1      -7.376   8.089  70.168  1.00  0.00    -0.060 N  
HETATM   39  O   UNL     1      -5.868   8.215  71.864  1.00  0.00    -0.035 OA 
HETATM   40  C   UNL     1      -7.047   8.106  71.500  1.00  0.00    -0.075 C  
HETATM   41  H   UNL     1      -8.348   7.989  69.876  1.00  0.00     0.000 HD 
BRANCH  40  42
HETATM   42  C   UNL     1      -8.169   8.042  72.543  1.00  0.00    -0.146 C  
BRANCH  42  43
HETATM   43  N   UNL     1      -8.256   6.801  73.350  1.00  0.00    -0.112 NA 
HETATM   44  C   UNL     1     -10.794   6.353  73.453  1.00  0.00    -0.217 C  
HETATM   45  C   UNL     1      -8.264   5.624  72.431  1.00  0.00    -0.111 C  
HETATM   46  O   UNL     1     -10.665   5.266  72.529  1.00  0.00    -0.217 OA 
HETATM   47  C   UNL     1      -9.573   5.477  71.632  1.00  0.00    -0.152 C  
HETATM   48  C   UNL     1      -9.478   6.699  74.183  1.00  0.00    -0.227 C  
ENDBRANCH  42  43
ENDBRANCH  40  42
ENDBRANCH  37  38
BRANCH  37  49
HETATM   49  C   UNL     1      -6.238   7.017  68.220  1.00  0.00    -0.035 C  
BRANCH  49  50
HETATM   50  C   UNL     1      -7.179   5.896  68.692  1.00  0.00    -0.083 C  
BRANCH  50  51
HETATM   51  C   UNL     1      -8.273   5.612  67.701  1.00  0.00    -0.101 A  
HETATM   52  C   UNL     1      -8.131   4.581  66.764  1.00  0.00    -0.102 A  
HETATM   53  C   UNL     1      -9.150   4.318  65.848  1.00  0.00    -0.134 A  
HETATM   54  C   UNL     1     -10.470   6.102  66.798  1.00  0.00    -0.316 A  
HETATM   55  C   UNL     1      -9.452   6.369  67.714  1.00  0.00    -0.115 A  
HETATM   56  C   UNL     1     -10.319   5.078  65.866  1.00  0.00    -0.223 A  
ENDBRANCH  50  51
ENDBRANCH  49  50
ENDBRANCH  37  49
ENDBRANCH  36  37
ENDBRANCH   5  33
ENDBRANCH   3   5
TORSDOF 18
ENDMDL
MODEL       24
REMARK 921   NORMALIZED FREE ENERGY PREDICTED BY IDOCK:   -5.19 KCAL/MOL
REMARK 922        TOTAL FREE ENERGY PREDICTED BY IDOCK:  -14.29 KCAL/MOL
REMARK 923 INTER-LIGAND FREE ENERGY PREDICTED BY IDOCK:  -12.53 KCAL/MOL
REMARK 924 INTRA-LIGAND FREE ENERGY PREDICTED BY IDOCK:   -1.75 KCAL/MOL
REMARK 927      BINDING AFFINITY PREDICTED BY RF-SCORE:    0.00 PKD
ROOT
HETATM    1  C   UNL     1      -7.681   9.410  65.593  1.00  0.00    -0.099 C  
HETATM    2  C   UNL     1      -6.936  10.233  66.647  1.00  0.00    -0.103 C  
HETATM    3  C   UNL     1      -7.612  11.575  67.004  1.00  0.00    -0.154 C  
HETATM    4  C   UNL     1      -5.496  10.464  66.174  1.00  0.00    -0.068 C  
ENDROOT
BRANCH   3   5
HETATM    5  C   UNL     1      -9.037  11.471  67.586  1.00  0.00    -0.168 C  
BRANCH   5   6
HETATM    6  C   UNL     1      -9.187  10.854  68.999  1.00  0.00    -0.115 C  
HETATM    7  H   UNL     1     -11.222  11.177  68.950  1.00  0.00     0.000 HD 
HETATM    8  N   UNL     1     -10.474  10.690  69.444  1.00  0.00    -0.228 N  
HETATM    9  O   UNL     1      -8.212  10.437  69.621  1.00  0.00    -0.155 OA 
BRANCH   8  10
HETATM   10  C   UNL     1     -10.833   9.852  70.593  1.00  0.00    -0.330 C  
BRANCH  10  11
HETATM   11  C   UNL     1     -12.288  10.002  71.091  1.00  0.00    -0.477 C  
BRANCH  11  12
HETATM   12  C   UNL     1     -12.697  11.451  71.216  1.00  0.00    -0.498 A  
HETATM   13  C   UNL     1     -12.111  12.427  70.399  1.00  0.00    -0.381 A  
HETATM   14  C   UNL     1     -13.715  13.197  72.542  1.00  0.00    -0.563 A  
HETATM   15  C   UNL     1     -13.543  11.846  72.256  1.00  0.00    -0.109 A  
HETATM   16  C   UNL     1     -13.069  14.162  71.772  1.00  0.00    -0.434 A  
HETATM   17  C   UNL     1     -12.286  13.777  70.685  1.00  0.00    -0.445 A  
ENDBRANCH  11  12
ENDBRANCH  10  11
BRANCH  10  18
HETATM   18  C   UNL     1     -10.504   8.378  70.226  1.00  0.00    -0.218 C  
HETATM   19  N   UNL     1      -9.370   7.883  70.831  1.00  0.00    -0.152 N  
HETATM   20  O   UNL     1     -11.172   7.712  69.436  1.00  0.00    -0.047 OA 
HETATM   21  H   UNL     1      -8.887   8.482  71.500  1.00  0.00     0.000 HD 
BRANCH  19  22
HETATM   22  C   UNL     1      -8.817   6.554  70.576  1.00  0.00    -0.151 C  
BRANCH  22  23
HETATM   23  C   UNL     1      -8.787   5.856  71.945  1.00  0.00    -0.138 C  
HETATM   24  O   UNL     1      -7.819   5.935  72.698  1.00  0.00    -0.100 OA 
BRANCH  23  25
HETATM   25  C   UNL     1      -9.979   5.069  72.374  1.00  0.00    -0.178 C  
HETATM   26  O   UNL     1     -11.189   5.825  72.541  1.00  0.00    -0.267 OA 
HETATM   27  C   UNL     1     -10.191   3.680  71.859  1.00  0.00    -0.111 C  
HETATM   28  C   UNL     1     -10.547   5.397  73.748  1.00  0.00    -0.286 C  
ENDBRANCH  23  25
ENDBRANCH  22  23
BRANCH  22  29
HETATM   29  C   UNL     1      -7.429   6.585  69.910  1.00  0.00    -0.088 C  
HETATM   30  C   UNL     1      -7.370   6.364  68.380  1.00  0.00    -0.087 C  
HETATM   31  C   UNL     1      -5.921   6.497  67.893  1.00  0.00    -0.020 C  
HETATM   32  C   UNL     1      -7.907   5.011  67.906  1.00  0.00    -0.090 C  
ENDBRANCH  22  29
ENDBRANCH  19  22
ENDBRANCH  10  18
ENDBRANCH   8  10
ENDBRANCH   5   6
BRANCH   5  33
HETATM   33  N   UNL     1      -9.764  12.745  67.547  1.00  0.00    -0.197 N  
HETATM   34  H   UNL     1      -9.254  13.598  67.778  1.00  0.00     0.000 HD 
HETATM   35  O   UNL     1     -11.801  11.887  66.925  1.00  0.00    -0.590 OA 
HETATM   36  C   UNL     1     -11.096  12.852  67.216  1.00  0.00    -0.274 C  
BRANCH  36  37
HETATM   37  C   UNL     1     -11.639  14.294  67.207  1.00  0.00    -0.377 C  
BRANCH  37  38
HETATM   38  N   UNL     1     -10.531  15.254  67.210  1.00  0.00    -0.270 N  
HETATM   39  O   UNL     1     -11.260  16.165  69.160  1.00  0.00    -0.310 OA 
HETATM   40  C   UNL     1     -10.427  16.151  68.243  1.00  0.00    -0.276 C  
HETATM   41  H   UNL     1      -9.846  15.255  66.453  1.00  0.00     0.000 HD 
BRANCH  40  42
HETATM   42  C   UNL     1      -9.230  17.106  68.281  1.00  0.00    -0.262 C  
BRANCH  42  43
HETATM   43  N   UNL     1      -9.534  18.545  68.476  1.00  0.00    -0.334 NA 
HETATM   44  C   UNL     1      -8.051  19.697  66.707  1.00  0.00    -0.297 C  
HETATM   45  C   UNL     1     -10.637  18.937  67.551  1.00  0.00    -0.451 C  
HETATM   46  O   UNL     1      -9.196  19.977  65.894  1.00  0.00    -0.332 OA 
HETATM   47  C   UNL     1     -10.211  18.987  66.071  1.00  0.00    -0.401 C  
HETATM   48  C   UNL     1      -8.396  19.453  68.193  1.00  0.00    -0.328 C  
ENDBRANCH  42  43
ENDBRANCH  40  42
ENDBRANCH  37  38
BRANCH  37  49
HETATM   49  C   UNL     1     -12.568  14.463  66.000  1.00  0.00    -0.235 C  
BRANCH  49  50
HETATM   50  C   UNL     1     -11.751  14.646  64.710  1.00  0.00    -0.429 C  
BRANCH  50  51
HETATM   51  C   UNL     1     -11.279  13.337  64.140  1.00  0.00    -0.412 A  
HETATM   52  C   UNL     1      -9.941  12.947  64.271  1.00  0.00    -0.135 A  
HETATM   53  C   UNL     1      -9.508  11.731  63.743  1.00  0.00    -0.082 A  
HETATM   54  C   UNL     1     -11.743  11.272  62.956  1.00  0.00     0.545 A  
HETATM   55  C   UNL     1     -12.179  12.488  63.481  1.00  0.00    -0.652 A  
HETATM   56  C   UNL     1     -10.409  10.894  63.087  1.00  0.00    -0.172 A  
ENDBRANCH  50  51
ENDBRANCH  49  50
ENDBRANCH  37  49
ENDBRANCH  36  37
ENDBRANCH   5  33
ENDBRANCH   3   5
TORSDOF 18
ENDMDL
MODEL       25
REMARK 921   NORMALIZED FREE ENERGY PREDICTED BY IDOCK:   -5.18 KCAL/MOL
REMARK 922        TOTAL FREE ENERGY PREDICTED BY IDOCK:  -14.26 KCAL/MOL
REMARK 923 INTER-LIGAND FREE ENERGY PREDICTED BY IDOCK:  -11.04 KCAL/MOL
REMARK 924 INTRA-LIGAND FREE ENERGY PREDICTED BY IDOCK:   -3.21 KCAL/MOL
REMARK 927      BINDING AFFINITY PREDICTED BY RF-SCORE:    0.00 PKD
ROOT
HETATM    1  C   UNL     1     -10.044  10.735  66.387  1.00  0.00    -0.278 C  
HETATM    2  C   UNL     1      -8.920   9.820  65.895  1.00  0.00    -0.189 C  
HETATM    3  C   UNL     1      -7.498  10.309  66.246  1.00  0.00    -0.118 C  
HETATM    4  C   UNL     1      -9.064   9.621  64.382  1.00  0.00    -0.279 C  
ENDROOT
BRANCH   3   5
HETATM    5  C   UNL     1      -7.194  10.455  67.752  1.00  0.00    -0.086 C  
BRANCH   5   6
HETATM    6  C   UNL     1      -6.978  11.887  68.300  1.00  0.00    -0.077 C  
HETATM    7  H   UNL     1      -7.340  12.683  66.434  1.00  0.00     0.000 HD 
HETATM    8  N   UNL     1      -7.247  12.909  67.424  1.00  0.00    -0.149 N  
HETATM    9  O   UNL     1      -6.696  12.083  69.481  1.00  0.00    -0.104 OA 
BRANCH   8  10
HETATM   10  C   UNL     1      -7.409  14.307  67.836  1.00  0.00    -0.156 C  
BRANCH  10  11
HETATM   11  C   UNL     1      -6.222  15.236  67.496  1.00  0.00    -0.102 C  
BRANCH  11  12
HETATM   12  C   UNL     1      -6.569  16.693  67.694  1.00  0.00    -0.171 A  
HETATM   13  C   UNL     1      -6.370  17.618  66.660  1.00  0.00    -0.235 A  
HETATM   14  C   UNL     1      -7.005  18.517  69.220  1.00  0.00    -0.207 A  
HETATM   15  C   UNL     1      -6.940  17.152  68.961  1.00  0.00    -0.235 A  
HETATM   16  C   UNL     1      -6.732  19.433  68.205  1.00  0.00    -0.293 A  
HETATM   17  C   UNL     1      -6.439  18.983  66.920  1.00  0.00    -0.195 A  
ENDBRANCH  11  12
ENDBRANCH  10  11
BRANCH  10  18
HETATM   18  C   UNL     1      -8.738  14.830  67.225  1.00  0.00    -0.210 C  
HETATM   19  N   UNL     1      -9.840  14.655  68.033  1.00  0.00    -0.213 N  
HETATM   20  O   UNL     1      -8.817  15.329  66.104  1.00  0.00    -0.284 OA 
HETATM   21  H   UNL     1      -9.692  14.265  68.963  1.00  0.00     0.000 HD 
BRANCH  19  22
HETATM   22  C   UNL     1     -11.208  14.993  67.640  1.00  0.00    -0.326 C  
BRANCH  22  23
HETATM   23  C   UNL     1     -11.926  15.363  68.946  1.00  0.00    -0.273 C  
HETATM   24  O   UNL     1     -12.722  16.299  69.013  1.00  0.00     0.512 OA 
BRANCH  23  25
HETATM   25  C   UNL     1     -11.657  14.551  70.168  1.00  0.00    -0.276 C  
HETATM   26  O   UNL     1     -11.310  13.178  69.931  1.00  0.00    -0.139 OA 
HETATM   27  C   UNL     1     -10.962  15.165  71.344  1.00  0.00    -0.119 C  
HETATM   28  C   UNL     1     -12.625  13.410  70.449  1.00  0.00    -0.167 C  
ENDBRANCH  23  25
ENDBRANCH  22  23
BRANCH  22  29
HETATM   29  C   UNL     1     -11.925  13.860  66.884  1.00  0.00    -0.467 C  
HETATM   30  C   UNL     1     -11.719  13.785  65.353  1.00  0.00    -0.346 C  
HETATM   31  C   UNL     1     -12.452  12.560  64.790  1.00  0.00    -0.532 C  
HETATM   32  C   UNL     1     -12.193  15.018  64.580  1.00  0.00    -0.344 C  
ENDBRANCH  22  29
ENDBRANCH  19  22
ENDBRANCH  10  18
ENDBRANCH   8  10
ENDBRANCH   5   6
BRANCH   5  33
HETATM   33  N   UNL     1      -8.172   9.766  68.600  1.00  0.00    -0.104 N  
HETATM   34  H   UNL     1      -9.049  10.243  68.810  1.00  0.00     0.000 HD 
HETATM   35  O   UNL     1      -6.949   7.853  68.941  1.00  0.00    -0.062 OA 
HETATM   36  C   UNL     1      -7.970   8.511  69.130  1.00  0.00    -0.112 C  
BRANCH  36  37
HETATM   37  C   UNL     1      -9.150   7.971  69.963  1.00  0.00    -0.152 C  
BRANCH  37  38
HETATM   38  N   UNL     1      -9.029   6.519  70.133  1.00  0.00    -0.154 N  
HETATM   39  O   UNL     1     -10.835   6.164  68.799  1.00  0.00    -0.276 OA 
HETATM   40  C   UNL     1      -9.925   5.696  69.499  1.00  0.00    -0.198 C  
HETATM   41  H   UNL     1      -8.288   6.127  70.714  1.00  0.00     0.000 HD 
BRANCH  40  42
HETATM   42  C   UNL     1      -9.755   4.178  69.621  1.00  0.00    -0.199 C  
BRANCH  42  43
HETATM   43  N   UNL     1      -9.478   3.438  68.366  1.00  0.00    -0.170 NA 
HETATM   44  C   UNL     1      -6.900   3.387  68.280  1.00  0.00    -0.049 C  
HETATM   45  C   UNL     1      -9.321   1.988  68.683  1.00  0.00    -0.175 C  
HETATM   46  O   UNL     1      -6.891   1.998  68.629  1.00  0.00    -0.035 OA 
HETATM   47  C   UNL     1      -8.019   1.661  69.440  1.00  0.00    -0.045 C  
HETATM   48  C   UNL     1      -8.238   3.859  67.671  1.00  0.00    -0.093 C  
ENDBRANCH  42  43
ENDBRANCH  40  42
ENDBRANCH  37  38
BRANCH  37  49
HETATM   49  C   UNL     1      -9.197   8.723  71.296  1.00  0.00    -0.309 C  
BRANCH  49  50
HETATM   50  C   UNL     1     -10.102   7.990  72.299  1.00  0.00    -0.311 C  
BRANCH  50  51
HETATM   51  C   UNL     1     -11.563   8.242  72.043  1.00  0.00    -0.403 A  
HETATM   52  C   UNL     1     -12.458   7.172  71.931  1.00  0.00    -0.341 A  
HETATM   53  C   UNL     1     -13.813   7.409  71.697  1.00  0.00    -0.490 A  
HETATM   54  C   UNL     1     -13.399   9.788  71.693  1.00  0.00    -0.487 A  
HETATM   55  C   UNL     1     -12.044   9.553  71.926  1.00  0.00    -0.409 A  
HETATM   56  C   UNL     1     -14.282   8.717  71.578  1.00  0.00    -0.412 A  
ENDBRANCH  50  51
ENDBRANCH  49  50
ENDBRANCH  37  49
ENDBRANCH  36  37
ENDBRANCH   5  33
ENDBRANCH   3   5
TORSDOF 18
ENDMDL
MODEL       26
REMARK 921   NORMALIZED FREE ENERGY PREDICTED BY IDOCK:   -5.09 KCAL/MOL
REMARK 922        TOTAL FREE ENERGY PREDICTED BY IDOCK:  -14.08 KCAL/MOL
REMARK 923 INTER-LIGAND FREE ENERGY PREDICTED BY IDOCK:  -11.90 KCAL/MOL
REMARK 924 INTRA-LIGAND FREE ENERGY PREDICTED BY IDOCK:   -2.18 KCAL/MOL
REMARK 927      BINDING AFFINITY PREDICTED BY RF-SCORE:    0.00 PKD
ROOT
HETATM    1  C   UNL     1      -6.907   9.562  67.275  1.00  0.00    -0.084 C  
HETATM    2  C   UNL     1      -7.550  10.029  65.967  1.00  0.00    -0.111 C  
HETATM    3  C   UNL     1      -8.735   9.161  65.491  1.00  0.00    -0.210 C  
HETATM    4  C   UNL     1      -6.471  10.109  64.882  1.00  0.00    -0.129 C  
ENDROOT
BRANCH   3   5
HETATM    5  C   UNL     1      -9.935   9.080  66.459  1.00  0.00    -0.285 C  
BRANCH   5   6
HETATM    6  C   UNL     1     -10.219   7.714  67.131  1.00  0.00    -0.290 C  
HETATM    7  H   UNL     1      -8.258   7.582  67.748  1.00  0.00     0.000 HD 
HETATM    8  N   UNL     1      -9.190   7.187  67.869  1.00  0.00    -0.130 N  
HETATM    9  O   UNL     1     -11.337   7.203  67.091  1.00  0.00    -0.160 OA 
BRANCH   8  10
HETATM   10  C   UNL     1      -9.358   6.085  68.821  1.00  0.00    -0.122 C  
BRANCH  10  11
HETATM   11  C   UNL     1      -8.050   5.535  69.433  1.00  0.00    -0.095 C  
BRANCH  11  12
HETATM   12  C   UNL     1      -7.361   4.558  68.510  1.00  0.00    -0.061 A  
HETATM   13  C   UNL     1      -6.524   5.018  67.485  1.00  0.00    -0.045 A  
HETATM   14  C   UNL     1      -7.262   2.333  67.569  1.00  0.00    -0.052 A  
HETATM   15  C   UNL     1      -7.681   3.198  68.574  1.00  0.00    -0.054 A  
HETATM   16  C   UNL     1      -6.492   2.813  66.511  1.00  0.00    -0.032 A  
HETATM   17  C   UNL     1      -6.103   4.150  66.481  1.00  0.00    -0.031 A  
ENDBRANCH  11  12
ENDBRANCH  10  11
BRANCH  10  18
HETATM   18  C   UNL     1     -10.349   6.556  69.922  1.00  0.00    -0.191 C  
HETATM   19  N   UNL     1      -9.810   7.440  70.829  1.00  0.00    -0.179 N  
HETATM   20  O   UNL     1     -11.509   6.154  70.004  1.00  0.00    -0.406 OA 
HETATM   21  H   UNL     1      -8.851   7.754  70.678  1.00  0.00     0.000 HD 
BRANCH  19  22
HETATM   22  C   UNL     1     -10.523   7.956  71.997  1.00  0.00    -0.231 C  
BRANCH  22  23
HETATM   23  C   UNL     1      -9.840   7.308  73.211  1.00  0.00    -0.256 C  
HETATM   24  O   UNL     1     -10.481   6.857  74.159  1.00  0.00    -0.357 OA 
BRANCH  23  25
HETATM   25  C   UNL     1      -8.352   7.212  73.230  1.00  0.00    -0.116 C  
HETATM   26  O   UNL     1      -7.802   6.034  72.620  1.00  0.00    -0.103 OA 
HETATM   27  C   UNL     1      -7.515   8.441  73.052  1.00  0.00    -0.113 C  
HETATM   28  C   UNL     1      -7.757   6.077  74.051  1.00  0.00    -0.097 C  
ENDBRANCH  23  25
ENDBRANCH  22  23
BRANCH  22  29
HETATM   29  C   UNL     1     -12.037   7.675  71.963  1.00  0.00    -0.336 C  
HETATM   30  C   UNL     1     -12.954   8.788  71.406  1.00  0.00    -0.306 C  
HETATM   31  C   UNL     1     -14.410   8.301  71.390  1.00  0.00    -0.461 C  
HETATM   32  C   UNL     1     -12.905  10.108  72.179  1.00  0.00    -0.381 C  
ENDBRANCH  22  29
ENDBRANCH  19  22
ENDBRANCH  10  18
ENDBRANCH   8  10
ENDBRANCH   5   6
BRANCH   5  33
HETATM   33  N   UNL     1      -9.903  10.118  67.494  1.00  0.00    -0.172 N  
HETATM   34  H   UNL     1      -9.184  10.058  68.216  1.00  0.00     0.000 HD 
HETATM   35  O   UNL     1     -11.695  11.333  66.729  1.00  0.00    -0.418 OA 
HETATM   36  C   UNL     1     -10.791  11.170  67.546  1.00  0.00    -0.254 C  
BRANCH  36  37
HETATM   37  C   UNL     1     -10.545  12.159  68.703  1.00  0.00    -0.223 C  
BRANCH  37  38
HETATM   38  N   UNL     1     -10.100  13.454  68.178  1.00  0.00    -0.238 N  
HETATM   39  O   UNL     1      -7.923  12.811  68.304  1.00  0.00    -0.139 OA 
HETATM   40  C   UNL     1      -8.757  13.679  68.009  1.00  0.00    -0.176 C  
HETATM   41  H   UNL     1     -10.779  14.176  67.941  1.00  0.00     0.000 HD 
BRANCH  40  42
HETATM   42  C   UNL     1      -8.297  15.006  67.395  1.00  0.00    -0.190 C  
BRANCH  42  43
HETATM   43  N   UNL     1      -9.292  16.105  67.368  1.00  0.00    -0.216 NA 
HETATM   44  C   UNL     1      -8.022  18.064  68.466  1.00  0.00    -0.303 C  
HETATM   45  C   UNL     1      -9.097  16.906  66.124  1.00  0.00    -0.230 C  
HETATM   46  O   UNL     1      -7.871  18.710  67.197  1.00  0.00    -0.229 OA 
HETATM   47  C   UNL     1      -7.811  17.755  66.135  1.00  0.00    -0.227 C  
HETATM   48  C   UNL     1      -9.187  17.050  68.505  1.00  0.00    -0.266 C  
ENDBRANCH  42  43
ENDBRANCH  40  42
ENDBRANCH  37  38
BRANCH  37  49
HETATM   49  C   UNL     1     -11.823  12.266  69.541  1.00  0.00    -0.380 C  
BRANCH  49  50
HETATM   50  C   UNL     1     -12.458  13.657  69.384  1.00  0.00    -0.036 C  
BRANCH  50  51
HETATM   51  C   UNL     1     -12.545  14.397  70.691  1.00  0.00    -0.424 A  
HETATM   52  C   UNL     1     -11.385  14.863  71.321  1.00  0.00    -0.256 A  
HETATM   53  C   UNL     1     -11.469  15.551  72.531  1.00  0.00    -0.435 A  
HETATM   54  C   UNL     1     -13.873  15.329  72.494  1.00  0.00    -0.626 A  
HETATM   55  C   UNL     1     -13.791  14.638  71.285  1.00  0.00    -0.420 A  
HETATM   56  C   UNL     1     -12.713  15.784  73.116  1.00  0.00    -0.618 A  
ENDBRANCH  50  51
ENDBRANCH  49  50
ENDBRANCH  37  49
ENDBRANCH  36  37
ENDBRANCH   5  33
ENDBRANCH   3   5
TORSDOF 18
ENDMDL
MODEL       27
REMARK 921   NORMALIZED FREE ENERGY PREDICTED BY IDOCK:   -5.06 KCAL/MOL
REMARK 922        TOTAL FREE ENERGY PREDICTED BY IDOCK:  -14.02 KCAL/MOL
REMARK 923 INTER-LIGAND FREE ENERGY PREDICTED BY IDOCK:  -11.43 KCAL/MOL
REMARK 924 INTRA-LIGAND FREE ENERGY PREDICTED BY IDOCK:   -2.59 KCAL/MOL
REMARK 927      BINDING AFFINITY PREDICTED BY RF-SCORE:    0.00 PKD
ROOT
HETATM    1  C   UNL     1      -6.246  12.856  69.929  1.00  0.00    -0.086 C  
HETATM    2  C   UNL     1      -6.475  13.509  68.564  1.00  0.00    -0.090 C  
HETATM    3  C   UNL     1      -6.247  12.569  67.359  1.00  0.00    -0.158 C  
HETATM    4  C   UNL     1      -5.588  14.754  68.451  1.00  0.00    -0.110 C  
ENDROOT
BRANCH   3   5
HETATM    5  C   UNL     1      -7.154  11.321  67.305  1.00  0.00    -0.114 C  
BRANCH   5   6
HETATM    6  C   UNL     1      -6.828  10.160  68.276  1.00  0.00    -0.062 C  
HETATM    7  H   UNL     1      -8.665  10.373  69.185  1.00  0.00     0.000 HD 
HETATM    8  N   UNL     1      -7.855   9.760  69.094  1.00  0.00    -0.088 N  
HETATM    9  O   UNL     1      -5.752   9.568  68.226  1.00  0.00    -0.037 OA 
BRANCH   8  10
HETATM   10  C   UNL     1      -7.850   8.500  69.843  1.00  0.00    -0.096 C  
BRANCH  10  11
HETATM   11  C   UNL     1      -8.344   8.597  71.304  1.00  0.00    -0.211 C  
BRANCH  11  12
HETATM   12  C   UNL     1      -9.848   8.506  71.400  1.00  0.00    -0.296 A  
HETATM   13  C   UNL     1     -10.639   9.657  71.280  1.00  0.00    -0.269 A  
HETATM   14  C   UNL     1     -11.795   7.264  72.116  1.00  0.00    -0.324 A  
HETATM   15  C   UNL     1     -10.448   7.298  71.768  1.00  0.00    -0.218 A  
HETATM   16  C   UNL     1     -12.558   8.429  72.067  1.00  0.00    -0.400 A  
HETATM   17  C   UNL     1     -11.986   9.620  71.626  1.00  0.00    -0.470 A  
ENDBRANCH  11  12
ENDBRANCH  10  11
BRANCH  10  18
HETATM   18  C   UNL     1      -8.672   7.461  69.030  1.00  0.00    -0.133 C  
HETATM   19  N   UNL     1      -8.213   6.167  69.136  1.00  0.00    -0.112 N  
HETATM   20  O   UNL     1      -9.631   7.763  68.321  1.00  0.00    -0.151 OA 
HETATM   21  H   UNL     1      -7.434   5.988  69.768  1.00  0.00     0.000 HD 
BRANCH  19  22
HETATM   22  C   UNL     1      -8.773   5.035  68.400  1.00  0.00    -0.101 C  
BRANCH  22  23
HETATM   23  C   UNL     1      -9.407   4.129  69.466  1.00  0.00    -0.168 C  
HETATM   24  O   UNL     1     -10.242   4.546  70.267  1.00  0.00    -0.219 OA 
BRANCH  23  25
HETATM   25  C   UNL     1      -9.004   2.694  69.519  1.00  0.00    -0.107 C  
HETATM   26  O   UNL     1      -8.992   2.106  70.830  1.00  0.00    -0.068 OA 
HETATM   27  C   UNL     1      -9.416   1.754  68.430  1.00  0.00    -0.239 C  
HETATM   28  C   UNL     1      -7.709   2.382  70.256  1.00  0.00    -0.042 C  
ENDBRANCH  23  25
ENDBRANCH  22  23
BRANCH  22  29
HETATM   29  C   UNL     1      -7.734   4.286  67.544  1.00  0.00    -0.084 C  
HETATM   30  C   UNL     1      -7.480   4.811  66.112  1.00  0.00    -0.086 C  
HETATM   31  C   UNL     1      -6.372   3.985  65.445  1.00  0.00    -0.032 C  
HETATM   32  C   UNL     1      -8.705   4.789  65.194  1.00  0.00    -0.144 C  
ENDBRANCH  22  29
ENDBRANCH  19  22
ENDBRANCH  10  18
ENDBRANCH   8  10
ENDBRANCH   5   6
BRANCH   5  33
HETATM   33  N   UNL     1      -8.580  11.647  67.419  1.00  0.00    -0.144 N  
HETATM   34  H   UNL     1      -8.862  12.343  68.109  1.00  0.00     0.000 HD 
HETATM   35  O   UNL     1      -9.326  10.215  65.786  1.00  0.00    -0.165 OA 
HETATM   36  C   UNL     1      -9.558  11.064  66.644  1.00  0.00    -0.189 C  
BRANCH  36  37
HETATM   37  C   UNL     1     -10.983  11.587  66.914  1.00  0.00    -0.296 C  
BRANCH  37  38
HETATM   38  N   UNL     1     -10.984  12.483  68.075  1.00  0.00    -0.221 N  
HETATM   39  O   UNL     1     -12.700  11.332  69.022  1.00  0.00    -0.190 OA 
HETATM   40  C   UNL     1     -11.886  12.264  69.085  1.00  0.00    -0.301 C  
HETATM   41  H   UNL     1     -10.324  13.258  68.130  1.00  0.00     0.000 HD 
BRANCH  40  42
HETATM   42  C   UNL     1     -11.840  13.158  70.329  1.00  0.00    -0.224 C  
BRANCH  42  43
HETATM   43  N   UNL     1     -13.015  14.033  70.562  1.00  0.00    -0.218 NA 
HETATM   44  C   UNL     1     -12.789  14.655  73.056  1.00  0.00    -0.474 C  
HETATM   45  C   UNL     1     -12.610  15.454  70.353  1.00  0.00    -0.389 C  
HETATM   46  O   UNL     1     -12.373  15.981  72.713  1.00  0.00    -0.429 OA 
HETATM   47  C   UNL     1     -11.688  16.001  71.460  1.00  0.00    -0.484 C  
HETATM   48  C   UNL     1     -13.577  13.947  71.932  1.00  0.00    -0.430 C  
ENDBRANCH  42  43
ENDBRANCH  40  42
ENDBRANCH  37  38
BRANCH  37  49
HETATM   49  C   UNL     1     -11.509  12.262  65.643  1.00  0.00    -0.416 C  
BRANCH  49  50
HETATM   50  C   UNL     1     -10.367  12.965  64.891  1.00  0.00    -0.329 C  
BRANCH  50  51
HETATM   51  C   UNL     1     -10.229  14.411  65.282  1.00  0.00    -0.416 A  
HETATM   52  C   UNL     1      -9.172  14.826  66.101  1.00  0.00    -0.237 A  
HETATM   53  C   UNL     1      -9.046  16.168  66.459  1.00  0.00    -0.311 A  
HETATM   54  C   UNL     1     -11.021  16.701  65.178  1.00  0.00    -0.160 A  
HETATM   55  C   UNL     1     -11.151  15.359  64.819  1.00  0.00    -0.416 A  
HETATM   56  C   UNL     1      -9.969  17.105  65.997  1.00  0.00    -0.270 A  
ENDBRANCH  50  51
ENDBRANCH  49  50
ENDBRANCH  37  49
ENDBRANCH  36  37
ENDBRANCH   5  33
ENDBRANCH   3   5
TORSDOF 18
ENDMDL
MODEL       28
REMARK 921   NORMALIZED FREE ENERGY PREDICTED BY IDOCK:   -4.91 KCAL/MOL
REMARK 922        TOTAL FREE ENERGY PREDICTED BY IDOCK:  -13.70 KCAL/MOL
REMARK 923 INTER-LIGAND FREE ENERGY PREDICTED BY IDOCK:  -12.91 KCAL/MOL
REMARK 924 INTRA-LIGAND FREE ENERGY PREDICTED BY IDOCK:   -0.79 KCAL/MOL
REMARK 927      BINDING AFFINITY PREDICTED BY RF-SCORE:    0.00 PKD
ROOT
HETATM    1  C   UNL     1      -9.194   9.269  65.675  1.00  0.00    -0.291 C  
HETATM    2  C   UNL     1      -8.179   9.381  66.815  1.00  0.00    -0.112 C  
HETATM    3  C   UNL     1      -8.214  10.726  67.573  1.00  0.00    -0.112 C  
HETATM    4  C   UNL     1      -6.775   9.111  66.262  1.00  0.00    -0.071 C  
ENDROOT
BRANCH   3   5
HETATM    5  C   UNL     1      -9.552  11.070  68.262  1.00  0.00    -0.171 C  
BRANCH   5   6
HETATM    6  C   UNL     1     -10.037  10.124  69.388  1.00  0.00    -0.231 C  
HETATM    7  H   UNL     1      -9.005   8.552  68.547  1.00  0.00     0.000 HD 
HETATM    8  N   UNL     1      -9.494   8.864  69.386  1.00  0.00    -0.160 N  
HETATM    9  O   UNL     1     -10.775  10.527  70.286  1.00  0.00    -0.253 OA 
BRANCH   8  10
HETATM   10  C   UNL     1      -9.578   7.944  70.524  1.00  0.00    -0.170 C  
BRANCH  10  11
HETATM   11  C   UNL     1     -10.990   7.769  71.128  1.00  0.00    -0.259 C  
BRANCH  11  12
HETATM   12  C   UNL     1     -10.980   6.859  72.334  1.00  0.00    -0.280 A  
HETATM   13  C   UNL     1     -10.355   7.261  73.522  1.00  0.00    -0.412 A  
HETATM   14  C   UNL     1     -11.212   4.626  73.231  1.00  0.00    -0.411 A  
HETATM   15  C   UNL     1     -11.454   5.549  72.219  1.00  0.00    -0.221 A  
HETATM   16  C   UNL     1     -10.523   5.014  74.379  1.00  0.00    -0.313 A  
HETATM   17  C   UNL     1     -10.116   6.337  74.535  1.00  0.00    -0.353 A  
ENDBRANCH  11  12
ENDBRANCH  10  11
BRANCH  10  18
HETATM   18  C   UNL     1      -8.975   6.583  70.079  1.00  0.00    -0.144 C  
HETATM   19  N   UNL     1      -9.375   6.167  68.829  1.00  0.00    -0.123 N  
HETATM   20  O   UNL     1      -8.229   5.910  70.789  1.00  0.00    -0.119 OA 
HETATM   21  H   UNL     1      -9.967   6.794  68.285  1.00  0.00     0.000 HD 
BRANCH  19  22
HETATM   22  C   UNL     1      -9.004   4.884  68.233  1.00  0.00    -0.109 C  
BRANCH  22  23
HETATM   23  C   UNL     1      -9.581   4.915  66.810  1.00  0.00    -0.161 C  
HETATM   24  O   UNL     1     -10.747   5.235  66.582  1.00  0.00    -0.291 OA 
BRANCH  23  25
HETATM   25  C   UNL     1      -8.691   4.558  65.667  1.00  0.00    -0.124 C  
HETATM   26  O   UNL     1      -9.317   4.560  64.374  1.00  0.00    -0.153 OA 
HETATM   27  C   UNL     1      -7.262   5.003  65.657  1.00  0.00    -0.068 C  
HETATM   28  C   UNL     1      -9.025   3.271  64.927  1.00  0.00    -0.135 C  
ENDBRANCH  23  25
ENDBRANCH  22  23
BRANCH  22  29
HETATM   29  C   UNL     1      -9.503   3.669  69.035  1.00  0.00    -0.226 C  
HETATM   30  C   UNL     1      -8.438   2.683  69.570  1.00  0.00    -0.101 C  
HETATM   31  C   UNL     1      -9.117   1.582  70.396  1.00  0.00    -0.142 C  
HETATM   32  C   UNL     1      -7.587   2.009  68.490  1.00  0.00    -0.050 C  
ENDBRANCH  22  29
ENDBRANCH  19  22
ENDBRANCH  10  18
ENDBRANCH   8  10
ENDBRANCH   5   6
BRANCH   5  33
HETATM   33  N   UNL     1      -9.603  12.452  68.750  1.00  0.00    -0.410 N  
HETATM   34  H   UNL     1      -9.371  12.627  69.729  1.00  0.00     0.000 HD 
HETATM   35  O   UNL     1     -10.246  13.425  66.772  1.00  0.00    -0.252 OA 
HETATM   36  C   UNL     1      -9.948  13.527  67.961  1.00  0.00    -0.248 C  
BRANCH  36  37
HETATM   37  C   UNL     1      -9.899  14.890  68.679  1.00  0.00    -0.225 C  
BRANCH  37  38
HETATM   38  N   UNL     1      -8.736  15.660  68.227  1.00  0.00    -0.171 N  
HETATM   39  O   UNL     1      -9.680  17.599  68.947  1.00  0.00    -0.300 OA 
HETATM   40  C   UNL     1      -8.723  17.020  68.415  1.00  0.00    -0.247 C  
HETATM   41  H   UNL     1      -7.948  15.192  67.780  1.00  0.00     0.000 HD 
BRANCH  40  42
HETATM   42  C   UNL     1      -7.478  17.814  68.005  1.00  0.00    -0.226 C  
BRANCH  42  43
HETATM   43  N   UNL     1      -7.481  18.396  66.641  1.00  0.00    -0.219 NA 
HETATM   44  C   UNL     1      -7.660  20.930  67.092  1.00  0.00    -0.235 C  
HETATM   45  C   UNL     1      -6.080  18.742  66.258  1.00  0.00    -0.168 C  
HETATM   46  O   UNL     1      -6.286  21.116  66.734  1.00  0.00    -0.276 OA 
HETATM   47  C   UNL     1      -5.513  19.951  67.027  1.00  0.00    -0.168 C  
HETATM   48  C   UNL     1      -8.278  19.640  66.510  1.00  0.00    -0.328 C  
ENDBRANCH  42  43
ENDBRANCH  40  42
ENDBRANCH  37  38
BRANCH  37  49
HETATM   49  C   UNL     1     -11.225  15.620  68.440  1.00  0.00    -0.352 C  
BRANCH  49  50
HETATM   50  C   UNL     1     -12.394  14.833  69.055  1.00  0.00    -0.083 C  
BRANCH  50  51
HETATM   51  C   UNL     1     -12.636  15.198  70.494  1.00  0.00    -0.429 A  
HETATM   52  C   UNL     1     -11.666  15.897  71.222  1.00  0.00    -0.504 A  
HETATM   53  C   UNL     1     -11.896  16.236  72.555  1.00  0.00    -0.608 A  
HETATM   54  C   UNL     1     -14.070  15.193  72.450  1.00  0.00    -0.593 A  
HETATM   55  C   UNL     1     -13.843  14.851  71.117  1.00  0.00    -0.428 A  
HETATM   56  C   UNL     1     -13.098  15.885  73.168  1.00  0.00    -0.673 A  
ENDBRANCH  50  51
ENDBRANCH  49  50
ENDBRANCH  37  49
ENDBRANCH  36  37
ENDBRANCH   5  33
ENDBRANCH   3   5
TORSDOF 18
ENDMDL
MODEL       29
REMARK 921   NORMALIZED FREE ENERGY PREDICTED BY IDOCK:   -4.89 KCAL/MOL
REMARK 922        TOTAL FREE ENERGY PREDICTED BY IDOCK:  -13.66 KCAL/MOL
REMARK 923 INTER-LIGAND FREE ENERGY PREDICTED BY IDOCK:  -11.25 KCAL/MOL
REMARK 924 INTRA-LIGAND FREE ENERGY PREDICTED BY IDOCK:   -2.42 KCAL/MOL
REMARK 927      BINDING AFFINITY PREDICTED BY RF-SCORE:    0.00 PKD
ROOT
HETATM    1  C   UNL     1     -11.447   7.137  70.215  1.00  0.00    -0.287 C  
HETATM    2  C   UNL     1     -11.677   8.506  70.860  1.00  0.00    -0.274 C  
HETATM    3  C   UNL     1     -10.569   9.543  70.570  1.00  0.00    -0.358 C  
HETATM    4  C   UNL     1     -11.861   8.322  72.370  1.00  0.00    -0.461 C  
ENDROOT
BRANCH   3   5
HETATM    5  C   UNL     1     -10.352   9.890  69.082  1.00  0.00    -0.209 C  
BRANCH   5   6
HETATM    6  C   UNL     1     -10.148  11.382  68.720  1.00  0.00    -0.188 C  
HETATM    7  H   UNL     1     -12.124  11.542  68.161  1.00  0.00     0.000 HD 
HETATM    8  N   UNL     1     -11.282  12.074  68.380  1.00  0.00    -0.239 N  
HETATM    9  O   UNL     1      -9.052  11.925  68.845  1.00  0.00    -0.014 OA 
BRANCH   8  10
HETATM   10  C   UNL     1     -11.349  13.537  68.314  1.00  0.00    -0.294 C  
BRANCH  10  11
HETATM   11  C   UNL     1     -11.081  14.271  69.648  1.00  0.00    -0.218 C  
BRANCH  11  12
HETATM   12  C   UNL     1     -12.278  14.229  70.567  1.00  0.00    -0.427 A  
HETATM   13  C   UNL     1     -12.995  15.399  70.853  1.00  0.00    -0.539 A  
HETATM   14  C   UNL     1     -13.506  13.073  72.299  1.00  0.00    -0.645 A  
HETATM   15  C   UNL     1     -12.580  13.054  71.261  1.00  0.00    -0.373 A  
HETATM   16  C   UNL     1     -14.161  14.259  72.629  1.00  0.00    -0.280 A  
HETATM   17  C   UNL     1     -13.924  15.416  71.890  1.00  0.00    -0.629 A  
ENDBRANCH  11  12
ENDBRANCH  10  11
BRANCH  10  18
HETATM   18  C   UNL     1     -10.375  14.007  67.198  1.00  0.00    -0.265 C  
HETATM   19  N   UNL     1      -9.443  14.933  67.611  1.00  0.00    -0.198 N  
HETATM   20  O   UNL     1     -10.443  13.618  66.033  1.00  0.00    -0.288 OA 
HETATM   21  H   UNL     1      -9.426  15.183  68.600  1.00  0.00     0.000 HD 
BRANCH  19  22
HETATM   22  C   UNL     1      -8.478  15.580  66.724  1.00  0.00    -0.279 C  
BRANCH  22  23
HETATM   23  C   UNL     1      -7.231  15.824  67.586  1.00  0.00    -0.166 C  
HETATM   24  O   UNL     1      -6.781  16.952  67.782  1.00  0.00    -0.137 OA 
BRANCH  23  25
HETATM   25  C   UNL     1      -6.555  14.654  68.217  1.00  0.00    -0.118 C  
HETATM   26  O   UNL     1      -5.275  14.310  67.662  1.00  0.00    -0.308 OA 
HETATM   27  C   UNL     1      -6.665  14.424  69.692  1.00  0.00    -0.137 C  
HETATM   28  C   UNL     1      -6.357  13.430  67.333  1.00  0.00     0.025 C  
ENDBRANCH  23  25
ENDBRANCH  22  23
BRANCH  22  29
HETATM   29  C   UNL     1      -9.006  16.878  66.085  1.00  0.00    -0.271 C  
HETATM   30  C   UNL     1      -9.486  17.996  67.040  1.00  0.00    -0.273 C  
HETATM   31  C   UNL     1      -9.910  19.227  66.227  1.00  0.00    -0.456 C  
HETATM   32  C   UNL     1     -10.654  17.605  67.951  1.00  0.00    -0.390 C  
ENDBRANCH  22  29
ENDBRANCH  19  22
ENDBRANCH  10  18
ENDBRANCH   8  10
ENDBRANCH   5   6
BRANCH   5  33
HETATM   33  N   UNL     1      -9.281   9.102  68.463  1.00  0.00    -0.136 N  
HETATM   34  H   UNL     1      -8.362   9.105  68.907  1.00  0.00     0.000 HD 
HETATM   35  O   UNL     1     -10.511   8.290  66.703  1.00  0.00    -0.305 OA 
HETATM   36  C   UNL     1      -9.447   8.359  67.315  1.00  0.00    -0.154 C  
BRANCH  36  37
HETATM   37  C   UNL     1      -8.192   7.584  66.867  1.00  0.00    -0.124 C  
BRANCH  37  38
HETATM   38  N   UNL     1      -7.663   6.788  67.980  1.00  0.00    -0.110 N  
HETATM   39  O   UNL     1      -6.060   8.345  68.395  1.00  0.00    -0.044 OA 
HETATM   40  C   UNL     1      -6.590   7.265  68.689  1.00  0.00    -0.045 C  
HETATM   41  H   UNL     1      -8.088   5.893  68.223  1.00  0.00     0.000 HD 
BRANCH  40  42
HETATM   42  C   UNL     1      -6.082   6.466  69.895  1.00  0.00    -0.030 C  
BRANCH  42  43
HETATM   43  N   UNL     1      -6.486   6.957  71.235  1.00  0.00    -0.041 NA 
HETATM   44  C   UNL     1      -8.553   5.513  71.782  1.00  0.00    -0.135 C  
HETATM   45  C   UNL     1      -5.837   6.110  72.278  1.00  0.00    -0.037 C  
HETATM   46  O   UNL     1      -7.800   4.751  72.732  1.00  0.00    -0.090 OA 
HETATM   47  C   UNL     1      -6.420   4.686  72.365  1.00  0.00    -0.033 C  
HETATM   48  C   UNL     1      -7.946   6.903  71.489  1.00  0.00    -0.104 C  
ENDBRANCH  42  43
ENDBRANCH  40  42
ENDBRANCH  37  38
BRANCH  37  49
HETATM   49  C   UNL     1      -8.549   6.732  65.645  1.00  0.00    -0.126 C  
BRANCH  49  50
HETATM   50  C   UNL     1      -9.084   5.359  66.081  1.00  0.00    -0.154 C  
BRANCH  50  51
HETATM   51  C   UNL     1      -9.227   4.406  64.925  1.00  0.00    -0.157 A  
HETATM   52  C   UNL     1      -8.094   3.847  64.323  1.00  0.00    -0.090 A  
HETATM   53  C   UNL     1      -8.230   2.962  63.253  1.00  0.00    -0.085 A  
HETATM   54  C   UNL     1     -10.632   3.175  63.378  1.00  0.00    -0.246 A  
HETATM   55  C   UNL     1     -10.499   4.061  64.447  1.00  0.00    -0.215 A  
HETATM   56  C   UNL     1      -9.499   2.626  62.782  1.00  0.00    -0.093 A  
ENDBRANCH  50  51
ENDBRANCH  49  50
ENDBRANCH  37  49
ENDBRANCH  36  37
ENDBRANCH   5  33
ENDBRANCH   3   5
TORSDOF 18
ENDMDL
MODEL       30
REMARK 921   NORMALIZED FREE ENERGY PREDICTED BY IDOCK:   -4.87 KCAL/MOL
REMARK 922        TOTAL FREE ENERGY PREDICTED BY IDOCK:  -13.62 KCAL/MOL
REMARK 923 INTER-LIGAND FREE ENERGY PREDICTED BY IDOCK:   -9.80 KCAL/MOL
REMARK 924 INTRA-LIGAND FREE ENERGY PREDICTED BY IDOCK:   -3.82 KCAL/MOL
REMARK 927      BINDING AFFINITY PREDICTED BY RF-SCORE:    0.00 PKD
ROOT
HETATM    1  C   UNL     1      -8.193   9.062  69.309  1.00  0.00    -0.117 C  
HETATM    2  C   UNL     1      -7.249   9.902  70.173  1.00  0.00    -0.159 C  
HETATM    3  C   UNL     1      -5.996  10.418  69.434  1.00  0.00    -0.038 C  
HETATM    4  C   UNL     1      -6.849   9.089  71.410  1.00  0.00    -0.073 C  
ENDROOT
BRANCH   3   5
HETATM    5  C   UNL     1      -6.265  11.334  68.221  1.00  0.00    -0.045 C  
BRANCH   5   6
HETATM    6  C   UNL     1      -6.003  10.748  66.812  1.00  0.00    -0.077 C  
HETATM    7  H   UNL     1      -5.733   8.870  67.617  1.00  0.00     0.000 HD 
HETATM    8  N   UNL     1      -5.879   9.383  66.747  1.00  0.00    -0.054 N  
HETATM    9  O   UNL     1      -6.023  11.460  65.810  1.00  0.00    -0.063 OA 
BRANCH   8  10
HETATM   10  C   UNL     1      -5.944   8.623  65.495  1.00  0.00    -0.048 C  
BRANCH  10  11
HETATM   11  C   UNL     1      -5.275   7.230  65.533  1.00  0.00    -0.028 C  
BRANCH  11  12
HETATM   12  C   UNL     1      -5.726   6.418  66.724  1.00  0.00    -0.013 A  
HETATM   13  C   UNL     1      -6.559   5.304  66.550  1.00  0.00    -0.052 A  
HETATM   14  C   UNL     1      -6.072   6.283  69.113  1.00  0.00    -0.029 A  
HETATM   15  C   UNL     1      -5.445   6.868  68.018  1.00  0.00    -0.016 A  
HETATM   16  C   UNL     1      -6.958   5.224  68.927  1.00  0.00    -0.056 A  
HETATM   17  C   UNL     1      -7.183   4.719  67.648  1.00  0.00    -0.070 A  
ENDBRANCH  11  12
ENDBRANCH  10  11
BRANCH  10  18
HETATM   18  C   UNL     1      -7.437   8.529  65.075  1.00  0.00    -0.089 C  
HETATM   19  N   UNL     1      -8.307   9.175  65.924  1.00  0.00    -0.119 N  
HETATM   20  O   UNL     1      -7.823   7.904  64.088  1.00  0.00    -0.126 OA 
HETATM   21  H   UNL     1      -7.910   9.700  66.703  1.00  0.00     0.000 HD 
BRANCH  19  22
HETATM   22  C   UNL     1      -9.762   9.156  65.780  1.00  0.00    -0.229 C  
BRANCH  22  23
HETATM   23  C   UNL     1     -10.196  10.628  65.834  1.00  0.00    -0.251 C  
HETATM   24  O   UNL     1     -10.548  11.168  66.881  1.00  0.00    -0.234 OA 
BRANCH  23  25
HETATM   25  C   UNL     1     -10.175  11.428  64.576  1.00  0.00    -0.299 C  
HETATM   26  O   UNL     1     -11.116  11.020  63.571  1.00  0.00    -0.193 OA 
HETATM   27  C   UNL     1      -9.934  12.905  64.626  1.00  0.00    -0.153 C  
HETATM   28  C   UNL     1      -9.745  10.694  63.314  1.00  0.00    -0.340 C  
ENDBRANCH  23  25
ENDBRANCH  22  23
BRANCH  22  29
HETATM   29  C   UNL     1     -10.472   8.301  66.847  1.00  0.00    -0.365 C  
HETATM   30  C   UNL     1      -9.952   6.861  67.066  1.00  0.00    -0.257 C  
HETATM   31  C   UNL     1     -10.734   6.195  68.206  1.00  0.00    -0.361 C  
HETATM   32  C   UNL     1     -10.039   5.952  65.837  1.00  0.00     0.200 C  
ENDBRANCH  22  29
ENDBRANCH  19  22
ENDBRANCH  10  18
ENDBRANCH   8  10
ENDBRANCH   5   6
BRANCH   5  33
HETATM   33  N   UNL     1      -7.605  11.930  68.243  1.00  0.00    -0.108 N  
HETATM   34  H   UNL     1      -8.405  11.313  68.382  1.00  0.00     0.000 HD 
HETATM   35  O   UNL     1      -6.950  14.106  67.913  1.00  0.00    -0.128 OA 
HETATM   36  C   UNL     1      -7.842  13.278  68.087  1.00  0.00    -0.145 C  
BRANCH  36  37
HETATM   37  C   UNL     1      -9.327  13.682  68.182  1.00  0.00    -0.212 C  
BRANCH  37  38
HETATM   38  N   UNL     1     -10.001  12.899  69.222  1.00  0.00    -0.152 N  
HETATM   39  O   UNL     1     -12.038  13.602  68.500  1.00  0.00    -0.364 OA 
HETATM   40  C   UNL     1     -11.371  12.922  69.293  1.00  0.00    -0.243 C  
HETATM   41  H   UNL     1      -9.458  12.344  69.884  1.00  0.00     0.000 HD 
BRANCH  40  42
HETATM   42  C   UNL     1     -12.076  12.049  70.337  1.00  0.00    -0.321 C  
BRANCH  42  43
HETATM   43  N   UNL     1     -12.320  10.635  69.963  1.00  0.00    -0.304 NA 
HETATM   44  C   UNL     1     -10.973   9.327  71.733  1.00  0.00    -0.313 C  
HETATM   45  C   UNL     1     -13.492  10.125  70.734  1.00  0.00    -0.008 C  
HETATM   46  O   UNL     1     -12.179   8.940  72.401  1.00  0.00    -0.358 OA 
HETATM   47  C   UNL     1     -13.202   9.924  72.234  1.00  0.00    -0.340 C  
HETATM   48  C   UNL     1     -11.188   9.723  70.256  1.00  0.00    -0.288 C  
ENDBRANCH  42  43
ENDBRANCH  40  42
ENDBRANCH  37  38
BRANCH  37  49
HETATM   49  C   UNL     1      -9.412  15.192  68.426  1.00  0.00    -0.208 C  
BRANCH  49  50
HETATM   50  C   UNL     1     -10.205  15.878  67.301  1.00  0.00    -0.278 C  
BRANCH  50  51
HETATM   51  C   UNL     1      -9.843  17.330  67.149  1.00  0.00    -0.269 A  
HETATM   52  C   UNL     1     -10.612  18.321  67.770  1.00  0.00    -0.415 A  
HETATM   53  C   UNL     1     -10.272  19.667  67.628  1.00  0.00    -0.567 A  
HETATM   54  C   UNL     1      -8.387  19.049  66.253  1.00  0.00    -0.293 A  
HETATM   55  C   UNL     1      -8.725  17.703  66.391  1.00  0.00    -0.263 A  
HETATM   56  C   UNL     1      -9.159  20.030  66.870  1.00  0.00    -0.467 A  
ENDBRANCH  50  51
ENDBRANCH  49  50
ENDBRANCH  37  49
ENDBRANCH  36  37
ENDBRANCH   5  33
ENDBRANCH   3   5
TORSDOF 18
ENDMDL
MODEL       31
REMARK 921   NORMALIZED FREE ENERGY PREDICTED BY IDOCK:   -4.84 KCAL/MOL
REMARK 922        TOTAL FREE ENERGY PREDICTED BY IDOCK:  -13.56 KCAL/MOL
REMARK 923 INTER-LIGAND FREE ENERGY PREDICTED BY IDOCK:  -13.64 KCAL/MOL
REMARK 924 INTRA-LIGAND FREE ENERGY PREDICTED BY IDOCK:    0.09 KCAL/MOL
REMARK 927      BINDING AFFINITY PREDICTED BY RF-SCORE:    0.00 PKD
ROOT
HETATM    1  C   UNL     1     -11.907  15.359  72.358  1.00  0.00    -0.558 C  
HETATM    2  C   UNL     1     -13.025  14.503  71.755  1.00  0.00    -0.413 C  
HETATM    3  C   UNL     1     -12.835  14.163  70.261  1.00  0.00    -0.183 C  
HETATM    4  C   UNL     1     -14.368  15.206  71.981  1.00  0.00    -0.682 C  
ENDROOT
BRANCH   3   5
HETATM    5  C   UNL     1     -11.560  13.365  69.914  1.00  0.00    -0.200 C  
BRANCH   5   6
HETATM    6  C   UNL     1     -11.714  11.842  69.680  1.00  0.00    -0.343 C  
HETATM    7  H   UNL     1      -9.686  11.575  69.928  1.00  0.00     0.000 HD 
HETATM    8  N   UNL     1     -10.582  11.091  69.875  1.00  0.00    -0.018 N  
HETATM    9  O   UNL     1     -12.811  11.339  69.448  1.00  0.00    -0.083 OA 
BRANCH   8  10
HETATM   10  C   UNL     1     -10.592   9.632  70.012  1.00  0.00    -0.260 C  
BRANCH  10  11
HETATM   11  C   UNL     1     -11.890   9.033  70.600  1.00  0.00    -0.193 C  
BRANCH  11  12
HETATM   12  C   UNL     1     -11.606   8.020  71.684  1.00  0.00    -0.317 A  
HETATM   13  C   UNL     1     -10.545   8.216  72.578  1.00  0.00    -0.411 A  
HETATM   14  C   UNL     1     -11.870   5.766  72.518  1.00  0.00    -0.222 A  
HETATM   15  C   UNL     1     -12.298   6.806  71.699  1.00  0.00    -0.409 A  
HETATM   16  C   UNL     1     -10.767   5.943  73.351  1.00  0.00    -0.293 A  
HETATM   17  C   UNL     1     -10.119   7.176  73.399  1.00  0.00    -0.345 A  
ENDBRANCH  11  12
ENDBRANCH  10  11
BRANCH  10  18
HETATM   18  C   UNL     1     -10.260   9.022  68.622  1.00  0.00    -0.205 C  
HETATM   19  N   UNL     1      -9.050   8.368  68.565  1.00  0.00    -0.136 N  
HETATM   20  O   UNL     1     -10.992   9.138  67.641  1.00  0.00    -0.173 OA 
HETATM   21  H   UNL     1      -8.512   8.283  69.428  1.00  0.00     0.000 HD 
BRANCH  19  22
HETATM   22  C   UNL     1      -8.487   7.787  67.347  1.00  0.00    -0.119 C  
BRANCH  22  23
HETATM   23  C   UNL     1      -7.934   8.975  66.547  1.00  0.00    -0.103 C  
HETATM   24  O   UNL     1      -8.408   9.312  65.464  1.00  0.00    -0.122 OA 
BRANCH  23  25
HETATM   25  C   UNL     1      -6.792   9.752  67.113  1.00  0.00    -0.083 C  
HETATM   26  O   UNL     1      -5.532   9.564  66.450  1.00  0.00    -0.043 OA 
HETATM   27  C   UNL     1      -7.009  11.137  67.637  1.00  0.00    -0.084 C  
HETATM   28  C   UNL     1      -5.664   8.940  67.733  1.00  0.00    -0.039 C  
ENDBRANCH  23  25
ENDBRANCH  22  23
BRANCH  22  29
HETATM   29  C   UNL     1      -9.502   6.962  66.535  1.00  0.00    -0.199 C  
HETATM   30  C   UNL     1      -9.520   5.432  66.762  1.00  0.00    -0.144 C  
HETATM   31  C   UNL     1     -10.636   4.796  65.922  1.00  0.00    -0.290 C  
HETATM   32  C   UNL     1      -8.208   4.718  66.427  1.00  0.00    -0.107 C  
ENDBRANCH  22  29
ENDBRANCH  19  22
ENDBRANCH  10  18
ENDBRANCH   8  10
ENDBRANCH   5   6
BRANCH   5  33
HETATM   33  N   UNL     1     -10.813  13.943  68.792  1.00  0.00    -0.258 N  
HETATM   34  H   UNL     1     -10.967  13.556  67.860  1.00  0.00     0.000 HD 
HETATM   35  O   UNL     1      -9.656  15.513  70.003  1.00  0.00    -0.228 OA 
HETATM   36  C   UNL     1      -9.915  14.978  68.927  1.00  0.00    -0.236 C  
BRANCH  36  37
HETATM   37  C   UNL     1      -9.274  15.446  67.605  1.00  0.00    -0.187 C  
BRANCH  37  38
HETATM   38  N   UNL     1     -10.315  15.800  66.634  1.00  0.00    -0.285 N  
HETATM   39  O   UNL     1      -9.567  14.219  65.183  1.00  0.00    -0.071 OA 
HETATM   40  C   UNL     1     -10.379  15.116  65.446  1.00  0.00    -0.388 C  
HETATM   41  H   UNL     1     -10.981  16.544  66.839  1.00  0.00     0.000 HD 
BRANCH  40  42
HETATM   42  C   UNL     1     -11.509  15.440  64.462  1.00  0.00    -0.311 C  
BRANCH  42  43
HETATM   43  N   UNL     1     -12.637  14.479  64.408  1.00  0.00    -0.663 NA 
HETATM   44  C   UNL     1     -11.511  12.307  63.591  1.00  0.00    -0.490 C  
HETATM   45  C   UNL     1     -12.712  13.744  65.705  1.00  0.00    -0.478 C  
HETATM   46  O   UNL     1     -11.611  11.734  64.899  1.00  0.00    -0.261 OA 
HETATM   47  C   UNL     1     -11.561  12.741  65.911  1.00  0.00    -0.382 C  
HETATM   48  C   UNL     1     -12.515  13.454  63.344  1.00  0.00    -0.151 C  
ENDBRANCH  42  43
ENDBRANCH  40  42
ENDBRANCH  37  38
BRANCH  37  49
HETATM   49  C   UNL     1      -8.321  16.607  67.903  1.00  0.00    -0.187 C  
BRANCH  49  50
HETATM   50  C   UNL     1      -8.841  17.910  67.275  1.00  0.00    -0.243 C  
BRANCH  50  51
HETATM   51  C   UNL     1      -7.868  19.047  67.426  1.00  0.00    -0.263 A  
HETATM   52  C   UNL     1      -7.537  19.847  66.326  1.00  0.00    -0.327 A  
HETATM   53  C   UNL     1      -6.636  20.902  66.470  1.00  0.00    -0.327 A  
HETATM   54  C   UNL     1      -6.393  20.381  68.814  1.00  0.00    -0.338 A  
HETATM   55  C   UNL     1      -7.292  19.323  68.673  1.00  0.00    -0.373 A  
HETATM   56  C   UNL     1      -6.065  21.169  67.714  1.00  0.00    -0.423 A  
ENDBRANCH  50  51
ENDBRANCH  49  50
ENDBRANCH  37  49
ENDBRANCH  36  37
ENDBRANCH   5  33
ENDBRANCH   3   5
TORSDOF 18
ENDMDL
MODEL       32
REMARK 921   NORMALIZED FREE ENERGY PREDICTED BY IDOCK:   -4.80 KCAL/MOL
REMARK 922        TOTAL FREE ENERGY PREDICTED BY IDOCK:  -13.49 KCAL/MOL
REMARK 923 INTER-LIGAND FREE ENERGY PREDICTED BY IDOCK:  -11.38 KCAL/MOL
REMARK 924 INTRA-LIGAND FREE ENERGY PREDICTED BY IDOCK:   -2.11 KCAL/MOL
REMARK 927      BINDING AFFINITY PREDICTED BY RF-SCORE:    0.00 PKD
ROOT
HETATM    1  C   UNL     1     -10.333  11.216  67.370  1.00  0.00    -0.231 C  
HETATM    2  C   UNL     1      -9.483  10.394  66.398  1.00  0.00    -0.209 C  
HETATM    3  C   UNL     1      -8.009  10.844  66.300  1.00  0.00    -0.161 C  
HETATM    4  C   UNL     1     -10.146  10.414  65.016  1.00  0.00    -0.379 C  
ENDROOT
BRANCH   3   5
HETATM    5  C   UNL     1      -7.201  10.776  67.613  1.00  0.00    -0.092 C  
BRANCH   5   6
HETATM    6  C   UNL     1      -6.715  12.114  68.222  1.00  0.00    -0.063 C  
HETATM    7  H   UNL     1      -8.106  13.153  67.113  1.00  0.00     0.000 HD 
HETATM    8  N   UNL     1      -7.453  13.223  67.893  1.00  0.00    -0.125 N  
HETATM    9  O   UNL     1      -5.796  12.148  69.039  1.00  0.00    -0.059 OA 
BRANCH   8  10
HETATM   10  C   UNL     1      -7.352  14.502  68.602  1.00  0.00    -0.128 C  
BRANCH  10  11
HETATM   11  C   UNL     1      -6.459  15.565  67.923  1.00  0.00    -0.171 C  
BRANCH  11  12
HETATM   12  C   UNL     1      -6.338  16.818  68.757  1.00  0.00    -0.158 A  
HETATM   13  C   UNL     1      -6.707  18.063  68.228  1.00  0.00    -0.207 A  
HETATM   14  C   UNL     1      -5.353  17.938  70.660  1.00  0.00    -0.266 A  
HETATM   15  C   UNL     1      -5.707  16.764  70.003  1.00  0.00    -0.221 A  
HETATM   16  C   UNL     1      -5.656  19.174  70.092  1.00  0.00    -0.258 A  
HETATM   17  C   UNL     1      -6.354  19.236  68.888  1.00  0.00    -0.290 A  
ENDBRANCH  11  12
ENDBRANCH  10  11
BRANCH  10  18
HETATM   18  C   UNL     1      -8.795  15.031  68.833  1.00  0.00    -0.201 C  
HETATM   19  N   UNL     1      -9.589  15.022  67.708  1.00  0.00    -0.202 N  
HETATM   20  O   UNL     1      -9.194  15.456  69.916  1.00  0.00    -0.201 OA 
HETATM   21  H   UNL     1      -9.200  14.623  66.853  1.00  0.00     0.000 HD 
BRANCH  19  22
HETATM   22  C   UNL     1     -10.953  15.547  67.661  1.00  0.00    -0.315 C  
BRANCH  22  23
HETATM   23  C   UNL     1     -11.816  14.391  67.134  1.00  0.00    -0.410 C  
HETATM   24  O   UNL     1     -12.535  13.721  67.873  1.00  0.00    -0.113 OA 
BRANCH  23  25
HETATM   25  C   UNL     1     -11.788  14.082  65.675  1.00  0.00    -0.377 C  
HETATM   26  O   UNL     1     -13.001  14.370  64.961  1.00  0.00    -0.643 OA 
HETATM   27  C   UNL     1     -10.540  14.309  64.880  1.00  0.00    -0.452 C  
HETATM   28  C   UNL     1     -12.728  12.983  65.198  1.00  0.00    -0.397 C  
ENDBRANCH  23  25
ENDBRANCH  22  23
BRANCH  22  29
HETATM   29  C   UNL     1     -11.092  16.815  66.799  1.00  0.00     0.250 C  
HETATM   30  C   UNL     1     -10.193  18.021  67.157  1.00  0.00    -0.366 C  
HETATM   31  C   UNL     1     -10.424  19.158  66.152  1.00  0.00    -0.558 C  
HETATM   32  C   UNL     1     -10.405  18.583  68.565  1.00  0.00    -0.315 C  
ENDBRANCH  22  29
ENDBRANCH  19  22
ENDBRANCH  10  18
ENDBRANCH   8  10
ENDBRANCH   5   6
BRANCH   5  33
HETATM   33  N   UNL     1      -7.875   9.998  68.657  1.00  0.00    -0.088 N  
HETATM   34  H   UNL     1      -8.381  10.504  69.385  1.00  0.00     0.000 HD 
HETATM   35  O   UNL     1      -7.283   7.918  67.885  1.00  0.00    -0.086 OA 
HETATM   36  C   UNL     1      -7.863   8.622  68.710  1.00  0.00    -0.106 C  
BRANCH  36  37
HETATM   37  C   UNL     1      -8.669   8.019  69.877  1.00  0.00    -0.139 C  
BRANCH  37  38
HETATM   38  N   UNL     1      -8.163   6.683  70.208  1.00  0.00    -0.124 N  
HETATM   39  O   UNL     1      -6.293   7.571  71.147  1.00  0.00    -0.036 OA 
HETATM   40  C   UNL     1      -6.957   6.567  70.853  1.00  0.00    -0.068 C  
HETATM   41  H   UNL     1      -8.699   5.851  69.961  1.00  0.00     0.000 HD 
BRANCH  40  42
HETATM   42  C   UNL     1      -6.462   5.174  71.259  1.00  0.00    -0.031 C  
BRANCH  42  43
HETATM   43  N   UNL     1      -6.909   4.670  72.580  1.00  0.00    -0.062 NA 
HETATM   44  C   UNL     1      -9.021   3.308  71.997  1.00  0.00    -0.099 C  
HETATM   45  C   UNL     1      -6.316   3.320  72.810  1.00  0.00    -0.010 C  
HETATM   46  O   UNL     1      -8.319   2.079  72.214  1.00  0.00    -0.053 OA 
HETATM   47  C   UNL     1      -6.928   2.220  71.921  1.00  0.00    -0.026 C  
HETATM   48  C   UNL     1      -8.378   4.518  72.710  1.00  0.00    -0.107 C  
ENDBRANCH  42  43
ENDBRANCH  40  42
ENDBRANCH  37  38
BRANCH  37  49
HETATM   49  C   UNL     1      -8.614   8.985  71.065  1.00  0.00    -0.264 C  
BRANCH  49  50
HETATM   50  C   UNL     1      -9.644   8.587  72.135  1.00  0.00    -0.382 C  
BRANCH  50  51
HETATM   51  C   UNL     1     -11.040   9.014  71.774  1.00  0.00    -0.444 A  
HETATM   52  C   UNL     1     -12.147   8.341  72.303  1.00  0.00    -0.439 A  
HETATM   53  C   UNL     1     -13.440   8.743  71.969  1.00  0.00    -0.461 A  
HETATM   54  C   UNL     1     -12.540  10.500  70.579  1.00  0.00    -0.423 A  
HETATM   55  C   UNL     1     -11.245  10.100  70.911  1.00  0.00    -0.383 A  
HETATM   56  C   UNL     1     -13.636   9.822  71.107  1.00  0.00    -0.233 A  
ENDBRANCH  50  51
ENDBRANCH  49  50
ENDBRANCH  37  49
ENDBRANCH  36  37
ENDBRANCH   5  33
ENDBRANCH   3   5
TORSDOF 18
ENDMDL
MODEL       33
REMARK 921   NORMALIZED FREE ENERGY PREDICTED BY IDOCK:   -4.71 KCAL/MOL
REMARK 922        TOTAL FREE ENERGY PREDICTED BY IDOCK:  -13.31 KCAL/MOL
REMARK 923 INTER-LIGAND FREE ENERGY PREDICTED BY IDOCK:   -9.71 KCAL/MOL
REMARK 924 INTRA-LIGAND FREE ENERGY PREDICTED BY IDOCK:   -3.60 KCAL/MOL
REMARK 927      BINDING AFFINITY PREDICTED BY RF-SCORE:    0.00 PKD
ROOT
HETATM    1  C   UNL     1     -10.110  10.875  67.222  1.00  0.00    -0.225 C  
HETATM    2  C   UNL     1      -9.291   9.723  66.636  1.00  0.00    -0.200 C  
HETATM    3  C   UNL     1      -7.763   9.947  66.661  1.00  0.00    -0.106 C  
HETATM    4  C   UNL     1      -9.771   9.445  65.207  1.00  0.00    -0.184 C  
ENDROOT
BRANCH   3   5
HETATM    5  C   UNL     1      -7.139  10.142  68.060  1.00  0.00    -0.084 C  
BRANCH   5   6
HETATM    6  C   UNL     1      -6.895  11.595  68.536  1.00  0.00    -0.073 C  
HETATM    7  H   UNL     1      -7.139  12.292  66.613  1.00  0.00     0.000 HD 
HETATM    8  N   UNL     1      -7.083  12.572  67.592  1.00  0.00    -0.125 N  
HETATM    9  O   UNL     1      -6.660  11.849  69.716  1.00  0.00    -0.109 OA 
BRANCH   8  10
HETATM   10  C   UNL     1      -7.210  13.996  67.915  1.00  0.00    -0.159 C  
BRANCH  10  11
HETATM   11  C   UNL     1      -6.017  14.880  67.485  1.00  0.00     0.031 C  
BRANCH  11  12
HETATM   12  C   UNL     1      -5.589  15.825  68.582  1.00  0.00    -0.102 A  
HETATM   13  C   UNL     1      -5.646  15.428  69.925  1.00  0.00    -0.123 A  
HETATM   14  C   UNL     1      -5.150  18.095  69.291  1.00  0.00    -0.186 A  
HETATM   15  C   UNL     1      -5.286  17.155  68.274  1.00  0.00    -0.127 A  
HETATM   16  C   UNL     1      -5.283  17.707  70.622  1.00  0.00    -0.273 A  
HETATM   17  C   UNL     1      -5.506  16.369  70.941  1.00  0.00    -0.002 A  
ENDBRANCH  11  12
ENDBRANCH  10  11
BRANCH  10  18
HETATM   18  C   UNL     1      -8.546  14.504  67.306  1.00  0.00    -0.215 C  
HETATM   19  N   UNL     1      -9.158  15.501  68.034  1.00  0.00    -0.181 N  
HETATM   20  O   UNL     1      -9.042  14.040  66.281  1.00  0.00    -0.160 OA 
HETATM   21  H   UNL     1      -8.671  15.859  68.855  1.00  0.00     0.000 HD 
BRANCH  19  22
HETATM   22  C   UNL     1     -10.461  16.077  67.703  1.00  0.00    -0.292 C  
BRANCH  22  23
HETATM   23  C   UNL     1     -10.152  17.342  66.889  1.00  0.00    -0.304 C  
HETATM   24  O   UNL     1     -10.812  17.662  65.902  1.00  0.00    -0.208 OA 
BRANCH  23  25
HETATM   25  C   UNL     1      -9.022  18.215  67.321  1.00  0.00    -0.248 C  
HETATM   26  O   UNL     1      -8.673  18.127  68.711  1.00  0.00    -0.294 OA 
HETATM   27  C   UNL     1      -7.857  18.446  66.410  1.00  0.00    -0.291 C  
HETATM   28  C   UNL     1      -9.361  19.319  68.312  1.00  0.00    -0.351 C  
ENDBRANCH  23  25
ENDBRANCH  22  23
BRANCH  22  29
HETATM   29  C   UNL     1     -11.328  16.379  68.939  1.00  0.00    -0.272 C  
HETATM   30  C   UNL     1     -11.056  15.554  70.218  1.00  0.00    -0.345 C  
HETATM   31  C   UNL     1     -11.966  16.042  71.354  1.00  0.00    -0.507 C  
HETATM   32  C   UNL     1     -11.259  14.044  70.064  1.00  0.00    -0.074 C  
ENDBRANCH  22  29
ENDBRANCH  19  22
ENDBRANCH  10  18
ENDBRANCH   8  10
ENDBRANCH   5   6
BRANCH   5  33
HETATM   33  N   UNL     1      -7.859   9.414  69.111  1.00  0.00    -0.078 N  
HETATM   34  H   UNL     1      -8.534   9.929  69.678  1.00  0.00     0.000 HD 
HETATM   35  O   UNL     1      -6.885   7.366  68.752  1.00  0.00    -0.067 OA 
HETATM   36  C   UNL     1      -7.674   8.075  69.375  1.00  0.00    -0.104 C  
BRANCH  36  37
HETATM   37  C   UNL     1      -8.565   7.516  70.501  1.00  0.00    -0.138 C  
BRANCH  37  38
HETATM   38  N   UNL     1      -8.020   6.247  70.996  1.00  0.00    -0.114 N  
HETATM   39  O   UNL     1     -10.100   5.334  71.085  1.00  0.00    -0.197 OA 
HETATM   40  C   UNL     1      -8.879   5.208  71.254  1.00  0.00    -0.135 C  
HETATM   41  H   UNL     1      -7.017   6.139  71.147  1.00  0.00     0.000 HD 
BRANCH  40  42
HETATM   42  C   UNL     1      -8.302   3.862  71.704  1.00  0.00    -0.078 C  
BRANCH  42  43
HETATM   43  N   UNL     1      -8.401   2.740  70.739  1.00  0.00    -0.052 NA 
HETATM   44  C   UNL     1      -6.242   2.980  69.347  1.00  0.00    -0.028 C  
HETATM   45  C   UNL     1      -7.697   1.551  71.302  1.00  0.00    -0.036 C  
HETATM   46  O   UNL     1      -5.667   1.840  69.997  1.00  0.00    -0.016 OA 
HETATM   47  C   UNL     1      -6.163   1.700  71.330  1.00  0.00    -0.018 C  
HETATM   48  C   UNL     1      -7.785   3.015  69.419  1.00  0.00    -0.046 C  
ENDBRANCH  42  43
ENDBRANCH  40  42
ENDBRANCH  37  38
BRANCH  37  49
HETATM   49  C   UNL     1      -8.693   8.576  71.600  1.00  0.00    -0.262 C  
BRANCH  49  50
HETATM   50  C   UNL     1      -9.914   8.288  72.489  1.00  0.00    -0.373 C  
BRANCH  50  51
HETATM   51  C   UNL     1     -11.186   8.849  71.915  1.00  0.00    -0.447 A  
HETATM   52  C   UNL     1     -12.426   8.305  72.271  1.00  0.00    -0.384 A  
HETATM   53  C   UNL     1     -13.603   8.830  71.739  1.00  0.00    -0.453 A  
HETATM   54  C   UNL     1     -12.322  10.454  70.495  1.00  0.00    -0.410 A  
HETATM   55  C   UNL     1     -11.142   9.930  71.024  1.00  0.00    -0.401 A  
HETATM   56  C   UNL     1     -13.551   9.904  70.852  1.00  0.00    -0.084 A  
ENDBRANCH  50  51
ENDBRANCH  49  50
ENDBRANCH  37  49
ENDBRANCH  36  37
ENDBRANCH   5  33
ENDBRANCH   3   5
TORSDOF 18
ENDMDL
MODEL       34
REMARK 921   NORMALIZED FREE ENERGY PREDICTED BY IDOCK:   -4.71 KCAL/MOL
REMARK 922        TOTAL FREE ENERGY PREDICTED BY IDOCK:  -13.29 KCAL/MOL
REMARK 923 INTER-LIGAND FREE ENERGY PREDICTED BY IDOCK:  -10.03 KCAL/MOL
REMARK 924 INTRA-LIGAND FREE ENERGY PREDICTED BY IDOCK:   -3.27 KCAL/MOL
REMARK 927      BINDING AFFINITY PREDICTED BY RF-SCORE:    0.00 PKD
ROOT
HETATM    1  C   UNL     1     -11.518  14.886  70.657  1.00  0.00    -0.313 C  
HETATM    2  C   UNL     1     -12.350  13.666  71.061  1.00  0.00    -0.436 C  
HETATM    3  C   UNL     1     -12.379  12.535  70.009  1.00  0.00    -0.154 C  
HETATM    4  C   UNL     1     -13.773  14.123  71.400  1.00  0.00    -0.345 C  
ENDROOT
BRANCH   3   5
HETATM    5  C   UNL     1     -11.009  11.920  69.653  1.00  0.00     0.054 C  
BRANCH   5   6
HETATM    6  C   UNL     1     -11.004  10.503  69.030  1.00  0.00    -0.243 C  
HETATM    7  H   UNL     1      -9.044  10.231  69.604  1.00  0.00     0.000 HD 
HETATM    8  N   UNL     1      -9.876   9.755  69.257  1.00  0.00    -0.188 N  
HETATM    9  O   UNL     1     -11.999  10.048  68.468  1.00  0.00     0.097 OA 
BRANCH   8  10
HETATM   10  C   UNL     1      -9.805   8.308  69.030  1.00  0.00    -0.176 C  
BRANCH  10  11
HETATM   11  C   UNL     1      -8.656   7.840  68.108  1.00  0.00    -0.123 C  
BRANCH  11  12
HETATM   12  C   UNL     1      -9.098   6.750  67.162  1.00  0.00    -0.130 A  
HETATM   13  C   UNL     1     -10.459   6.460  66.998  1.00  0.00    -0.349 A  
HETATM   14  C   UNL     1      -8.541   4.756  65.912  1.00  0.00    -0.119 A  
HETATM   15  C   UNL     1      -8.145   5.917  66.567  1.00  0.00    -0.102 A  
HETATM   16  C   UNL     1      -9.894   4.436  65.817  1.00  0.00    -0.232 A  
HETATM   17  C   UNL     1     -10.854   5.300  66.339  1.00  0.00    -0.198 A  
ENDBRANCH  11  12
ENDBRANCH  10  11
BRANCH  10  18
HETATM   18  C   UNL     1      -9.744   7.612  70.418  1.00  0.00    -0.179 C  
HETATM   19  N   UNL     1      -8.629   6.828  70.610  1.00  0.00    -0.141 N  
HETATM   20  O   UNL     1     -10.628   7.717  71.267  1.00  0.00    -0.217 OA 
HETATM   21  H   UNL     1      -7.922   6.815  69.874  1.00  0.00     0.000 HD 
BRANCH  19  22
HETATM   22  C   UNL     1      -8.393   6.012  71.800  1.00  0.00    -0.119 C  
BRANCH  22  23
HETATM   23  C   UNL     1      -7.202   6.668  72.514  1.00  0.00    -0.084 C  
HETATM   24  O   UNL     1      -6.042   6.312  72.314  1.00  0.00    -0.037 OA 
BRANCH  23  25
HETATM   25  C   UNL     1      -7.464   7.782  73.471  1.00  0.00    -0.125 C  
HETATM   26  O   UNL     1      -7.059   9.086  73.023  1.00  0.00    -0.324 OA 
HETATM   27  C   UNL     1      -8.704   7.780  74.309  1.00  0.00    -0.244 C  
HETATM   28  C   UNL     1      -6.241   8.490  74.037  1.00  0.00    -0.126 C  
ENDBRANCH  23  25
ENDBRANCH  22  23
BRANCH  22  29
HETATM   29  C   UNL     1      -8.135   4.527  71.485  1.00  0.00    -0.100 C  
HETATM   30  C   UNL     1      -9.370   3.622  71.264  1.00  0.00    -0.214 C  
HETATM   31  C   UNL     1      -8.914   2.203  70.897  1.00  0.00    -0.141 C  
HETATM   32  C   UNL     1     -10.315   3.520  72.464  1.00  0.00    -0.196 C  
ENDBRANCH  22  29
ENDBRANCH  19  22
ENDBRANCH  10  18
ENDBRANCH   8  10
ENDBRANCH   5   6
BRANCH   5  33
HETATM   33  N   UNL     1     -10.185  12.805  68.822  1.00  0.00    -0.410 N  
HETATM   34  H   UNL     1      -9.321  13.174  69.220  1.00  0.00     0.000 HD 
HETATM   35  O   UNL     1     -11.532  12.777  66.963  1.00  0.00    -0.302 OA 
HETATM   36  C   UNL     1     -10.514  13.165  67.534  1.00  0.00    -0.228 C  
BRANCH  36  37
HETATM   37  C   UNL     1      -9.482  14.075  66.840  1.00  0.00    -0.265 C  
BRANCH  37  38
HETATM   38  N   UNL     1      -9.840  15.484  67.029  1.00  0.00    -0.230 N  
HETATM   39  O   UNL     1     -10.274  15.722  64.811  1.00  0.00    -0.403 OA 
HETATM   40  C   UNL     1     -10.231  16.225  65.942  1.00  0.00    -0.364 C  
HETATM   41  H   UNL     1      -9.798  15.908  67.956  1.00  0.00     0.000 HD 
BRANCH  40  42
HETATM   42  C   UNL     1     -10.671  17.678  66.153  1.00  0.00    -0.105 C  
BRANCH  42  43
HETATM   43  N   UNL     1      -9.684  18.728  65.802  1.00  0.00    -0.395 NA 
HETATM   44  C   UNL     1      -9.911  20.408  67.747  1.00  0.00    -0.353 C  
HETATM   45  C   UNL     1      -8.383  18.410  66.462  1.00  0.00    -0.272 C  
HETATM   46  O   UNL     1      -8.660  19.980  68.296  1.00  0.00    -0.249 OA 
HETATM   47  C   UNL     1      -8.403  18.608  67.989  1.00  0.00    -0.277 C  
HETATM   48  C   UNL     1     -10.063  20.092  66.243  1.00  0.00    -0.486 C  
ENDBRANCH  42  43
ENDBRANCH  40  42
ENDBRANCH  37  38
BRANCH  37  49
HETATM   49  C   UNL     1      -8.088  13.739  67.379  1.00  0.00    -0.188 C  
BRANCH  49  50
HETATM   50  C   UNL     1      -7.570  12.430  66.761  1.00  0.00     0.143 C  
BRANCH  50  51
HETATM   51  C   UNL     1      -6.805  11.593  67.749  1.00  0.00    -0.079 A  
HETATM   52  C   UNL     1      -6.948  11.811  69.125  1.00  0.00    -0.091 A  
HETATM   53  C   UNL     1      -6.239  11.031  70.038  1.00  0.00    -0.139 A  
HETATM   54  C   UNL     1      -5.243   9.798  68.218  1.00  0.00    -0.036 A  
HETATM   55  C   UNL     1      -5.949  10.577  67.302  1.00  0.00    -0.053 A  
HETATM   56  C   UNL     1      -5.387  10.025  69.584  1.00  0.00    -0.038 A  
ENDBRANCH  50  51
ENDBRANCH  49  50
ENDBRANCH  37  49
ENDBRANCH  36  37
ENDBRANCH   5  33
ENDBRANCH   3   5
TORSDOF 18
ENDMDL
MODEL       35
REMARK 921   NORMALIZED FREE ENERGY PREDICTED BY IDOCK:   -4.69 KCAL/MOL
REMARK 922        TOTAL FREE ENERGY PREDICTED BY IDOCK:  -13.26 KCAL/MOL
REMARK 923 INTER-LIGAND FREE ENERGY PREDICTED BY IDOCK:  -10.05 KCAL/MOL
REMARK 924 INTRA-LIGAND FREE ENERGY PREDICTED BY IDOCK:   -3.20 KCAL/MOL
REMARK 927      BINDING AFFINITY PREDICTED BY RF-SCORE:    0.00 PKD
ROOT
HETATM    1  C   UNL     1      -7.841   8.602  63.464  1.00  0.00    -0.148 C  
HETATM    2  C   UNL     1      -6.602   9.399  63.880  1.00  0.00    -0.095 C  
HETATM    3  C   UNL     1      -6.905  10.658  64.722  1.00  0.00     0.153 C  
HETATM    4  C   UNL     1      -5.802   9.770  62.626  1.00  0.00    -0.093 C  
ENDROOT
BRANCH   3   5
HETATM    5  C   UNL     1      -7.625  10.407  66.064  1.00  0.00    -0.137 C  
BRANCH   5   6
HETATM    6  C   UNL     1      -9.090  10.895  66.191  1.00  0.00    -0.183 C  
HETATM    7  H   UNL     1      -8.654  11.816  67.981  1.00  0.00     0.000 HD 
HETATM    8  N   UNL     1      -9.348  11.743  67.238  1.00  0.00    -0.169 N  
HETATM    9  O   UNL     1      -9.930  10.623  65.335  1.00  0.00    -0.246 OA 
BRANCH   8  10
HETATM   10  C   UNL     1     -10.567  12.549  67.345  1.00  0.00    -0.223 C  
BRANCH  10  11
HETATM   11  C   UNL     1     -11.817  11.793  67.849  1.00  0.00    -0.289 C  
BRANCH  11  12
HETATM   12  C   UNL     1     -11.615  11.226  69.234  1.00  0.00    -0.390 A  
HETATM   13  C   UNL     1     -10.636  10.249  69.466  1.00  0.00    -0.270 A  
HETATM   14  C   UNL     1     -12.495  10.846  71.454  1.00  0.00    -0.460 A  
HETATM   15  C   UNL     1     -12.508  11.556  70.257  1.00  0.00    -0.284 A  
HETATM   16  C   UNL     1     -11.567   9.824  71.649  1.00  0.00    -0.345 A  
HETATM   17  C   UNL     1     -10.622   9.542  70.664  1.00  0.00    -0.374 A  
ENDBRANCH  11  12
ENDBRANCH  10  11
BRANCH  10  18
HETATM   18  C   UNL     1     -10.245  13.780  68.237  1.00  0.00    -0.245 C  
HETATM   19  N   UNL     1     -11.209  14.763  68.214  1.00  0.00    -0.273 N  
HETATM   20  O   UNL     1      -9.206  13.893  68.884  1.00  0.00    -0.072 OA 
HETATM   21  H   UNL     1     -12.060  14.585  67.681  1.00  0.00     0.000 HD 
BRANCH  19  22
HETATM   22  C   UNL     1     -11.090  16.046  68.907  1.00  0.00    -0.331 C  
BRANCH  22  23
HETATM   23  C   UNL     1      -9.874  16.739  68.275  1.00  0.00    -0.257 C  
HETATM   24  O   UNL     1      -8.828  16.919  68.896  1.00  0.00    -0.262 OA 
BRANCH  23  25
HETATM   25  C   UNL     1      -9.964  17.195  66.858  1.00  0.00    -0.288 C  
HETATM   26  O   UNL     1     -10.579  16.267  65.950  1.00  0.00    -0.327 OA 
HETATM   27  C   UNL     1     -10.240  18.632  66.544  1.00  0.00    -0.449 C  
HETATM   28  C   UNL     1      -9.158  16.402  65.839  1.00  0.00    -0.182 C  
ENDBRANCH  23  25
ENDBRANCH  22  23
BRANCH  22  29
HETATM   29  C   UNL     1     -10.951  15.907  70.434  1.00  0.00    -0.361 C  
HETATM   30  C   UNL     1     -12.007  15.048  71.169  1.00  0.00    -0.375 C  
HETATM   31  C   UNL     1     -11.665  14.973  72.664  1.00  0.00    -0.375 C  
HETATM   32  C   UNL     1     -13.447  15.550  71.038  1.00  0.00    -0.436 C  
ENDBRANCH  22  29
ENDBRANCH  19  22
ENDBRANCH  10  18
ENDBRANCH   8  10
ENDBRANCH   5   6
BRANCH   5  33
HETATM   33  N   UNL     1      -7.554   9.007  66.496  1.00  0.00    -0.088 N  
HETATM   34  H   UNL     1      -7.814   8.282  65.826  1.00  0.00     0.000 HD 
HETATM   35  O   UNL     1      -6.826   9.409  68.635  1.00  0.00    -0.060 OA 
HETATM   36  C   UNL     1      -7.157   8.617  67.755  1.00  0.00    -0.079 C  
BRANCH  36  37
HETATM   37  C   UNL     1      -7.125   7.091  67.973  1.00  0.00    -0.086 C  
BRANCH  37  38
HETATM   38  N   UNL     1      -8.015   6.717  69.077  1.00  0.00    -0.114 N  
HETATM   39  O   UNL     1      -6.367   5.494  70.054  1.00  0.00    -0.031 OA 
HETATM   40  C   UNL     1      -7.532   5.913  70.079  1.00  0.00    -0.079 C  
HETATM   41  H   UNL     1      -8.978   7.050  69.100  1.00  0.00     0.000 HD 
BRANCH  40  42
HETATM   42  C   UNL     1      -8.442   5.580  71.267  1.00  0.00    -0.127 C  
BRANCH  42  43
HETATM   43  N   UNL     1      -9.752   4.964  70.948  1.00  0.00    -0.181 NA 
HETATM   44  C   UNL     1     -10.389   3.783  73.152  1.00  0.00    -0.165 C  
HETATM   45  C   UNL     1     -10.841   5.905  71.344  1.00  0.00    -0.271 C  
HETATM   46  O   UNL     1     -11.378   4.780  73.429  1.00  0.00    -0.331 OA 
HETATM   47  C   UNL     1     -11.012   6.043  72.869  1.00  0.00    -0.269 C  
HETATM   48  C   UNL     1     -10.014   3.688  71.657  1.00  0.00    -0.126 C  
ENDBRANCH  42  43
ENDBRANCH  40  42
ENDBRANCH  37  38
BRANCH  37  49
HETATM   49  C   UNL     1      -7.489   6.398  66.656  1.00  0.00    -0.083 C  
BRANCH  49  50
HETATM   50  C   UNL     1      -6.708   5.083  66.502  1.00  0.00    -0.061 C  
BRANCH  50  51
HETATM   51  C   UNL     1      -6.230   4.862  65.093  1.00  0.00    -0.034 A  
HETATM   52  C   UNL     1      -6.328   3.598  64.501  1.00  0.00    -0.024 A  
HETATM   53  C   UNL     1      -5.886   3.398  63.193  1.00  0.00    -0.013 A  
HETATM   54  C   UNL     1      -5.250   5.722  63.048  1.00  0.00    -0.013 A  
HETATM   55  C   UNL     1      -5.690   5.925  64.356  1.00  0.00    -0.021 A  
HETATM   56  C   UNL     1      -5.348   4.459  62.467  1.00  0.00    -0.009 A  
ENDBRANCH  50  51
ENDBRANCH  49  50
ENDBRANCH  37  49
ENDBRANCH  36  37
ENDBRANCH   5  33
ENDBRANCH   3   5
TORSDOF 18
ENDMDL
MODEL       36
REMARK 921   NORMALIZED FREE ENERGY PREDICTED BY IDOCK:   -4.58 KCAL/MOL
REMARK 922        TOTAL FREE ENERGY PREDICTED BY IDOCK:  -13.03 KCAL/MOL
REMARK 923 INTER-LIGAND FREE ENERGY PREDICTED BY IDOCK:  -13.39 KCAL/MOL
REMARK 924 INTRA-LIGAND FREE ENERGY PREDICTED BY IDOCK:    0.36 KCAL/MOL
REMARK 927      BINDING AFFINITY PREDICTED BY RF-SCORE:    0.00 PKD
ROOT
HETATM    1  C   UNL     1      -5.836  12.274  68.406  1.00  0.00    -0.054 C  
HETATM    2  C   UNL     1      -6.742  12.048  67.194  1.00  0.00    -0.136 C  
HETATM    3  C   UNL     1      -8.196  11.661  67.545  1.00  0.00    -0.148 C  
HETATM    4  C   UNL     1      -6.107  10.988  66.287  1.00  0.00    -0.136 C  
ENDROOT
BRANCH   3   5
HETATM    5  C   UNL     1      -8.980  12.697  68.377  1.00  0.00    -0.125 C  
BRANCH   5   6
HETATM    6  C   UNL     1      -9.570  13.916  67.626  1.00  0.00    -0.215 C  
HETATM    7  H   UNL     1      -8.070  13.807  66.219  1.00  0.00     0.000 HD 
HETATM    8  N   UNL     1      -8.976  14.225  66.429  1.00  0.00    -0.136 N  
HETATM    9  O   UNL     1     -10.579  14.490  68.033  1.00  0.00    -0.233 OA 
BRANCH   8  10
HETATM   10  C   UNL     1      -9.574  15.122  65.436  1.00  0.00    -0.092 C  
BRANCH  10  11
HETATM   11  C   UNL     1     -11.111  15.031  65.303  1.00  0.00    -0.391 C  
BRANCH  11  12
HETATM   12  C   UNL     1     -11.553  13.695  64.754  1.00  0.00    -0.374 A  
HETATM   13  C   UNL     1     -10.639  12.861  64.094  1.00  0.00    -0.442 A  
HETATM   14  C   UNL     1     -13.359  12.261  64.029  1.00  0.00     0.283 A  
HETATM   15  C   UNL     1     -12.909  13.356  64.760  1.00  0.00    -0.222 A  
HETATM   16  C   UNL     1     -12.454  11.480  63.313  1.00  0.00    -0.060 A  
HETATM   17  C   UNL     1     -11.092  11.766  63.365  1.00  0.00    -0.448 A  
ENDBRANCH  11  12
ENDBRANCH  10  11
BRANCH  10  18
HETATM   18  C   UNL     1      -9.114  16.569  65.767  1.00  0.00    -0.005 C  
HETATM   19  N   UNL     1      -7.912  16.643  66.435  1.00  0.00    -0.305 N  
HETATM   20  O   UNL     1      -9.775  17.569  65.490  1.00  0.00    -0.449 OA 
HETATM   21  H   UNL     1      -7.404  15.774  66.600  1.00  0.00     0.000 HD 
BRANCH  19  22
HETATM   22  C   UNL     1      -7.319  17.887  66.923  1.00  0.00    -0.201 C  
BRANCH  22  23
HETATM   23  C   UNL     1      -8.044  18.194  68.242  1.00  0.00    -0.297 C  
HETATM   24  O   UNL     1      -7.650  17.758  69.322  1.00  0.00    -0.114 OA 
BRANCH  23  25
HETATM   25  C   UNL     1      -9.257  19.062  68.208  1.00  0.00    -0.334 C  
HETATM   26  O   UNL     1     -10.067  19.034  69.394  1.00  0.00    -0.237 OA 
HETATM   27  C   UNL     1      -9.213  20.394  67.527  1.00  0.00    -0.475 C  
HETATM   28  C   UNL     1     -10.600  18.348  68.256  1.00  0.00    -0.209 C  
ENDBRANCH  23  25
ENDBRANCH  22  23
BRANCH  22  29
HETATM   29  C   UNL     1      -7.422  19.050  65.919  1.00  0.00    -0.253 C  
HETATM   30  C   UNL     1      -6.121  19.816  65.582  1.00  0.00    -0.217 C  
HETATM   31  C   UNL     1      -6.410  20.886  64.521  1.00  0.00    -0.299 C  
HETATM   32  C   UNL     1      -5.451  20.501  66.775  1.00  0.00    -0.201 C  
ENDBRANCH  22  29
ENDBRANCH  19  22
ENDBRANCH  10  18
ENDBRANCH   8  10
ENDBRANCH   5   6
BRANCH   5  33
HETATM   33  N   UNL     1     -10.035  12.090  69.196  1.00  0.00    -0.397 N  
HETATM   34  H   UNL     1      -9.913  12.079  70.209  1.00  0.00     0.000 HD 
HETATM   35  O   UNL     1     -11.424  11.495  67.467  1.00  0.00    -0.379 OA 
HETATM   36  C   UNL     1     -11.181  11.535  68.672  1.00  0.00    -0.248 C  
BRANCH  36  37
HETATM   37  C   UNL     1     -12.166  10.988  69.724  1.00  0.00    -0.318 C  
BRANCH  37  38
HETATM   38  N   UNL     1     -11.766   9.641  70.143  1.00  0.00    -0.435 N  
HETATM   39  O   UNL     1     -13.689   9.384  71.326  1.00  0.00    -0.346 OA 
HETATM   40  C   UNL     1     -12.608   8.914  70.945  1.00  0.00     0.003 C  
HETATM   41  H   UNL     1     -10.873   9.250  69.842  1.00  0.00     0.000 HD 
BRANCH  40  42
HETATM   42  C   UNL     1     -12.220   7.480  71.324  1.00  0.00    -0.329 C  
BRANCH  42  43
HETATM   43  N   UNL     1     -10.853   7.283  71.865  1.00  0.00    -0.223 NA 
HETATM   44  C   UNL     1     -11.081   5.114  73.242  1.00  0.00    -0.327 C  
HETATM   45  C   UNL     1     -10.085   6.404  70.935  1.00  0.00    -0.187 C  
HETATM   46  O   UNL     1     -10.360   4.378  72.248  1.00  0.00    -0.186 OA 
HETATM   47  C   UNL     1     -10.555   4.936  70.947  1.00  0.00    -0.007 C  
HETATM   48  C   UNL     1     -10.812   6.634  73.197  1.00  0.00    -0.269 C  
ENDBRANCH  42  43
ENDBRANCH  40  42
ENDBRANCH  37  38
BRANCH  37  49
HETATM   49  C   UNL     1     -12.237  11.976  70.893  1.00  0.00    -0.325 C  
BRANCH  49  50
HETATM   50  C   UNL     1     -12.779  13.335  70.420  1.00  0.00    -0.103 C  
BRANCH  50  51
HETATM   51  C   UNL     1     -12.563  14.423  71.436  1.00  0.00    -0.426 A  
HETATM   52  C   UNL     1     -11.970  15.635  71.063  1.00  0.00    -0.445 A  
HETATM   53  C   UNL     1     -11.773  16.642  72.007  1.00  0.00    -0.126 A  
HETATM   54  C   UNL     1     -12.768  15.248  73.708  1.00  0.00    -0.697 A  
HETATM   55  C   UNL     1     -12.964  14.237  72.766  1.00  0.00    -0.545 A  
HETATM   56  C   UNL     1     -12.173  16.449  73.328  1.00  0.00    -0.558 A  
ENDBRANCH  50  51
ENDBRANCH  49  50
ENDBRANCH  37  49
ENDBRANCH  36  37
ENDBRANCH   5  33
ENDBRANCH   3   5
TORSDOF 18
ENDMDL
MODEL       37
REMARK 921   NORMALIZED FREE ENERGY PREDICTED BY IDOCK:   -4.46 KCAL/MOL
REMARK 922        TOTAL FREE ENERGY PREDICTED BY IDOCK:  -12.79 KCAL/MOL
REMARK 923 INTER-LIGAND FREE ENERGY PREDICTED BY IDOCK:  -11.37 KCAL/MOL
REMARK 924 INTRA-LIGAND FREE ENERGY PREDICTED BY IDOCK:   -1.41 KCAL/MOL
REMARK 927      BINDING AFFINITY PREDICTED BY RF-SCORE:    0.00 PKD
ROOT
HETATM    1  C   UNL     1      -8.302   9.617  62.872  1.00  0.00    -0.165 C  
HETATM    2  C   UNL     1      -7.114   9.082  63.675  1.00  0.00    -0.092 C  
HETATM    3  C   UNL     1      -6.773   9.904  64.937  1.00  0.00    -0.123 C  
HETATM    4  C   UNL     1      -5.894   8.980  62.753  1.00  0.00    -0.085 C  
ENDROOT
BRANCH   3   5
HETATM    5  C   UNL     1      -7.893  10.000  65.995  1.00  0.00    -0.119 C  
BRANCH   5   6
HETATM    6  C   UNL     1      -8.959  11.108  65.807  1.00  0.00    -0.196 C  
HETATM    7  H   UNL     1      -8.066  12.250  67.272  1.00  0.00     0.000 HD 
HETATM    8  N   UNL     1      -8.748  12.265  66.514  1.00  0.00    -0.139 N  
HETATM    9  O   UNL     1      -9.867  10.989  64.986  1.00  0.00    -0.233 OA 
BRANCH   8  10
HETATM   10  C   UNL     1      -9.450  13.522  66.237  1.00  0.00    -0.184 C  
BRANCH  10  11
HETATM   11  C   UNL     1     -10.992  13.425  66.213  1.00  0.00    -0.296 C  
BRANCH  11  12
HETATM   12  C   UNL     1     -11.573  13.300  67.601  1.00  0.00    -0.386 A  
HETATM   13  C   UNL     1     -11.916  14.445  68.334  1.00  0.00    -0.328 A  
HETATM   14  C   UNL     1     -11.903  11.954  69.583  1.00  0.00    -0.406 A  
HETATM   15  C   UNL     1     -11.622  12.049  68.224  1.00  0.00    -0.394 A  
HETATM   16  C   UNL     1     -12.169  13.105  70.322  1.00  0.00    -0.376 A  
HETATM   17  C   UNL     1     -12.200  14.348  69.693  1.00  0.00    -0.353 A  
ENDBRANCH  11  12
ENDBRANCH  10  11
BRANCH  10  18
HETATM   18  C   UNL     1      -8.960  14.576  67.269  1.00  0.00    -0.210 C  
HETATM   19  N   UNL     1      -9.026  15.878  66.823  1.00  0.00    -0.228 N  
HETATM   20  O   UNL     1      -8.516  14.282  68.377  1.00  0.00    -0.156 OA 
HETATM   21  H   UNL     1      -9.437  16.047  65.906  1.00  0.00     0.000 HD 
BRANCH  19  22
HETATM   22  C   UNL     1      -8.546  17.031  67.583  1.00  0.00    -0.210 C  
BRANCH  22  23
HETATM   23  C   UNL     1      -8.624  18.219  66.613  1.00  0.00    -0.273 C  
HETATM   24  O   UNL     1      -7.795  18.391  65.721  1.00  0.00    -0.510 OA 
BRANCH  23  25
HETATM   25  C   UNL     1      -9.751  19.186  66.752  1.00  0.00    -0.338 C  
HETATM   26  O   UNL     1     -11.033  18.601  67.029  1.00  0.00    -0.320 OA 
HETATM   27  C   UNL     1      -9.529  20.514  67.407  1.00  0.00    -0.551 C  
HETATM   28  C   UNL     1     -10.848  19.103  65.700  1.00  0.00    -0.137 C  
ENDBRANCH  23  25
ENDBRANCH  22  23
BRANCH  22  29
HETATM   29  C   UNL     1      -7.129  16.841  68.155  1.00  0.00    -0.161 C  
HETATM   30  C   UNL     1      -6.729  17.711  69.369  1.00  0.00    -0.176 C  
HETATM   31  C   UNL     1      -5.317  17.333  69.836  1.00  0.00    -0.205 C  
HETATM   32  C   UNL     1      -6.756  19.220  69.114  1.00  0.00    -0.362 C  
ENDBRANCH  22  29
ENDBRANCH  19  22
ENDBRANCH  10  18
ENDBRANCH   8  10
ENDBRANCH   5   6
BRANCH   5  33
HETATM   33  N   UNL     1      -8.576   8.722  66.220  1.00  0.00    -0.125 N  
HETATM   34  H   UNL     1      -9.261   8.413  65.530  1.00  0.00     0.000 HD 
HETATM   35  O   UNL     1      -7.539   8.195  68.200  1.00  0.00    -0.101 OA 
HETATM   36  C   UNL     1      -8.342   7.915  67.312  1.00  0.00    -0.122 C  
BRANCH  36  37
HETATM   37  C   UNL     1      -9.148   6.602  67.322  1.00  0.00    -0.118 C  
BRANCH  37  38
HETATM   38  N   UNL     1     -10.370   6.762  68.116  1.00  0.00    -0.174 N  
HETATM   39  O   UNL     1      -9.581   5.342  69.706  1.00  0.00    -0.148 OA 
HETATM   40  C   UNL     1     -10.486   6.087  69.305  1.00  0.00    -0.264 C  
HETATM   41  H   UNL     1     -11.123   7.366  67.789  1.00  0.00     0.000 HD 
BRANCH  40  42
HETATM   42  C   UNL     1     -11.733   6.310  70.168  1.00  0.00    -0.203 C  
BRANCH  42  43
HETATM   43  N   UNL     1     -11.503   6.689  71.583  1.00  0.00    -0.273 NA 
HETATM   44  C   UNL     1     -11.216   9.250  71.458  1.00  0.00    -0.386 C  
HETATM   45  C   UNL     1     -12.811   7.043  72.209  1.00  0.00     0.076 C  
HETATM   46  O   UNL     1     -12.512   9.448  72.034  1.00  0.00    -0.369 OA 
HETATM   47  C   UNL     1     -13.396   8.376  71.702  1.00  0.00    -0.338 C  
HETATM   48  C   UNL     1     -10.613   7.861  71.763  1.00  0.00    -0.226 C  
ENDBRANCH  42  43
ENDBRANCH  40  42
ENDBRANCH  37  38
BRANCH  37  49
HETATM   49  C   UNL     1      -9.430   6.186  65.874  1.00  0.00     0.025 C  
BRANCH  49  50
HETATM   50  C   UNL     1      -8.379   5.177  65.386  1.00  0.00    -0.132 C  
BRANCH  50  51
HETATM   51  C   UNL     1      -9.000   3.972  64.734  1.00  0.00    -0.135 A  
HETATM   52  C   UNL     1      -8.653   2.682  65.151  1.00  0.00    -0.103 A  
HETATM   53  C   UNL     1      -9.233   1.567  64.546  1.00  0.00    -0.125 A  
HETATM   54  C   UNL     1     -10.522   3.015  63.106  1.00  0.00    -0.192 A  
HETATM   55  C   UNL     1      -9.942   4.131  63.708  1.00  0.00    -0.094 A  
HETATM   56  C   UNL     1     -10.168   1.734  63.524  1.00  0.00    -0.132 A  
ENDBRANCH  50  51
ENDBRANCH  49  50
ENDBRANCH  37  49
ENDBRANCH  36  37
ENDBRANCH   5  33
ENDBRANCH   3   5
TORSDOF 18
ENDMDL
MODEL       38
REMARK 921   NORMALIZED FREE ENERGY PREDICTED BY IDOCK:   -4.22 KCAL/MOL
REMARK 922        TOTAL FREE ENERGY PREDICTED BY IDOCK:  -12.29 KCAL/MOL
REMARK 923 INTER-LIGAND FREE ENERGY PREDICTED BY IDOCK:  -10.56 KCAL/MOL
REMARK 924 INTRA-LIGAND FREE ENERGY PREDICTED BY IDOCK:   -1.73 KCAL/MOL
REMARK 927      BINDING AFFINITY PREDICTED BY RF-SCORE:    0.00 PKD
ROOT
HETATM    1  C   UNL     1      -7.653  10.208  64.366  1.00  0.00    -0.130 C  
HETATM    2  C   UNL     1      -6.529  10.117  65.401  1.00  0.00    -0.117 C  
HETATM    3  C   UNL     1      -6.800  10.892  66.709  1.00  0.00    -0.121 C  
HETATM    4  C   UNL     1      -5.219  10.587  64.759  1.00  0.00    -0.149 C  
ENDROOT
BRANCH   3   5
HETATM    5  C   UNL     1      -8.045  10.444  67.505  1.00  0.00    -0.107 C  
BRANCH   5   6
HETATM    6  C   UNL     1      -9.371  11.198  67.241  1.00  0.00    -0.160 C  
HETATM    7  H   UNL     1      -9.037  12.408  68.875  1.00  0.00     0.000 HD 
HETATM    8  N   UNL     1      -9.603  12.293  68.035  1.00  0.00    -0.200 N  
HETATM    9  O   UNL     1     -10.103  10.894  66.300  1.00  0.00    -0.218 OA 
BRANCH   8  10
HETATM   10  C   UNL     1     -10.622  13.305  67.740  1.00  0.00    -0.241 C  
BRANCH  10  11
HETATM   11  C   UNL     1     -12.073  12.903  68.089  1.00  0.00    -0.183 C  
BRANCH  11  12
HETATM   12  C   UNL     1     -12.161  12.202  69.423  1.00  0.00    -0.247 A  
HETATM   13  C   UNL     1     -11.918  10.825  69.519  1.00  0.00    -0.364 A  
HETATM   14  C   UNL     1     -12.975  12.200  71.700  1.00  0.00    -0.427 A  
HETATM   15  C   UNL     1     -12.641  12.892  70.540  1.00  0.00    -0.204 A  
HETATM   16  C   UNL     1     -12.801  10.818  71.763  1.00  0.00    -0.528 A  
HETATM   17  C   UNL     1     -12.250  10.134  70.681  1.00  0.00    -0.394 A  
ENDBRANCH  11  12
ENDBRANCH  10  11
BRANCH  10  18
HETATM   18  C   UNL     1     -10.206  14.620  68.456  1.00  0.00    -0.240 C  
HETATM   19  N   UNL     1     -10.119  15.714  67.625  1.00  0.00    -0.245 N  
HETATM   20  O   UNL     1      -9.940  14.682  69.655  1.00  0.00    -0.032 OA 
HETATM   21  H   UNL     1     -10.386  15.594  66.648  1.00  0.00     0.000 HD 
BRANCH  19  22
HETATM   22  C   UNL     1      -9.667  17.037  68.054  1.00  0.00    -0.260 C  
BRANCH  22  23
HETATM   23  C   UNL     1      -9.456  17.835  66.759  1.00  0.00    -0.285 C  
HETATM   24  O   UNL     1      -9.284  17.286  65.672  1.00  0.00    -0.501 OA 
BRANCH  23  25
HETATM   25  C   UNL     1      -9.473  19.326  66.824  1.00  0.00    -0.329 C  
HETATM   26  O   UNL     1      -8.986  19.999  65.653  1.00  0.00    -0.242 OA 
HETATM   27  C   UNL     1     -10.593  20.037  67.518  1.00  0.00    -0.429 C  
HETATM   28  C   UNL     1      -8.119  20.020  66.793  1.00  0.00    -0.317 C  
ENDBRANCH  23  25
ENDBRANCH  22  23
BRANCH  22  29
HETATM   29  C   UNL     1      -8.399  16.999  68.927  1.00  0.00    -0.196 C  
HETATM   30  C   UNL     1      -7.045  16.807  68.205  1.00  0.00    -0.161 C  
HETATM   31  C   UNL     1      -5.900  16.863  69.225  1.00  0.00    -0.171 C  
HETATM   32  C   UNL     1      -6.915  15.500  67.419  1.00  0.00    -0.232 C  
ENDBRANCH  22  29
ENDBRANCH  19  22
ENDBRANCH  10  18
ENDBRANCH   8  10
ENDBRANCH   5   6
BRANCH   5  33
HETATM   33  N   UNL     1      -8.294   9.002  67.409  1.00  0.00    -0.111 N  
HETATM   34  H   UNL     1      -8.842   8.659  66.619  1.00  0.00     0.000 HD 
HETATM   35  O   UNL     1      -7.164   8.393  69.313  1.00  0.00    -0.061 OA 
HETATM   36  C   UNL     1      -7.830   8.085  68.326  1.00  0.00    -0.123 C  
BRANCH  36  37
HETATM   37  C   UNL     1      -8.184   6.620  68.003  1.00  0.00    -0.117 C  
BRANCH  37  38
HETATM   38  N   UNL     1      -9.139   6.099  68.986  1.00  0.00    -0.124 N  
HETATM   39  O   UNL     1      -7.463   5.115  70.164  1.00  0.00    -0.061 OA 
HETATM   40  C   UNL     1      -8.671   5.357  70.041  1.00  0.00    -0.122 C  
HETATM   41  H   UNL     1     -10.137   6.287  68.887  1.00  0.00     0.000 HD 
BRANCH  40  42
HETATM   42  C   UNL     1      -9.662   4.872  71.106  1.00  0.00    -0.179 C  
BRANCH  42  43
HETATM   43  N   UNL     1     -10.668   5.856  71.573  1.00  0.00    -0.248 NA 
HETATM   44  C   UNL     1     -10.776   5.414  74.113  1.00  0.00    -0.151 C  
HETATM   45  C   UNL     1      -9.966   7.103  71.999  1.00  0.00    -0.162 C  
HETATM   46  O   UNL     1     -10.058   6.624  74.379  1.00  0.00    -0.343 OA 
HETATM   47  C   UNL     1      -9.169   6.945  73.307  1.00  0.00    -0.138 C  
HETATM   48  C   UNL     1     -11.472   5.403  72.734  1.00  0.00    -0.268 C  
ENDBRANCH  42  43
ENDBRANCH  40  42
ENDBRANCH  37  38
BRANCH  37  49
HETATM   49  C   UNL     1      -8.712   6.547  66.566  1.00  0.00    -0.135 C  
BRANCH  49  50
HETATM   50  C   UNL     1      -7.749   5.744  65.677  1.00  0.00    -0.093 C  
BRANCH  50  51
HETATM   51  C   UNL     1      -8.373   4.479  65.152  1.00  0.00    -0.122 A  
HETATM   52  C   UNL     1      -9.609   4.518  64.495  1.00  0.00    -0.060 A  
HETATM   53  C   UNL     1     -10.183   3.344  64.008  1.00  0.00    -0.212 A  
HETATM   54  C   UNL     1      -8.293   2.079  64.817  1.00  0.00    -0.085 A  
HETATM   55  C   UNL     1      -7.717   3.251  65.307  1.00  0.00    -0.081 A  
HETATM   56  C   UNL     1      -9.525   2.125  64.169  1.00  0.00    -0.131 A  
ENDBRANCH  50  51
ENDBRANCH  49  50
ENDBRANCH  37  49
ENDBRANCH  36  37
ENDBRANCH   5  33
ENDBRANCH   3   5
TORSDOF 18
ENDMDL
MODEL       39
REMARK 921   NORMALIZED FREE ENERGY PREDICTED BY IDOCK:   -4.17 KCAL/MOL
REMARK 922        TOTAL FREE ENERGY PREDICTED BY IDOCK:  -12.18 KCAL/MOL
REMARK 923 INTER-LIGAND FREE ENERGY PREDICTED BY IDOCK:  -10.11 KCAL/MOL
REMARK 924 INTRA-LIGAND FREE ENERGY PREDICTED BY IDOCK:   -2.07 KCAL/MOL
REMARK 927      BINDING AFFINITY PREDICTED BY RF-SCORE:    0.00 PKD
ROOT
HETATM    1  C   UNL     1      -8.178   8.473  63.068  1.00  0.00    -0.165 C  
HETATM    2  C   UNL     1      -6.789   8.849  63.592  1.00  0.00    -0.088 C  
HETATM    3  C   UNL     1      -6.760  10.112  64.480  1.00  0.00    -0.117 C  
HETATM    4  C   UNL     1      -5.833   9.003  62.403  1.00  0.00    -0.090 C  
ENDROOT
BRANCH   3   5
HETATM    5  C   UNL     1      -7.610  10.043  65.766  1.00  0.00    -0.120 C  
BRANCH   5   6
HETATM    6  C   UNL     1      -8.945  10.828  65.782  1.00  0.00    -0.187 C  
HETATM    7  H   UNL     1      -8.846  11.003  67.833  1.00  0.00     0.000 HD 
HETATM    8  N   UNL     1      -9.318  11.346  66.996  1.00  0.00    -0.172 N  
HETATM    9  O   UNL     1      -9.560  11.062  64.744  1.00  0.00    -0.223 OA 
BRANCH   8  10
HETATM   10  C   UNL     1     -10.360  12.365  67.156  1.00  0.00    -0.219 C  
BRANCH  10  11
HETATM   11  C   UNL     1     -11.782  11.821  67.420  1.00  0.00    -0.304 C  
BRANCH  11  12
HETATM   12  C   UNL     1     -11.848  11.002  68.687  1.00  0.00    -0.318 A  
HETATM   13  C   UNL     1     -12.622  11.434  69.773  1.00  0.00    -0.054 A  
HETATM   14  C   UNL     1     -10.870   9.291  70.088  1.00  0.00    -0.275 A  
HETATM   15  C   UNL     1     -11.012   9.892  68.841  1.00  0.00    -0.214 A  
HETATM   16  C   UNL     1     -11.586   9.774  71.181  1.00  0.00    -0.469 A  
HETATM   17  C   UNL     1     -12.480  10.830  71.019  1.00  0.00    -0.522 A  
ENDBRANCH  11  12
ENDBRANCH  10  11
BRANCH  10  18
HETATM   18  C   UNL     1      -9.903  13.338  68.278  1.00  0.00    -0.231 C  
HETATM   19  N   UNL     1     -10.890  14.184  68.732  1.00  0.00    -0.252 N  
HETATM   20  O   UNL     1      -8.751  13.382  68.708  1.00  0.00    -0.035 OA 
HETATM   21  H   UNL     1     -11.830  14.067  68.353  1.00  0.00     0.000 HD 
BRANCH  19  22
HETATM   22  C   UNL     1     -10.678  15.238  69.723  1.00  0.00    -0.283 C  
BRANCH  22  23
HETATM   23  C   UNL     1     -12.082  15.738  70.093  1.00  0.00    -0.333 C  
HETATM   24  O   UNL     1     -12.901  16.080  69.241  1.00  0.00     0.292 OA 
BRANCH  23  25
HETATM   25  C   UNL     1     -12.466  15.796  71.533  1.00  0.00    -0.455 C  
HETATM   26  O   UNL     1     -11.796  16.801  72.309  1.00  0.00    -0.361 OA 
HETATM   27  C   UNL     1     -13.884  15.546  71.946  1.00  0.00    -0.589 C  
HETATM   28  C   UNL     1     -11.377  15.451  72.538  1.00  0.00    -0.218 C  
ENDBRANCH  23  25
ENDBRANCH  22  23
BRANCH  22  29
HETATM   29  C   UNL     1      -9.770  16.376  69.221  1.00  0.00    -0.221 C  
HETATM   30  C   UNL     1     -10.285  17.228  68.038  1.00  0.00    -0.332 C  
HETATM   31  C   UNL     1      -9.280  18.346  67.728  1.00  0.00    -0.287 C  
HETATM   32  C   UNL     1     -10.538  16.447  66.746  1.00  0.00    -0.238 C  
ENDBRANCH  22  29
ENDBRANCH  19  22
ENDBRANCH  10  18
ENDBRANCH   8  10
ENDBRANCH   5   6
BRANCH   5  33
HETATM   33  N   UNL     1      -7.865   8.668  66.208  1.00  0.00    -0.100 N  
HETATM   34  H   UNL     1      -8.551   8.115  65.694  1.00  0.00     0.000 HD 
HETATM   35  O   UNL     1      -6.389   8.660  67.967  1.00  0.00    -0.054 OA 
HETATM   36  C   UNL     1      -7.229   8.082  67.280  1.00  0.00    -0.087 C  
BRANCH  36  37
HETATM   37  C   UNL     1      -7.630   6.616  67.539  1.00  0.00    -0.105 C  
BRANCH  37  38
HETATM   38  N   UNL     1      -8.312   6.498  68.832  1.00  0.00    -0.122 N  
HETATM   39  O   UNL     1      -6.990   4.746  69.424  1.00  0.00    -0.048 OA 
HETATM   40  C   UNL     1      -7.909   5.525  69.712  1.00  0.00    -0.082 C  
HETATM   41  H   UNL     1      -9.076   7.129  69.073  1.00  0.00     0.000 HD 
BRANCH  40  42
HETATM   42  C   UNL     1      -8.576   5.447  71.090  1.00  0.00    -0.125 C  
BRANCH  42  43
HETATM   43  N   UNL     1      -9.554   6.514  71.416  1.00  0.00    -0.165 NA 
HETATM   44  C   UNL     1     -11.007   5.427  73.250  1.00  0.00    -0.307 C  
HETATM   45  C   UNL     1      -9.029   7.321  72.556  1.00  0.00    -0.127 C  
HETATM   46  O   UNL     1     -10.391   6.241  74.254  1.00  0.00    -0.314 OA 
HETATM   47  C   UNL     1      -9.046   6.569  73.901  1.00  0.00    -0.148 C  
HETATM   48  C   UNL     1     -10.888   6.014  71.826  1.00  0.00    -0.260 C  
ENDBRANCH  42  43
ENDBRANCH  40  42
ENDBRANCH  37  38
BRANCH  37  49
HETATM   49  C   UNL     1      -8.487   6.126  66.368  1.00  0.00    -0.123 C  
BRANCH  49  50
HETATM   50  C   UNL     1      -7.634   5.320  65.374  1.00  0.00    -0.082 C  
BRANCH  50  51
HETATM   51  C   UNL     1      -8.469   4.438  64.487  1.00  0.00    -0.119 A  
HETATM   52  C   UNL     1      -9.852   4.338  64.684  1.00  0.00    -0.148 A  
HETATM   53  C   UNL     1     -10.623   3.521  63.858  1.00  0.00    -0.269 A  
HETATM   54  C   UNL     1      -8.646   2.900  62.620  1.00  0.00    -0.078 A  
HETATM   55  C   UNL     1      -7.871   3.715  63.446  1.00  0.00    -0.072 A  
HETATM   56  C   UNL     1     -10.020   2.803  62.826  1.00  0.00    -0.095 A  
ENDBRANCH  50  51
ENDBRANCH  49  50
ENDBRANCH  37  49
ENDBRANCH  36  37
ENDBRANCH   5  33
ENDBRANCH   3   5
TORSDOF 18
ENDMDL
MODEL       40
REMARK 921   NORMALIZED FREE ENERGY PREDICTED BY IDOCK:   -4.16 KCAL/MOL
REMARK 922        TOTAL FREE ENERGY PREDICTED BY IDOCK:  -12.17 KCAL/MOL
REMARK 923 INTER-LIGAND FREE ENERGY PREDICTED BY IDOCK:  -10.42 KCAL/MOL
REMARK 924 INTRA-LIGAND FREE ENERGY PREDICTED BY IDOCK:   -1.75 KCAL/MOL
REMARK 927      BINDING AFFINITY PREDICTED BY RF-SCORE:    0.00 PKD
ROOT
HETATM    1  C   UNL     1     -10.425  10.692  67.398  1.00  0.00    -0.280 C  
HETATM    2  C   UNL     1      -9.478   9.670  66.764  1.00  0.00    -0.209 C  
HETATM    3  C   UNL     1      -7.985  10.059  66.823  1.00  0.00    -0.114 C  
HETATM    4  C   UNL     1      -9.913   9.418  65.316  1.00  0.00     0.079 C  
ENDROOT
BRANCH   3   5
HETATM    5  C   UNL     1      -7.399  10.246  68.238  1.00  0.00    -0.085 C  
BRANCH   5   6
HETATM    6  C   UNL     1      -7.123  11.695  68.711  1.00  0.00    -0.106 C  
HETATM    7  H   UNL     1      -7.107  12.355  66.760  1.00  0.00     0.000 HD 
HETATM    8  N   UNL     1      -7.146  12.656  67.733  1.00  0.00    -0.111 N  
HETATM    9  O   UNL     1      -7.008  11.966  69.905  1.00  0.00     0.094 OA 
BRANCH   8  10
HETATM   10  C   UNL     1      -7.223  14.093  68.012  1.00  0.00    -0.143 C  
BRANCH  10  11
HETATM   11  C   UNL     1      -5.956  14.904  67.656  1.00  0.00    -0.075 C  
BRANCH  11  12
HETATM   12  C   UNL     1      -6.029  16.322  68.172  1.00  0.00    -0.115 A  
HETATM   13  C   UNL     1      -5.861  17.405  67.298  1.00  0.00    -0.163 A  
HETATM   14  C   UNL     1      -5.907  17.841  70.049  1.00  0.00    -0.221 A  
HETATM   15  C   UNL     1      -6.105  16.558  69.547  1.00  0.00    -0.199 A  
HETATM   16  C   UNL     1      -5.665  18.901  69.178  1.00  0.00    -0.226 A  
HETATM   17  C   UNL     1      -5.666  18.688  67.801  1.00  0.00    -0.174 A  
ENDBRANCH  11  12
ENDBRANCH  10  11
BRANCH  10  18
HETATM   18  C   UNL     1      -8.480  14.651  67.288  1.00  0.00    -0.215 C  
HETATM   19  N   UNL     1      -9.347  15.339  68.107  1.00  0.00    -0.196 N  
HETATM   20  O   UNL     1      -8.709  14.468  66.094  1.00  0.00     0.050 OA 
HETATM   21  H   UNL     1      -9.074  15.479  69.080  1.00  0.00     0.000 HD 
BRANCH  19  22
HETATM   22  C   UNL     1     -10.632  15.883  67.671  1.00  0.00    -0.307 C  
BRANCH  22  23
HETATM   23  C   UNL     1     -10.291  17.161  66.891  1.00  0.00    -0.308 C  
HETATM   24  O   UNL     1     -10.334  17.209  65.663  1.00  0.00    -0.557 OA 
BRANCH  23  25
HETATM   25  C   UNL     1      -9.907  18.385  67.652  1.00  0.00    -0.313 C  
HETATM   26  O   UNL     1     -10.711  19.547  67.396  1.00  0.00    -0.468 OA 
HETATM   27  C   UNL     1      -9.423  18.273  69.064  1.00  0.00    -0.148 C  
HETATM   28  C   UNL     1      -9.395  19.559  66.830  1.00  0.00    -0.346 C  
ENDBRANCH  23  25
ENDBRANCH  22  23
BRANCH  22  29
HETATM   29  C   UNL     1     -11.608  16.154  68.831  1.00  0.00    -0.298 C  
HETATM   30  C   UNL     1     -11.720  15.075  69.933  1.00  0.00    -0.343 C  
HETATM   31  C   UNL     1     -12.683  15.551  71.029  1.00  0.00    -0.526 C  
HETATM   32  C   UNL     1     -12.198  13.705  69.446  1.00  0.00    -0.307 C  
ENDBRANCH  22  29
ENDBRANCH  19  22
ENDBRANCH  10  18
ENDBRANCH   8  10
ENDBRANCH   5   6
BRANCH   5  33
HETATM   33  N   UNL     1      -8.172   9.550  69.272  1.00  0.00    -0.105 N  
HETATM   34  H   UNL     1      -8.805  10.101  69.853  1.00  0.00     0.000 HD 
HETATM   35  O   UNL     1      -7.361   7.442  68.859  1.00  0.00    -0.086 OA 
HETATM   36  C   UNL     1      -8.092   8.194  69.501  1.00  0.00    -0.119 C  
BRANCH  36  37
HETATM   37  C   UNL     1      -9.023   7.677  70.615  1.00  0.00    -0.153 C  
BRANCH  37  38
HETATM   38  N   UNL     1      -8.472   6.457  71.212  1.00  0.00    -0.123 N  
HETATM   39  O   UNL     1      -6.835   7.645  72.247  1.00  0.00    -0.054 OA 
HETATM   40  C   UNL     1      -7.370   6.551  72.024  1.00  0.00    -0.091 C  
HETATM   41  H   UNL     1      -8.901   5.551  71.026  1.00  0.00     0.000 HD 
BRANCH  40  42
HETATM   42  C   UNL     1      -6.837   5.284  72.703  1.00  0.00    -0.076 C  
BRANCH  42  43
HETATM   43  N   UNL     1      -7.130   5.131  74.149  1.00  0.00    -0.081 NA 
HETATM   44  C   UNL     1      -9.652   4.586  74.174  1.00  0.00    -0.120 C  
HETATM   45  C   UNL     1      -6.995   3.693  74.522  1.00  0.00    -0.051 C  
HETATM   46  O   UNL     1      -9.378   3.218  74.495  1.00  0.00    -0.091 OA 
HETATM   47  C   UNL     1      -8.120   2.803  73.960  1.00  0.00    -0.068 C  
HETATM   48  C   UNL     1      -8.499   5.546  74.540  1.00  0.00    -0.104 C  
ENDBRANCH  42  43
ENDBRANCH  40  42
ENDBRANCH  37  38
BRANCH  37  49
HETATM   49  C   UNL     1      -9.235   8.797  71.640  1.00  0.00    -0.333 C  
BRANCH  49  50
HETATM   50  C   UNL     1     -10.268   8.374  72.696  1.00  0.00    -0.320 C  
BRANCH  50  51
HETATM   51  C   UNL     1     -11.666   8.324  72.143  1.00  0.00    -0.429 A  
HETATM   52  C   UNL     1     -12.302   7.095  71.934  1.00  0.00    -0.352 A  
HETATM   53  C   UNL     1     -13.600   7.053  71.423  1.00  0.00    -0.312 A  
HETATM   54  C   UNL     1     -13.648   9.465  71.334  1.00  0.00    -0.362 A  
HETATM   55  C   UNL     1     -12.350   9.510  71.843  1.00  0.00    -0.450 A  
HETATM   56  C   UNL     1     -14.272   8.237  71.124  1.00  0.00    -0.215 A  
ENDBRANCH  50  51
ENDBRANCH  49  50
ENDBRANCH  37  49
ENDBRANCH  36  37
ENDBRANCH   5  33
ENDBRANCH   3   5
TORSDOF 18
ENDMDL
MODEL       41
REMARK 921   NORMALIZED FREE ENERGY PREDICTED BY IDOCK:   -4.08 KCAL/MOL
REMARK 922        TOTAL FREE ENERGY PREDICTED BY IDOCK:  -12.00 KCAL/MOL
REMARK 923 INTER-LIGAND FREE ENERGY PREDICTED BY IDOCK:   -9.74 KCAL/MOL
REMARK 924 INTRA-LIGAND FREE ENERGY PREDICTED BY IDOCK:   -2.26 KCAL/MOL
REMARK 927      BINDING AFFINITY PREDICTED BY RF-SCORE:    0.00 PKD
ROOT
HETATM    1  C   UNL     1     -11.551  13.791  70.532  1.00  0.00    -0.087 C  
HETATM    2  C   UNL     1     -12.168  12.442  70.910  1.00  0.00    -0.290 C  
HETATM    3  C   UNL     1     -12.051  11.357  69.816  1.00  0.00    -0.388 C  
HETATM    4  C   UNL     1     -13.634  12.656  71.302  1.00  0.00     0.439 C  
ENDROOT
BRANCH   3   5
HETATM    5  C   UNL     1     -10.614  10.979  69.401  1.00  0.00    -0.174 C  
BRANCH   5   6
HETATM    6  C   UNL     1     -10.440   9.769  68.450  1.00  0.00    -0.218 C  
HETATM    7  H   UNL     1      -8.684   9.249  69.392  1.00  0.00     0.000 HD 
HETATM    8  N   UNL     1      -9.399   8.925  68.742  1.00  0.00    -0.137 N  
HETATM    9  O   UNL     1     -11.260   9.531  67.564  1.00  0.00    -0.061 OA 
BRANCH   8  10
HETATM   10  C   UNL     1      -9.260   7.583  68.169  1.00  0.00    -0.137 C  
BRANCH  10  11
HETATM   11  C   UNL     1      -7.824   7.011  68.166  1.00  0.00    -0.118 C  
BRANCH  11  12
HETATM   12  C   UNL     1      -7.532   6.223  66.911  1.00  0.00    -0.087 A  
HETATM   13  C   UNL     1      -6.371   5.443  66.817  1.00  0.00    -0.039 A  
HETATM   14  C   UNL     1      -7.930   5.886  64.550  1.00  0.00    -0.126 A  
HETATM   15  C   UNL     1      -8.336   6.395  65.780  1.00  0.00    -0.146 A  
HETATM   16  C   UNL     1      -6.736   5.175  64.449  1.00  0.00    -0.047 A  
HETATM   17  C   UNL     1      -5.969   4.933  65.586  1.00  0.00    -0.023 A  
ENDBRANCH  11  12
ENDBRANCH  10  11
BRANCH  10  18
HETATM   18  C   UNL     1     -10.248   6.644  68.917  1.00  0.00    -0.177 C  
HETATM   19  N   UNL     1      -9.875   6.342  70.207  1.00  0.00    -0.167 N  
HETATM   20  O   UNL     1     -11.260   6.176  68.398  1.00  0.00    -0.330 OA 
HETATM   21  H   UNL     1      -9.040   6.793  70.581  1.00  0.00     0.000 HD 
BRANCH  19  22
HETATM   22  C   UNL     1     -10.600   5.416  71.076  1.00  0.00    -0.205 C  
BRANCH  22  23
HETATM   23  C   UNL     1     -10.944   6.224  72.336  1.00  0.00    -0.254 C  
HETATM   24  O   UNL     1     -11.079   5.694  73.437  1.00  0.00    -0.269 OA 
BRANCH  23  25
HETATM   25  C   UNL     1     -11.106   7.702  72.218  1.00  0.00    -0.286 C  
HETATM   26  O   UNL     1     -12.202   8.263  72.958  1.00  0.00    -0.228 OA 
HETATM   27  C   UNL     1      -9.902   8.589  72.139  1.00  0.00    -0.388 C  
HETATM   28  C   UNL     1     -12.377   8.191  71.538  1.00  0.00    -0.306 C  
ENDBRANCH  23  25
ENDBRANCH  22  23
BRANCH  22  29
HETATM   29  C   UNL     1      -9.807   4.137  71.405  1.00  0.00    -0.254 C  
HETATM   30  C   UNL     1      -8.436   4.308  72.098  1.00  0.00    -0.111 C  
HETATM   31  C   UNL     1      -7.833   2.931  72.404  1.00  0.00    -0.055 C  
HETATM   32  C   UNL     1      -7.406   5.108  71.295  1.00  0.00    -0.078 C  
ENDBRANCH  22  29
ENDBRANCH  19  22
ENDBRANCH  10  18
ENDBRANCH   8  10
ENDBRANCH   5   6
BRANCH   5  33
HETATM   33  N   UNL     1      -9.858  12.116  68.863  1.00  0.00    -0.417 N  
HETATM   34  H   UNL     1      -9.049  12.448  69.387  1.00  0.00     0.000 HD 
HETATM   35  O   UNL     1     -11.136  12.437  66.983  1.00  0.00    -0.252 OA 
HETATM   36  C   UNL     1     -10.181  12.758  67.688  1.00  0.00    -0.219 C  
BRANCH  36  37
HETATM   37  C   UNL     1      -9.225  13.903  67.300  1.00  0.00    -0.235 C  
BRANCH  37  38
HETATM   38  N   UNL     1      -9.791  15.195  67.701  1.00  0.00    -0.219 N  
HETATM   39  O   UNL     1      -9.119  16.148  65.750  1.00  0.00    -0.398 OA 
HETATM   40  C   UNL     1      -9.690  16.262  66.844  1.00  0.00    -0.238 C  
HETATM   41  H   UNL     1     -10.255  15.298  68.603  1.00  0.00     0.000 HD 
BRANCH  40  42
HETATM   42  C   UNL     1     -10.343  17.593  67.234  1.00  0.00    -0.354 C  
BRANCH  42  43
HETATM   43  N   UNL     1      -9.684  18.364  68.316  1.00  0.00    -0.326 NA 
HETATM   44  C   UNL     1      -7.665  19.434  67.118  1.00  0.00    -0.247 C  
HETATM   45  C   UNL     1     -10.208  19.761  68.303  1.00  0.00    -0.447 C  
HETATM   46  O   UNL     1      -8.301  20.717  67.139  1.00  0.00    -0.313 OA 
HETATM   47  C   UNL     1      -9.724  20.590  67.098  1.00  0.00    -0.441 C  
HETATM   48  C   UNL     1      -8.210  18.460  68.186  1.00  0.00    -0.287 C  
ENDBRANCH  42  43
ENDBRANCH  40  42
ENDBRANCH  37  38
BRANCH  37  49
HETATM   49  C   UNL     1      -7.854  13.634  67.930  1.00  0.00    -0.159 C  
BRANCH  49  50
HETATM   50  C   UNL     1      -7.065  12.615  67.093  1.00  0.00    -0.035 C  
BRANCH  50  51
HETATM   51  C   UNL     1      -6.520  11.488  67.927  1.00  0.00    -0.056 A  
HETATM   52  C   UNL     1      -5.826  10.432  67.325  1.00  0.00    -0.052 A  
HETATM   53  C   UNL     1      -5.319   9.390  68.102  1.00  0.00    -0.037 A  
HETATM   54  C   UNL     1      -6.184  10.448  70.092  1.00  0.00    -0.108 A  
HETATM   55  C   UNL     1      -6.693  11.491  69.318  1.00  0.00    -0.118 A  
HETATM   56  C   UNL     1      -5.499   9.399  69.485  1.00  0.00    -0.034 A  
ENDBRANCH  50  51
ENDBRANCH  49  50
ENDBRANCH  37  49
ENDBRANCH  36  37
ENDBRANCH   5  33
ENDBRANCH   3   5
TORSDOF 18
ENDMDL
MODEL       42
REMARK 921   NORMALIZED FREE ENERGY PREDICTED BY IDOCK:   -4.07 KCAL/MOL
REMARK 922        TOTAL FREE ENERGY PREDICTED BY IDOCK:  -11.98 KCAL/MOL
REMARK 923 INTER-LIGAND FREE ENERGY PREDICTED BY IDOCK:   -9.84 KCAL/MOL
REMARK 924 INTRA-LIGAND FREE ENERGY PREDICTED BY IDOCK:   -2.14 KCAL/MOL
REMARK 927      BINDING AFFINITY PREDICTED BY RF-SCORE:    0.00 PKD
ROOT
HETATM    1  C   UNL     1     -11.380   8.885  69.136  1.00  0.00     0.378 C  
HETATM    2  C   UNL     1     -11.512  10.182  69.939  1.00  0.00    -0.317 C  
HETATM    3  C   UNL     1     -10.287  11.119  69.846  1.00  0.00     0.380 C  
HETATM    4  C   UNL     1     -11.815   9.835  71.400  1.00  0.00    -0.488 C  
ENDROOT
BRANCH   3   5
HETATM    5  C   UNL     1      -9.936  11.620  68.429  1.00  0.00    -0.201 C  
BRANCH   5   6
HETATM    6  C   UNL     1      -9.845  13.152  68.216  1.00  0.00    -0.227 C  
HETATM    7  H   UNL     1     -11.900  13.300  68.224  1.00  0.00     0.000 HD 
HETATM    8  N   UNL     1     -11.033  13.835  68.278  1.00  0.00    -0.242 N  
HETATM    9  O   UNL     1      -8.759  13.719  68.114  1.00  0.00    -0.170 OA 
BRANCH   8  10
HETATM   10  C   UNL     1     -11.123  15.292  68.416  1.00  0.00    -0.287 C  
BRANCH  10  11
HETATM   11  C   UNL     1     -10.744  15.847  69.808  1.00  0.00    -0.324 C  
BRANCH  11  12
HETATM   12  C   UNL     1     -11.898  15.776  70.779  1.00  0.00    -0.438 A  
HETATM   13  C   UNL     1     -11.686  15.971  72.151  1.00  0.00    -0.587 A  
HETATM   14  C   UNL     1     -14.151  15.036  71.251  1.00  0.00    -0.516 A  
HETATM   15  C   UNL     1     -13.156  15.358  70.334  1.00  0.00    -0.223 A  
HETATM   16  C   UNL     1     -13.908  15.160  72.617  1.00  0.00    -0.567 A  
HETATM   17  C   UNL     1     -12.684  15.651  73.067  1.00  0.00    -0.581 A  
ENDBRANCH  11  12
ENDBRANCH  10  11
BRANCH  10  18
HETATM   18  C   UNL     1     -10.261  15.930  67.292  1.00  0.00    -0.278 C  
HETATM   19  N   UNL     1      -9.161  16.622  67.746  1.00  0.00    -0.211 N  
HETATM   20  O   UNL     1     -10.547  15.858  66.098  1.00  0.00    -0.307 OA 
HETATM   21  H   UNL     1      -8.969  16.609  68.747  1.00  0.00     0.000 HD 
BRANCH  19  22
HETATM   22  C   UNL     1      -8.250  17.373  66.883  1.00  0.00    -0.231 C  
BRANCH  22  23
HETATM   23  C   UNL     1      -6.847  16.841  67.210  1.00  0.00    -0.171 C  
HETATM   24  O   UNL     1      -6.031  16.565  66.333  1.00  0.00    -0.237 OA 
BRANCH  23  25
HETATM   25  C   UNL     1      -6.462  16.666  68.640  1.00  0.00    -0.155 C  
HETATM   26  O   UNL     1      -6.822  17.750  69.512  1.00  0.00    -0.184 OA 
HETATM   27  C   UNL     1      -6.532  15.315  69.281  1.00  0.00    -0.131 C  
HETATM   28  C   UNL     1      -5.431  17.644  69.187  1.00  0.00    -0.189 C  
ENDBRANCH  23  25
ENDBRANCH  22  23
BRANCH  22  29
HETATM   29  C   UNL     1      -8.350  18.899  67.067  1.00  0.00    -0.287 C  
HETATM   30  C   UNL     1      -9.762  19.502  67.251  1.00  0.00    -0.450 C  
HETATM   31  C   UNL     1      -9.654  21.014  67.486  1.00  0.00    -0.243 C  
HETATM   32  C   UNL     1     -10.716  19.272  66.076  1.00  0.00    -0.477 C  
ENDBRANCH  22  29
ENDBRANCH  19  22
ENDBRANCH  10  18
ENDBRANCH   8  10
ENDBRANCH   5   6
BRANCH   5  33
HETATM   33  N   UNL     1      -8.726  10.995  67.886  1.00  0.00    -0.130 N  
HETATM   34  H   UNL     1      -7.835  11.192  68.343  1.00  0.00     0.000 HD 
HETATM   35  O   UNL     1      -9.743   9.857  66.170  1.00  0.00    -0.201 OA 
HETATM   36  C   UNL     1      -8.726  10.157  66.793  1.00  0.00    -0.125 C  
BRANCH  36  37
HETATM   37  C   UNL     1      -7.342   9.588  66.423  1.00  0.00    -0.093 C  
BRANCH  37  38
HETATM   38  N   UNL     1      -7.105   8.327  67.134  1.00  0.00    -0.078 N  
HETATM   39  O   UNL     1      -6.309   9.444  68.947  1.00  0.00    -0.043 OA 
HETATM   40  C   UNL     1      -6.586   8.365  68.404  1.00  0.00    -0.060 C  
HETATM   41  H   UNL     1      -7.322   7.435  66.690  1.00  0.00     0.000 HD 
BRANCH  40  42
HETATM   42  C   UNL     1      -6.404   7.051  69.172  1.00  0.00    -0.035 C  
BRANCH  42  43
HETATM   43  N   UNL     1      -7.619   6.224  69.371  1.00  0.00    -0.096 NA 
HETATM   44  C   UNL     1      -7.053   4.860  71.486  1.00  0.00    -0.056 C  
HETATM   45  C   UNL     1      -8.547   6.940  70.295  1.00  0.00    -0.140 C  
HETATM   46  O   UNL     1      -7.952   5.653  72.268  1.00  0.00    -0.105 OA 
HETATM   47  C   UNL     1      -8.052   6.983  71.753  1.00  0.00    -0.099 C  
HETATM   48  C   UNL     1      -7.360   4.895  69.973  1.00  0.00    -0.055 C  
ENDBRANCH  42  43
ENDBRANCH  40  42
ENDBRANCH  37  38
BRANCH  37  49
HETATM   49  C   UNL     1      -7.263   9.435  64.901  1.00  0.00    -0.106 C  
BRANCH  49  50
HETATM   50  C   UNL     1      -8.136   8.261  64.429  1.00  0.00    -0.145 C  
BRANCH  50  51
HETATM   51  C   UNL     1      -7.341   7.214  63.697  1.00  0.00    -0.085 A  
HETATM   52  C   UNL     1      -5.961   7.368  63.517  1.00  0.00    -0.049 A  
HETATM   53  C   UNL     1      -5.227   6.394  62.840  1.00  0.00    -0.022 A  
HETATM   54  C   UNL     1      -7.237   5.094  62.523  1.00  0.00    -0.038 A  
HETATM   55  C   UNL     1      -7.974   6.067  63.198  1.00  0.00    -0.104 A  
HETATM   56  C   UNL     1      -5.865   5.258  62.344  1.00  0.00    -0.014 A  
ENDBRANCH  50  51
ENDBRANCH  49  50
ENDBRANCH  37  49
ENDBRANCH  36  37
ENDBRANCH   5  33
ENDBRANCH   3   5
TORSDOF 18
ENDMDL
MODEL       43
REMARK 921   NORMALIZED FREE ENERGY PREDICTED BY IDOCK:   -3.96 KCAL/MOL
REMARK 922        TOTAL FREE ENERGY PREDICTED BY IDOCK:  -11.77 KCAL/MOL
REMARK 923 INTER-LIGAND FREE ENERGY PREDICTED BY IDOCK:  -12.19 KCAL/MOL
REMARK 924 INTRA-LIGAND FREE ENERGY PREDICTED BY IDOCK:    0.43 KCAL/MOL
REMARK 927      BINDING AFFINITY PREDICTED BY RF-SCORE:    0.00 PKD
ROOT
HETATM    1  C   UNL     1      -5.151  12.481  67.768  1.00  0.00    -0.098 C  
HETATM    2  C   UNL     1      -6.240  11.841  66.903  1.00  0.00    -0.134 C  
HETATM    3  C   UNL     1      -7.331  11.092  67.699  1.00  0.00    -0.094 C  
HETATM    4  C   UNL     1      -5.580  10.906  65.882  1.00  0.00    -0.147 C  
ENDROOT
BRANCH   3   5
HETATM    5  C   UNL     1      -8.138  11.950  68.696  1.00  0.00    -0.086 C  
BRANCH   5   6
HETATM    6  C   UNL     1      -8.811  13.234  68.150  1.00  0.00    -0.187 C  
HETATM    7  H   UNL     1      -7.583  13.204  66.496  1.00  0.00     0.000 HD 
HETATM    8  N   UNL     1      -8.424  13.622  66.892  1.00  0.00    -0.118 N  
HETATM    9  O   UNL     1      -9.714  13.794  68.768  1.00  0.00    -0.176 OA 
BRANCH   8  10
HETATM   10  C   UNL     1      -9.157  14.604  66.086  1.00  0.00    -0.090 C  
BRANCH  10  11
HETATM   11  C   UNL     1     -10.697  14.521  66.184  1.00  0.00    -0.310 C  
BRANCH  11  12
HETATM   12  C   UNL     1     -11.272  13.519  65.212  1.00  0.00    -0.304 A  
HETATM   13  C   UNL     1     -10.698  12.247  65.079  1.00  0.00    -0.336 A  
HETATM   14  C   UNL     1     -12.632  13.089  63.259  1.00  0.00    -0.149 A  
HETATM   15  C   UNL     1     -12.280  13.910  64.325  1.00  0.00    -0.447 A  
HETATM   16  C   UNL     1     -12.002  11.857  63.090  1.00  0.00    -0.287 A  
HETATM   17  C   UNL     1     -11.053  11.426  64.013  1.00  0.00    -0.400 A  
ENDBRANCH  11  12
ENDBRANCH  10  11
BRANCH  10  18
HETATM   18  C   UNL     1      -8.635  16.016  66.470  1.00  0.00    -0.309 C  
HETATM   19  N   UNL     1      -8.743  16.315  67.810  1.00  0.00    -0.178 N  
HETATM   20  O   UNL     1      -8.193  16.820  65.651  1.00  0.00    -0.279 OA 
HETATM   21  H   UNL     1      -9.087  15.587  68.435  1.00  0.00     0.000 HD 
BRANCH  19  22
HETATM   22  C   UNL     1      -8.394  17.610  68.393  1.00  0.00    -0.290 C  
BRANCH  22  23
HETATM   23  C   UNL     1      -9.720  18.378  68.501  1.00  0.00    -0.361 C  
HETATM   24  O   UNL     1     -10.513  18.190  69.422  1.00  0.00    -0.065 OA 
BRANCH  23  25
HETATM   25  C   UNL     1     -10.047  19.394  67.458  1.00  0.00    -0.398 C  
HETATM   26  O   UNL     1     -11.341  19.258  66.851  1.00  0.00    -0.077 OA 
HETATM   27  C   UNL     1      -9.589  20.810  67.616  1.00  0.00    -0.378 C  
HETATM   28  C   UNL     1     -10.226  18.873  66.039  1.00  0.00    -0.387 C  
ENDBRANCH  23  25
ENDBRANCH  22  23
BRANCH  22  29
HETATM   29  C   UNL     1      -7.339  18.384  67.582  1.00  0.00    -0.219 C  
HETATM   30  C   UNL     1      -6.173  19.030  68.366  1.00  0.00    -0.239 C  
HETATM   31  C   UNL     1      -5.195  19.694  67.387  1.00  0.00    -0.161 C  
HETATM   32  C   UNL     1      -6.596  20.080  69.397  1.00  0.00    -0.348 C  
ENDBRANCH  22  29
ENDBRANCH  19  22
ENDBRANCH  10  18
ENDBRANCH   8  10
ENDBRANCH   5   6
BRANCH   5  33
HETATM   33  N   UNL     1      -9.136  11.174  69.439  1.00  0.00    -0.368 N  
HETATM   34  H   UNL     1      -9.100  11.194  70.459  1.00  0.00     0.000 HD 
HETATM   35  O   UNL     1     -10.248  10.327  67.618  1.00  0.00    -0.184 OA 
HETATM   36  C   UNL     1     -10.118  10.420  68.837  1.00  0.00    -0.201 C  
BRANCH  36  37
HETATM   37  C   UNL     1     -11.078   9.717  69.818  1.00  0.00    -0.237 C  
BRANCH  37  38
HETATM   38  N   UNL     1     -10.408   8.579  70.455  1.00  0.00    -0.198 N  
HETATM   39  O   UNL     1     -10.725   7.296  68.606  1.00  0.00    -0.203 OA 
HETATM   40  C   UNL     1     -10.277   7.405  69.755  1.00  0.00    -0.209 C  
HETATM   41  H   UNL     1     -10.045   8.658  71.404  1.00  0.00     0.000 HD 
BRANCH  40  42
HETATM   42  C   UNL     1      -9.516   6.239  70.396  1.00  0.00    -0.161 C  
BRANCH  42  43
HETATM   43  N   UNL     1      -8.035   6.328  70.388  1.00  0.00    -0.109 NA 
HETATM   44  C   UNL     1      -7.543   7.978  72.310  1.00  0.00    -0.110 C  
HETATM   45  C   UNL     1      -7.484   5.324  71.344  1.00  0.00    -0.095 C  
HETATM   46  O   UNL     1      -7.073   6.909  73.139  1.00  0.00    -0.075 OA 
HETATM   47  C   UNL     1      -7.731   5.681  72.822  1.00  0.00    -0.098 C  
HETATM   48  C   UNL     1      -7.501   7.648  70.801  1.00  0.00    -0.071 C  
ENDBRANCH  42  43
ENDBRANCH  40  42
ENDBRANCH  37  38
BRANCH  37  49
HETATM   49  C   UNL     1     -11.589  10.747  70.829  1.00  0.00    -0.322 C  
BRANCH  49  50
HETATM   50  C   UNL     1     -12.826  11.476  70.281  1.00  0.00     0.045 C  
BRANCH  50  51
HETATM   51  C   UNL     1     -12.899  12.907  70.739  1.00  0.00    -0.128 A  
HETATM   52  C   UNL     1     -12.429  13.940  69.918  1.00  0.00    -0.285 A  
HETATM   53  C   UNL     1     -12.500  15.265  70.346  1.00  0.00    -0.426 A  
HETATM   54  C   UNL     1     -13.519  14.548  72.413  1.00  0.00    -0.543 A  
HETATM   55  C   UNL     1     -13.448  13.221  71.990  1.00  0.00    -0.596 A  
HETATM   56  C   UNL     1     -13.045  15.569  71.592  1.00  0.00    -0.561 A  
ENDBRANCH  50  51
ENDBRANCH  49  50
ENDBRANCH  37  49
ENDBRANCH  36  37
ENDBRANCH   5  33
ENDBRANCH   3   5
TORSDOF 18
ENDMDL
MODEL       44
REMARK 921   NORMALIZED FREE ENERGY PREDICTED BY IDOCK:   -3.86 KCAL/MOL
REMARK 922        TOTAL FREE ENERGY PREDICTED BY IDOCK:  -11.56 KCAL/MOL
REMARK 923 INTER-LIGAND FREE ENERGY PREDICTED BY IDOCK:  -10.82 KCAL/MOL
REMARK 924 INTRA-LIGAND FREE ENERGY PREDICTED BY IDOCK:   -0.74 KCAL/MOL
REMARK 927      BINDING AFFINITY PREDICTED BY RF-SCORE:    0.00 PKD
ROOT
HETATM    1  C   UNL     1      -9.113   9.213  64.931  1.00  0.00    -0.190 C  
HETATM    2  C   UNL     1      -7.829   9.372  65.749  1.00  0.00    -0.099 C  
HETATM    3  C   UNL     1      -7.799  10.621  66.656  1.00  0.00    -0.135 C  
HETATM    4  C   UNL     1      -6.628   9.368  64.798  1.00  0.00    -0.079 C  
ENDROOT
BRANCH   3   5
HETATM    5  C   UNL     1      -8.907  10.695  67.729  1.00  0.00    -0.133 C  
BRANCH   5   6
HETATM    6  C   UNL     1      -8.801   9.725  68.931  1.00  0.00    -0.140 C  
HETATM    7  H   UNL     1     -10.090   8.406  68.012  1.00  0.00     0.000 HD 
HETATM    8  N   UNL     1      -9.422   8.511  68.776  1.00  0.00    -0.143 N  
HETATM    9  O   UNL     1      -8.106   9.993  69.909  1.00  0.00    -0.171 OA 
BRANCH   8  10
HETATM   10  C   UNL     1      -9.177   7.359  69.648  1.00  0.00    -0.146 C  
BRANCH  10  11
HETATM   11  C   UNL     1     -10.444   6.674  70.209  1.00  0.00    -0.247 C  
BRANCH  11  12
HETATM   12  C   UNL     1     -10.454   6.656  71.719  1.00  0.00    -0.233 A  
HETATM   13  C   UNL     1      -9.563   7.457  72.446  1.00  0.00    -0.192 A  
HETATM   14  C   UNL     1     -11.067   5.515  73.762  1.00  0.00    -0.031 A  
HETATM   15  C   UNL     1     -11.243   5.721  72.397  1.00  0.00    -0.343 A  
HETATM   16  C   UNL     1     -10.124   6.264  74.464  1.00  0.00    -0.353 A  
HETATM   17  C   UNL     1      -9.389   7.251  73.812  1.00  0.00    -0.296 A  
ENDBRANCH  11  12
ENDBRANCH  10  11
BRANCH  10  18
HETATM   18  C   UNL     1      -8.283   6.355  68.868  1.00  0.00    -0.118 C  
HETATM   19  N   UNL     1      -8.850   5.114  68.686  1.00  0.00    -0.096 N  
HETATM   20  O   UNL     1      -7.150   6.624  68.472  1.00  0.00    -0.077 OA 
HETATM   21  H   UNL     1      -9.807   4.974  69.011  1.00  0.00     0.000 HD 
BRANCH  19  22
HETATM   22  C   UNL     1      -8.169   3.984  68.055  1.00  0.00    -0.092 C  
BRANCH  22  23
HETATM   23  C   UNL     1      -6.781   3.928  68.710  1.00  0.00    -0.046 C  
HETATM   24  O   UNL     1      -5.810   4.513  68.236  1.00  0.00    -0.023 OA 
BRANCH  23  25
HETATM   25  C   UNL     1      -6.614   3.147  69.971  1.00  0.00    -0.033 C  
HETATM   26  O   UNL     1      -6.860   1.737  69.859  1.00  0.00    -0.032 OA 
HETATM   27  C   UNL     1      -5.532   3.506  70.941  1.00  0.00    -0.012 C  
HETATM   28  C   UNL     1      -7.869   2.497  70.535  1.00  0.00    -0.042 C  
ENDBRANCH  23  25
ENDBRANCH  22  23
BRANCH  22  29
HETATM   29  C   UNL     1      -8.084   4.098  66.522  1.00  0.00    -0.101 C  
HETATM   30  C   UNL     1      -9.133   4.988  65.815  1.00  0.00    -0.154 C  
HETATM   31  C   UNL     1      -8.846   5.031  64.308  1.00  0.00    -0.066 C  
HETATM   32  C   UNL     1     -10.585   4.545  66.008  1.00  0.00    -0.144 C  
ENDBRANCH  22  29
ENDBRANCH  19  22
ENDBRANCH  10  18
ENDBRANCH   8  10
ENDBRANCH   5   6
BRANCH   5  33
HETATM   33  N   UNL     1      -9.121  12.054  68.236  1.00  0.00    -0.193 N  
HETATM   34  H   UNL     1      -8.794  12.275  69.177  1.00  0.00     0.000 HD 
HETATM   35  O   UNL     1     -10.170  12.887  66.371  1.00  0.00    -0.256 OA 
HETATM   36  C   UNL     1      -9.739  13.049  67.511  1.00  0.00    -0.206 C  
BRANCH  36  37
HETATM   37  C   UNL     1      -9.822  14.409  68.232  1.00  0.00    -0.229 C  
BRANCH  37  38
HETATM   38  N   UNL     1      -8.975  15.395  67.554  1.00  0.00    -0.180 N  
HETATM   39  O   UNL     1      -9.291  16.893  69.235  1.00  0.00    -0.177 OA 
HETATM   40  C   UNL     1      -8.766  16.615  68.148  1.00  0.00    -0.201 C  
HETATM   41  H   UNL     1      -8.547  15.178  66.655  1.00  0.00     0.000 HD 
BRANCH  40  42
HETATM   42  C   UNL     1      -7.824  17.618  67.472  1.00  0.00    -0.202 C  
BRANCH  42  43
HETATM   43  N   UNL     1      -8.391  18.412  66.355  1.00  0.00    -0.347 NA 
HETATM   44  C   UNL     1     -10.324  19.699  67.480  1.00  0.00    -0.448 C  
HETATM   45  C   UNL     1      -7.742  19.756  66.337  1.00  0.00    -0.303 C  
HETATM   46  O   UNL     1      -9.573  20.917  67.434  1.00  0.00    -0.433 OA 
HETATM   47  C   UNL     1      -8.168  20.662  67.508  1.00  0.00    -0.192 C  
HETATM   48  C   UNL     1      -9.852  18.646  66.453  1.00  0.00    -0.367 C  
ENDBRANCH  42  43
ENDBRANCH  40  42
ENDBRANCH  37  38
BRANCH  37  49
HETATM   49  C   UNL     1     -11.291  14.839  68.306  1.00  0.00    -0.319 C  
BRANCH  49  50
HETATM   50  C   UNL     1     -12.157  13.707  68.882  1.00  0.00    -0.335 C  
BRANCH  50  51
HETATM   51  C   UNL     1     -12.678  14.027  70.256  1.00  0.00    -0.270 A  
HETATM   52  C   UNL     1     -13.213  15.290  70.536  1.00  0.00    -0.278 A  
HETATM   53  C   UNL     1     -13.698  15.583  71.810  1.00  0.00    -0.582 A  
HETATM   54  C   UNL     1     -13.131  13.353  72.542  1.00  0.00    -0.424 A  
HETATM   55  C   UNL     1     -12.644  13.058  71.268  1.00  0.00    -0.373 A  
HETATM   56  C   UNL     1     -13.657  14.614  72.812  1.00  0.00    -0.538 A  
ENDBRANCH  50  51
ENDBRANCH  49  50
ENDBRANCH  37  49
ENDBRANCH  36  37
ENDBRANCH   5  33
ENDBRANCH   3   5
TORSDOF 18
ENDMDL
MODEL       45
REMARK 921   NORMALIZED FREE ENERGY PREDICTED BY IDOCK:   -3.33 KCAL/MOL
REMARK 922        TOTAL FREE ENERGY PREDICTED BY IDOCK:  -10.46 KCAL/MOL
REMARK 923 INTER-LIGAND FREE ENERGY PREDICTED BY IDOCK:   -7.80 KCAL/MOL
REMARK 924 INTRA-LIGAND FREE ENERGY PREDICTED BY IDOCK:   -2.66 KCAL/MOL
REMARK 927      BINDING AFFINITY PREDICTED BY RF-SCORE:    0.00 PKD
ROOT
HETATM    1  C   UNL     1     -11.797  12.391  70.788  1.00  0.00     0.119 C  
HETATM    2  C   UNL     1     -12.266  11.080  71.425  1.00  0.00    -0.292 C  
HETATM    3  C   UNL     1     -12.098   9.836  70.524  1.00  0.00    -0.244 C  
HETATM    4  C   UNL     1     -13.726  11.233  71.864  1.00  0.00     0.095 C  
ENDROOT
BRANCH   3   5
HETATM    5  C   UNL     1     -10.651   9.516  70.092  1.00  0.00    -0.254 C  
BRANCH   5   6
HETATM    6  C   UNL     1     -10.415   8.201  69.308  1.00  0.00    -0.214 C  
HETATM    7  H   UNL     1      -8.379   8.386  69.563  1.00  0.00     0.000 HD 
HETATM    8  N   UNL     1      -9.121   7.745  69.282  1.00  0.00    -0.146 N  
HETATM    9  O   UNL     1     -11.354   7.559  68.841  1.00  0.00     0.208 OA 
BRANCH   8  10
HETATM   10  C   UNL     1      -8.750   6.387  68.874  1.00  0.00    -0.126 C  
BRANCH  10  11
HETATM   11  C   UNL     1      -7.238   6.157  68.646  1.00  0.00    -0.084 C  
BRANCH  11  12
HETATM   12  C   UNL     1      -6.966   4.846  67.947  1.00  0.00    -0.061 A  
HETATM   13  C   UNL     1      -7.575   4.556  66.718  1.00  0.00    -0.086 A  
HETATM   14  C   UNL     1      -6.196   2.558  68.086  1.00  0.00    -0.028 A  
HETATM   15  C   UNL     1      -6.231   3.851  68.599  1.00  0.00    -0.032 A  
HETATM   16  C   UNL     1      -6.868   2.258  66.903  1.00  0.00    -0.040 A  
HETATM   17  C   UNL     1      -7.536   3.262  66.206  1.00  0.00    -0.077 A  
ENDBRANCH  11  12
ENDBRANCH  10  11
BRANCH  10  18
HETATM   18  C   UNL     1      -9.325   5.401  69.928  1.00  0.00    -0.140 C  
HETATM   19  N   UNL     1      -8.539   5.247  71.048  1.00  0.00    -0.121 N  
HETATM   20  O   UNL     1     -10.375   4.779  69.771  1.00  0.00    -0.227 OA 
HETATM   21  H   UNL     1      -7.699   5.820  71.124  1.00  0.00     0.000 HD 
BRANCH  19  22
HETATM   22  C   UNL     1      -8.832   4.313  72.135  1.00  0.00    -0.112 C  
BRANCH  22  23
HETATM   23  C   UNL     1      -8.971   5.183  73.393  1.00  0.00    -0.119 C  
HETATM   24  O   UNL     1      -8.798   4.731  74.524  1.00  0.00    -0.111 OA 
BRANCH  23  25
HETATM   25  C   UNL     1      -9.315   6.626  73.233  1.00  0.00    -0.133 C  
HETATM   26  O   UNL     1      -8.295   7.439  72.631  1.00  0.00    -0.104 OA 
HETATM   27  C   UNL     1     -10.711   7.033  72.879  1.00  0.00    -0.320 C  
HETATM   28  C   UNL     1      -8.484   7.613  74.040  1.00  0.00    -0.237 C  
ENDBRANCH  23  25
ENDBRANCH  22  23
BRANCH  22  29
HETATM   29  C   UNL     1      -7.766   3.215  72.303  1.00  0.00    -0.058 C  
HETATM   30  C   UNL     1      -6.441   3.610  72.996  1.00  0.00    -0.024 C  
HETATM   31  C   UNL     1      -5.538   2.376  73.133  1.00  0.00     0.000 C  
HETATM   32  C   UNL     1      -5.643   4.704  72.281  1.00  0.00    -0.008 C  
ENDBRANCH  22  29
ENDBRANCH  19  22
ENDBRANCH  10  18
ENDBRANCH   8  10
ENDBRANCH   5   6
BRANCH   5  33
HETATM   33  N   UNL     1     -10.015  10.620  69.366  1.00  0.00    -0.363 N  
HETATM   34  H   UNL     1      -9.199  11.066  69.786  1.00  0.00     0.000 HD 
HETATM   35  O   UNL     1     -11.432  10.621  67.560  1.00  0.00    -0.460 OA 
HETATM   36  C   UNL     1     -10.459  11.087  68.149  1.00  0.00    -0.189 C  
BRANCH  36  37
HETATM   37  C   UNL     1      -9.613  12.232  67.556  1.00  0.00    -0.184 C  
BRANCH  37  38
HETATM   38  N   UNL     1     -10.130  13.529  68.005  1.00  0.00    -0.237 N  
HETATM   39  O   UNL     1      -9.598  14.484  66.012  1.00  0.00    -0.303 OA 
HETATM   40  C   UNL     1     -10.080  14.599  67.147  1.00  0.00    -0.244 C  
HETATM   41  H   UNL     1     -10.520  13.634  68.941  1.00  0.00     0.000 HD 
BRANCH  40  42
HETATM   42  C   UNL     1     -10.683  15.936  67.592  1.00  0.00    -0.312 C  
BRANCH  42  43
HETATM   43  N   UNL     1      -9.788  16.852  68.340  1.00  0.00    -0.254 NA 
HETATM   44  C   UNL     1      -8.745  18.296  66.474  1.00  0.00    -0.274 C  
HETATM   45  C   UNL     1     -10.531  18.108  68.654  1.00  0.00    -0.195 C  
HETATM   46  O   UNL     1      -9.549  19.417  66.857  1.00  0.00    -0.311 OA 
HETATM   47  C   UNL     1     -10.793  18.993  67.420  1.00  0.00    -0.409 C  
HETATM   48  C   UNL     1      -8.568  17.253  67.599  1.00  0.00    -0.217 C  
ENDBRANCH  42  43
ENDBRANCH  40  42
ENDBRANCH  37  38
BRANCH  37  49
HETATM   49  C   UNL     1      -8.147  12.011  67.940  1.00  0.00    -0.150 C  
BRANCH  49  50
HETATM   50  C   UNL     1      -7.280  11.833  66.683  1.00  0.00     0.025 C  
BRANCH  50  51
HETATM   51  C   UNL     1      -7.613  10.573  65.932  1.00  0.00    -0.148 A  
HETATM   52  C   UNL     1      -8.308  10.634  64.718  1.00  0.00    -0.071 A  
HETATM   53  C   UNL     1      -8.613   9.464  64.022  1.00  0.00    -0.222 A  
HETATM   54  C   UNL     1      -7.524   8.157  65.736  1.00  0.00    -0.080 A  
HETATM   55  C   UNL     1      -7.219   9.325  66.435  1.00  0.00    -0.088 A  
HETATM   56  C   UNL     1      -8.220   8.227  64.531  1.00  0.00    -0.138 A  
ENDBRANCH  50  51
ENDBRANCH  49  50
ENDBRANCH  37  49
ENDBRANCH  36  37
ENDBRANCH   5  33
ENDBRANCH   3   5
TORSDOF 18
ENDMDL
MODEL       46
REMARK 921   NORMALIZED FREE ENERGY PREDICTED BY IDOCK:   -3.13 KCAL/MOL
REMARK 922        TOTAL FREE ENERGY PREDICTED BY IDOCK:  -10.06 KCAL/MOL
REMARK 923 INTER-LIGAND FREE ENERGY PREDICTED BY IDOCK:   -8.12 KCAL/MOL
REMARK 924 INTRA-LIGAND FREE ENERGY PREDICTED BY IDOCK:   -1.94 KCAL/MOL
REMARK 927      BINDING AFFINITY PREDICTED BY RF-SCORE:    0.00 PKD
ROOT
HETATM    1  C   UNL     1      -8.899   9.253  71.575  1.00  0.00     0.133 C  
HETATM    2  C   UNL     1      -7.747   8.753  70.699  1.00  0.00    -0.096 C  
HETATM    3  C   UNL     1      -7.747   9.317  69.261  1.00  0.00    -0.081 C  
HETATM    4  C   UNL     1      -7.766   7.221  70.677  1.00  0.00    -0.093 C  
ENDROOT
BRANCH   3   5
HETATM    5  C   UNL     1      -7.632  10.852  69.145  1.00  0.00    -0.133 C  
BRANCH   5   6
HETATM    6  C   UNL     1      -7.173  11.433  67.785  1.00  0.00    -0.089 C  
HETATM    7  H   UNL     1      -6.252   9.652  67.308  1.00  0.00     0.000 HD 
HETATM    8  N   UNL     1      -6.568  10.545  66.931  1.00  0.00    -0.077 N  
HETATM    9  O   UNL     1      -7.443  12.587  67.460  1.00  0.00    -0.129 OA 
BRANCH   8  10
HETATM   10  C   UNL     1      -6.353  10.813  65.505  1.00  0.00    -0.026 C  
BRANCH  10  11
HETATM   11  C   UNL     1      -5.184  10.037  64.857  1.00  0.00    -0.069 C  
BRANCH  11  12
HETATM   12  C   UNL     1      -5.431   8.547  64.847  1.00  0.00    -0.043 A  
HETATM   13  C   UNL     1      -5.166   7.775  65.987  1.00  0.00    -0.025 A  
HETATM   14  C   UNL     1      -5.744   6.519  63.568  1.00  0.00    -0.030 A  
HETATM   15  C   UNL     1      -5.772   7.907  63.652  1.00  0.00    -0.054 A  
HETATM   16  C   UNL     1      -5.405   5.759  64.687  1.00  0.00    -0.016 A  
HETATM   17  C   UNL     1      -5.140   6.386  65.902  1.00  0.00    -0.013 A  
ENDBRANCH  11  12
ENDBRANCH  10  11
BRANCH  10  18
HETATM   18  C   UNL     1      -7.694  10.549  64.766  1.00  0.00     0.000 C  
HETATM   19  N   UNL     1      -8.764  10.314  65.599  1.00  0.00    -0.155 N  
HETATM   20  O   UNL     1      -7.796  10.517  63.540  1.00  0.00    -0.118 OA 
HETATM   21  H   UNL     1      -8.612  10.391  66.605  1.00  0.00     0.000 HD 
BRANCH  19  22
HETATM   22  C   UNL     1     -10.105   9.962  65.135  1.00  0.00    -0.107 C  
BRANCH  22  23
HETATM   23  C   UNL     1     -10.960  11.216  65.370  1.00  0.00    -0.081 C  
HETATM   24  O   UNL     1     -11.564  11.409  66.423  1.00  0.00    -0.369 OA 
BRANCH  23  25
HETATM   25  C   UNL     1     -11.047  12.238  64.286  1.00  0.00    -0.348 C  
HETATM   26  O   UNL     1      -9.789  12.750  63.820  1.00  0.00    -0.286 OA 
HETATM   27  C   UNL     1     -12.093  12.120  63.222  1.00  0.00    -0.512 C  
HETATM   28  C   UNL     1     -10.563  13.637  64.636  1.00  0.00    -0.430 C  
ENDBRANCH  23  25
ENDBRANCH  22  23
BRANCH  22  29
HETATM   29  C   UNL     1     -10.690   8.721  65.835  1.00  0.00     1.592 C  
HETATM   30  C   UNL     1      -9.746   7.912  66.755  1.00  0.00    -0.303 C  
HETATM   31  C   UNL     1     -10.521   6.761  67.411  1.00  0.00    -0.330 C  
HETATM   32  C   UNL     1      -8.520   7.320  66.056  1.00  0.00    -0.148 C  
ENDBRANCH  22  29
ENDBRANCH  19  22
ENDBRANCH  10  18
ENDBRANCH   8  10
ENDBRANCH   5   6
BRANCH   5  33
HETATM   33  N   UNL     1      -8.851  11.549  69.570  1.00  0.00     0.092 N  
HETATM   34  H   UNL     1      -8.753  12.374  70.162  1.00  0.00     0.000 HD 
HETATM   35  O   UNL     1     -10.347  10.171  68.505  1.00  0.00    -0.165 OA 
HETATM   36  C   UNL     1     -10.120  11.150  69.212  1.00  0.00    -0.041 C  
BRANCH  36  37
HETATM   37  C   UNL     1     -11.248  12.055  69.745  1.00  0.00    -0.029 C  
BRANCH  37  38
HETATM   38  N   UNL     1     -11.477  13.175  68.828  1.00  0.00    -0.285 N  
HETATM   39  O   UNL     1     -10.356  14.595  70.205  1.00  0.00     0.087 OA 
HETATM   40  C   UNL     1     -10.980  14.413  69.150  1.00  0.00    -0.265 C  
HETATM   41  H   UNL     1     -11.997  13.036  67.962  1.00  0.00     0.000 HD 
BRANCH  40  42
HETATM   42  C   UNL     1     -11.159  15.567  68.157  1.00  0.00    -0.325 C  
BRANCH  42  43
HETATM   43  N   UNL     1     -10.260  16.734  68.326  1.00  0.00    -0.279 NA 
HETATM   44  C   UNL     1      -8.390  16.278  66.608  1.00  0.00    -0.280 C  
HETATM   45  C   UNL     1     -10.653  17.795  67.353  1.00  0.00    -0.335 C  
HETATM   46  O   UNL     1      -8.898  17.302  65.746  1.00  0.00    -0.530 OA 
HETATM   47  C   UNL     1     -10.313  17.447  65.891  1.00  0.00    -0.269 C  
HETATM   48  C   UNL     1      -8.827  16.440  68.080  1.00  0.00    -0.184 C  
ENDBRANCH  42  43
ENDBRANCH  40  42
ENDBRANCH  37  38
BRANCH  37  49
HETATM   49  C   UNL     1     -12.502  11.202  69.965  1.00  0.00    -0.292 C  
BRANCH  49  50
HETATM   50  C   UNL     1     -12.603  10.757  71.432  1.00  0.00    -0.516 C  
BRANCH  50  51
HETATM   51  C   UNL     1     -12.855   9.280  71.567  1.00  0.00    -0.427 A  
HETATM   52  C   UNL     1     -14.163   8.785  71.621  1.00  0.00    -0.414 A  
HETATM   53  C   UNL     1     -14.393   7.415  71.743  1.00  0.00    -0.586 A  
HETATM   54  C   UNL     1     -12.012   7.013  71.751  1.00  0.00    -0.361 A  
HETATM   55  C   UNL     1     -11.780   8.383  71.630  1.00  0.00    -0.354 A  
HETATM   56  C   UNL     1     -13.318   6.530  71.807  1.00  0.00     0.074 A  
ENDBRANCH  50  51
ENDBRANCH  49  50
ENDBRANCH  37  49
ENDBRANCH  36  37
ENDBRANCH   5  33
ENDBRANCH   3   5
TORSDOF 18
ENDMDL
MODEL       47
REMARK 921   NORMALIZED FREE ENERGY PREDICTED BY IDOCK:   -3.04 KCAL/MOL
REMARK 922        TOTAL FREE ENERGY PREDICTED BY IDOCK:   -9.88 KCAL/MOL
REMARK 923 INTER-LIGAND FREE ENERGY PREDICTED BY IDOCK:  -12.09 KCAL/MOL
REMARK 924 INTRA-LIGAND FREE ENERGY PREDICTED BY IDOCK:    2.22 KCAL/MOL
REMARK 927      BINDING AFFINITY PREDICTED BY RF-SCORE:    0.00 PKD
ROOT
HETATM    1  C   UNL     1     -11.334  15.553  71.432  1.00  0.00    -0.458 C  
HETATM    2  C   UNL     1     -12.320  14.382  71.471  1.00  0.00    -0.427 C  
HETATM    3  C   UNL     1     -12.441  13.604  70.142  1.00  0.00    -0.305 C  
HETATM    4  C   UNL     1     -13.691  14.899  71.920  1.00  0.00    -0.527 C  
ENDROOT
BRANCH   3   5
HETATM    5  C   UNL     1     -11.141  12.948  69.631  1.00  0.00     0.094 C  
BRANCH   5   6
HETATM    6  C   UNL     1     -11.181  11.432  69.319  1.00  0.00    -0.277 C  
HETATM    7  H   UNL     1      -9.258  11.211  70.023  1.00  0.00     0.000 HD 
HETATM    8  N   UNL     1     -10.099  10.705  69.748  1.00  0.00    -0.101 N  
HETATM    9  O   UNL     1     -12.177  10.908  68.822  1.00  0.00    -0.518 OA 
BRANCH   8  10
HETATM   10  C   UNL     1     -10.089   9.242  69.832  1.00  0.00    -0.209 C  
BRANCH  10  11
HETATM   11  C   UNL     1     -11.440   8.592  70.211  1.00  0.00    -0.084 C  
BRANCH  11  12
HETATM   12  C   UNL     1     -11.334   7.759  71.466  1.00  0.00    -0.289 A  
HETATM   13  C   UNL     1     -10.812   8.312  72.644  1.00  0.00    -0.381 A  
HETATM   14  C   UNL     1     -11.265   5.567  72.484  1.00  0.00    -0.330 A  
HETATM   15  C   UNL     1     -11.608   6.389  71.415  1.00  0.00    -0.368 A  
HETATM   16  C   UNL     1     -10.676   6.113  73.623  1.00  0.00    -0.234 A  
HETATM   17  C   UNL     1     -10.472   7.488  73.713  1.00  0.00    -0.149 A  
ENDBRANCH  11  12
ENDBRANCH  10  11
BRANCH  10  18
HETATM   18  C   UNL     1      -9.550   8.693  68.482  1.00  0.00    -0.154 C  
HETATM   19  N   UNL     1      -8.302   9.162  68.138  1.00  0.00    -0.120 N  
HETATM   20  O   UNL     1     -10.188   7.931  67.758  1.00  0.00    -0.190 OA 
HETATM   21  H   UNL     1      -7.818   9.764  68.804  1.00  0.00     0.000 HD 
BRANCH  19  22
HETATM   22  C   UNL     1      -7.626   8.851  66.879  1.00  0.00    -0.087 C  
BRANCH  22  23
HETATM   23  C   UNL     1      -8.386   9.640  65.803  1.00  0.00    -0.128 C  
HETATM   24  O   UNL     1      -8.880  10.744  66.027  1.00  0.00    -0.168 OA 
BRANCH  23  25
HETATM   25  C   UNL     1      -8.517   9.051  64.439  1.00  0.00    -0.174 C  
HETATM   26  O   UNL     1      -8.041   9.875  63.364  1.00  0.00    -0.139 OA 
HETATM   27  C   UNL     1      -8.302   7.584  64.228  1.00  0.00     0.093 C  
HETATM   28  C   UNL     1      -9.464   9.761  63.483  1.00  0.00     0.051 C  
ENDBRANCH  23  25
ENDBRANCH  22  23
BRANCH  22  29
HETATM   29  C   UNL     1      -7.575   7.344  66.567  1.00  0.00    -0.092 C  
HETATM   30  C   UNL     1      -6.624   6.473  67.420  1.00  0.00    -0.061 C  
HETATM   31  C   UNL     1      -6.760   5.000  67.010  1.00  0.00    -0.055 C  
HETATM   32  C   UNL     1      -5.144   6.855  67.326  1.00  0.00    -0.012 C  
ENDBRANCH  22  29
ENDBRANCH  19  22
ENDBRANCH  10  18
ENDBRANCH   8  10
ENDBRANCH   5   6
BRANCH   5  33
HETATM   33  N   UNL     1     -10.561  13.652  68.482  1.00  0.00    -0.246 N  
HETATM   34  H   UNL     1     -11.196  14.090  67.814  1.00  0.00     0.000 HD 
HETATM   35  O   UNL     1      -8.358  13.259  68.996  1.00  0.00     0.155 OA 
HETATM   36  C   UNL     1      -9.206  13.753  68.255  1.00  0.00    -0.204 C  
BRANCH  36  37
HETATM   37  C   UNL     1      -8.826  14.569  67.004  1.00  0.00    -0.237 C  
BRANCH  37  38
HETATM   38  N   UNL     1     -10.025  15.151  66.394  1.00  0.00    -0.258 N  
HETATM   39  O   UNL     1      -9.700  13.952  64.492  1.00  0.00    -0.007 OA 
HETATM   40  C   UNL     1     -10.382  14.769  65.125  1.00  0.00    -0.410 C  
HETATM   41  H   UNL     1     -10.587  15.832  66.906  1.00  0.00     0.000 HD 
BRANCH  40  42
HETATM   42  C   UNL     1     -11.673  15.326  64.517  1.00  0.00    -0.305 C  
BRANCH  42  43
HETATM   43  N   UNL     1     -12.771  14.355  64.286  1.00  0.00    -0.630 NA 
HETATM   44  C   UNL     1     -11.509  12.161  63.787  1.00  0.00    -0.465 C  
HETATM   45  C   UNL     1     -13.093  13.672  65.573  1.00  0.00    -0.104 C  
HETATM   46  O   UNL     1     -11.858  11.639  65.074  1.00  0.00    -0.114 OA 
HETATM   47  C   UNL     1     -12.002  12.686  66.036  1.00  0.00    -0.417 C  
HETATM   48  C   UNL     1     -12.447  13.290  63.307  1.00  0.00    -0.121 C  
ENDBRANCH  42  43
ENDBRANCH  40  42
ENDBRANCH  37  38
BRANCH  37  49
HETATM   49  C   UNL     1      -7.789  15.624  67.401  1.00  0.00    -0.210 C  
BRANCH  49  50
HETATM   50  C   UNL     1      -8.332  16.521  68.525  1.00  0.00    -0.210 C  
BRANCH  50  51
HETATM   51  C   UNL     1      -8.828  17.846  68.012  1.00  0.00    -0.268 A  
HETATM   52  C   UNL     1      -7.929  18.887  67.754  1.00  0.00    -0.275 A  
HETATM   53  C   UNL     1      -8.391  20.113  67.276  1.00  0.00    -0.394 A  
HETATM   54  C   UNL     1     -10.654  19.273  67.299  1.00  0.00    -0.590 A  
HETATM   55  C   UNL     1     -10.195  18.046  67.778  1.00  0.00    -0.385 A  
HETATM   56  C   UNL     1      -9.753  20.305  67.048  1.00  0.00    -0.598 A  
ENDBRANCH  50  51
ENDBRANCH  49  50
ENDBRANCH  37  49
ENDBRANCH  36  37
ENDBRANCH   5  33
ENDBRANCH   3   5
TORSDOF 18
ENDMDL
MODEL       48
REMARK 921   NORMALIZED FREE ENERGY PREDICTED BY IDOCK:   -2.76 KCAL/MOL
REMARK 922        TOTAL FREE ENERGY PREDICTED BY IDOCK:   -9.30 KCAL/MOL
REMARK 923 INTER-LIGAND FREE ENERGY PREDICTED BY IDOCK:  -10.12 KCAL/MOL
REMARK 924 INTRA-LIGAND FREE ENERGY PREDICTED BY IDOCK:    0.82 KCAL/MOL
REMARK 927      BINDING AFFINITY PREDICTED BY RF-SCORE:    0.00 PKD
ROOT
HETATM    1  C   UNL     1      -6.273   8.773  67.508  1.00  0.00    -0.052 C  
HETATM    2  C   UNL     1      -6.450   8.853  65.989  1.00  0.00    -0.061 C  
HETATM    3  C   UNL     1      -7.713   8.143  65.454  1.00  0.00    -0.101 C  
HETATM    4  C   UNL     1      -5.193   8.299  65.311  1.00  0.00    -0.032 C  
ENDROOT
BRANCH   3   5
HETATM    5  C   UNL     1      -9.058   8.679  65.991  1.00  0.00    -0.204 C  
BRANCH   5   6
HETATM    6  C   UNL     1     -10.021   7.659  66.647  1.00  0.00    -0.214 C  
HETATM    7  H   UNL     1      -8.426   6.503  67.250  1.00  0.00     0.000 HD 
HETATM    8  N   UNL     1      -9.427   6.658  67.372  1.00  0.00    -0.127 N  
HETATM    9  O   UNL     1     -11.240   7.816  66.609  1.00  0.00     0.420 OA 
BRANCH   8  10
HETATM   10  C   UNL     1     -10.153   5.798  68.312  1.00  0.00    -0.166 C  
BRANCH  10  11
HETATM   11  C   UNL     1      -9.359   4.582  68.842  1.00  0.00    -0.209 C  
BRANCH  11  12
HETATM   12  C   UNL     1      -8.639   3.850  67.735  1.00  0.00    -0.110 A  
HETATM   13  C   UNL     1      -7.300   4.143  67.444  1.00  0.00    -0.069 A  
HETATM   14  C   UNL     1      -8.769   2.521  65.720  1.00  0.00    -0.124 A  
HETATM   15  C   UNL     1      -9.351   2.992  66.892  1.00  0.00    -0.137 A  
HETATM   16  C   UNL     1      -7.461   2.877  65.398  1.00  0.00    -0.072 A  
HETATM   17  C   UNL     1      -6.718   3.668  66.272  1.00  0.00    -0.049 A  
ENDBRANCH  11  12
ENDBRANCH  10  11
BRANCH  10  18
HETATM   18  C   UNL     1     -10.670   6.693  69.472  1.00  0.00    -0.260 C  
HETATM   19  N   UNL     1      -9.922   7.829  69.687  1.00  0.00    -0.186 N  
HETATM   20  O   UNL     1     -11.642   6.404  70.167  1.00  0.00    -0.408 OA 
HETATM   21  H   UNL     1      -9.149   8.020  69.049  1.00  0.00     0.000 HD 
BRANCH  19  22
HETATM   22  C   UNL     1     -10.165   8.779  70.772  1.00  0.00    -0.211 C  
BRANCH  22  23
HETATM   23  C   UNL     1      -8.960   8.639  71.714  1.00  0.00    -0.237 C  
HETATM   24  O   UNL     1      -7.995   9.399  71.660  1.00  0.00    -0.262 OA 
BRANCH  23  25
HETATM   25  C   UNL     1      -8.971   7.551  72.735  1.00  0.00    -0.148 C  
HETATM   26  O   UNL     1      -8.142   7.778  73.886  1.00  0.00    -0.156 OA 
HETATM   27  C   UNL     1     -10.235   6.805  73.028  1.00  0.00    -0.235 C  
HETATM   28  C   UNL     1      -7.659   6.810  72.948  1.00  0.00    -0.094 C  
ENDBRANCH  23  25
ENDBRANCH  22  23
BRANCH  22  29
HETATM   29  C   UNL     1     -11.502   8.548  71.500  1.00  0.00    -0.350 C  
HETATM   30  C   UNL     1     -12.680   9.482  71.138  1.00  0.00    -0.371 C  
HETATM   31  C   UNL     1     -13.936   9.058  71.911  1.00  0.00    -0.445 C  
HETATM   32  C   UNL     1     -12.432  10.967  71.417  1.00  0.00    -0.436 C  
ENDBRANCH  22  29
ENDBRANCH  19  22
ENDBRANCH  10  18
ENDBRANCH   8  10
ENDBRANCH   5   6
BRANCH   5  33
HETATM   33  N   UNL     1      -8.897   9.825  66.892  1.00  0.00    -0.137 N  
HETATM   34  H   UNL     1      -8.494   9.660  67.815  1.00  0.00     0.000 HD 
HETATM   35  O   UNL     1      -9.754  11.417  65.478  1.00  0.00    -0.215 OA 
HETATM   36  C   UNL     1      -9.260  11.112  66.561  1.00  0.00    -0.179 C  
BRANCH  36  37
HETATM   37  C   UNL     1      -8.965  12.160  67.651  1.00  0.00    -0.178 C  
BRANCH  37  38
HETATM   38  N   UNL     1      -8.576  13.435  67.038  1.00  0.00    -0.341 N  
HETATM   39  O   UNL     1      -7.323  13.981  68.854  1.00  0.00    -0.121 OA 
HETATM   40  C   UNL     1      -7.740  14.278  67.726  1.00  0.00    -0.163 C  
HETATM   41  H   UNL     1      -8.923  13.690  66.114  1.00  0.00     0.000 HD 
BRANCH  40  42
HETATM   42  C   UNL     1      -7.279  15.577  67.055  1.00  0.00    -0.089 C  
BRANCH  42  43
HETATM   43  N   UNL     1      -6.445  16.488  67.876  1.00  0.00    -0.128 NA 
HETATM   44  C   UNL     1      -5.366  18.032  66.113  1.00  0.00    -0.186 C  
HETATM   45  C   UNL     1      -7.239  17.710  68.202  1.00  0.00    -0.218 C  
HETATM   46  O   UNL     1      -6.220  19.114  66.501  1.00  0.00    -0.173 OA 
HETATM   47  C   UNL     1      -7.473  18.634  66.992  1.00  0.00    -0.220 C  
HETATM   48  C   UNL     1      -5.207  16.952  67.205  1.00  0.00    -0.142 C  
ENDBRANCH  42  43
ENDBRANCH  40  42
ENDBRANCH  37  38
BRANCH  37  49
HETATM   49  C   UNL     1     -10.193  12.287  68.558  1.00  0.00    -0.213 C  
BRANCH  49  50
HETATM   50  C   UNL     1     -10.842  13.672  68.399  1.00  0.00    -0.274 C  
BRANCH  50  51
HETATM   51  C   UNL     1     -11.366  13.903  67.008  1.00  0.00    -0.343 A  
HETATM   52  C   UNL     1     -12.328  13.046  66.461  1.00  0.00    -0.175 A  
HETATM   53  C   UNL     1     -12.814  13.265  65.172  1.00  0.00    -0.376 A  
HETATM   54  C   UNL     1     -11.391  15.204  64.961  1.00  0.00    -0.381 A  
HETATM   55  C   UNL     1     -10.902  14.986  66.250  1.00  0.00    -0.333 A  
HETATM   56  C   UNL     1     -12.345  14.344  64.423  1.00  0.00    -0.428 A  
ENDBRANCH  50  51
ENDBRANCH  49  50
ENDBRANCH  37  49
ENDBRANCH  36  37
ENDBRANCH   5  33
ENDBRANCH   3   5
TORSDOF 18
ENDMDL
MODEL       49
REMARK 921   NORMALIZED FREE ENERGY PREDICTED BY IDOCK:   -2.48 KCAL/MOL
REMARK 922        TOTAL FREE ENERGY PREDICTED BY IDOCK:   -8.73 KCAL/MOL
REMARK 923 INTER-LIGAND FREE ENERGY PREDICTED BY IDOCK:   -7.39 KCAL/MOL
REMARK 924 INTRA-LIGAND FREE ENERGY PREDICTED BY IDOCK:   -1.34 KCAL/MOL
REMARK 927      BINDING AFFINITY PREDICTED BY RF-SCORE:    0.00 PKD
ROOT
HETATM    1  C   UNL     1     -11.401   7.208  68.613  1.00  0.00     0.214 C  
HETATM    2  C   UNL     1     -11.241   8.329  69.644  1.00  0.00     0.085 C  
HETATM    3  C   UNL     1      -9.899   9.089  69.560  1.00  0.00    -0.181 C  
HETATM    4  C   UNL     1     -11.444   7.748  71.048  1.00  0.00    -0.298 C  
ENDROOT
BRANCH   3   5
HETATM    5  C   UNL     1      -9.620   9.804  68.221  1.00  0.00    -0.143 C  
BRANCH   5   6
HETATM    6  C   UNL     1      -9.689  11.351  68.211  1.00  0.00    -0.202 C  
HETATM    7  H   UNL     1     -11.746  11.283  68.118  1.00  0.00     0.000 HD 
HETATM    8  N   UNL     1     -10.947  11.893  68.290  1.00  0.00    -0.215 N  
HETATM    9  O   UNL     1      -8.669  12.037  68.245  1.00  0.00    -0.174 OA 
BRANCH   8  10
HETATM   10  C   UNL     1     -11.204  13.301  68.607  1.00  0.00    -0.274 C  
BRANCH  10  11
HETATM   11  C   UNL     1     -10.833  13.732  70.045  1.00  0.00     0.411 C  
BRANCH  11  12
HETATM   12  C   UNL     1     -12.054  14.067  70.868  1.00  0.00    -0.404 A  
HETATM   13  C   UNL     1     -12.310  15.390  71.252  1.00  0.00    -0.446 A  
HETATM   14  C   UNL     1     -13.810  13.315  72.351  1.00  0.00    -0.630 A  
HETATM   15  C   UNL     1     -12.848  13.038  71.384  1.00  0.00    -0.385 A  
HETATM   16  C   UNL     1     -14.007  14.624  72.784  1.00  0.00    -0.263 A  
HETATM   17  C   UNL     1     -13.275  15.665  72.217  1.00  0.00    -0.558 A  
ENDBRANCH  11  12
ENDBRANCH  10  11
BRANCH  10  18
HETATM   18  C   UNL     1     -10.474  14.168  67.545  1.00  0.00    -0.249 C  
HETATM   19  N   UNL     1      -9.587  15.080  68.070  1.00  0.00    -0.206 N  
HETATM   20  O   UNL     1     -10.688  14.079  66.337  1.00  0.00    -0.276 OA 
HETATM   21  H   UNL     1      -9.437  15.073  69.079  1.00  0.00     0.000 HD 
BRANCH  19  22
HETATM   22  C   UNL     1      -8.847  16.058  67.274  1.00  0.00    -0.190 C  
BRANCH  22  23
HETATM   23  C   UNL     1      -7.368  15.833  67.624  1.00  0.00    -0.164 C  
HETATM   24  O   UNL     1      -6.623  15.161  66.913  1.00  0.00    -0.122 OA 
BRANCH  23  25
HETATM   25  C   UNL     1      -6.820  16.462  68.860  1.00  0.00    -0.180 C  
HETATM   26  O   UNL     1      -7.124  17.855  69.030  1.00  0.00    -0.260 OA 
HETATM   27  C   UNL     1      -6.765  15.687  70.140  1.00  0.00     0.072 C  
HETATM   28  C   UNL     1      -5.774  17.550  68.659  1.00  0.00    -0.162 C  
ENDBRANCH  23  25
ENDBRANCH  22  23
BRANCH  22  29
HETATM   29  C   UNL     1      -9.288  17.512  67.525  1.00  0.00    -0.246 C  
HETATM   30  C   UNL     1     -10.587  17.990  66.837  1.00  0.00    -0.291 C  
HETATM   31  C   UNL     1     -10.897  19.433  67.257  1.00  0.00    -0.561 C  
HETATM   32  C   UNL     1     -10.560  17.938  65.307  1.00  0.00     0.281 C  
ENDBRANCH  22  29
ENDBRANCH  19  22
ENDBRANCH  10  18
ENDBRANCH   8  10
ENDBRANCH   5   6
BRANCH   5  33
HETATM   33  N   UNL     1      -8.358   9.384  67.602  1.00  0.00    -0.118 N  
HETATM   34  H   UNL     1      -7.510   9.415  68.167  1.00  0.00     0.000 HD 
HETATM   35  O   UNL     1      -9.217   8.875  65.534  1.00  0.00    -0.220 OA 
HETATM   36  C   UNL     1      -8.257   8.949  66.299  1.00  0.00    -0.111 C  
BRANCH  36  37
HETATM   37  C   UNL     1      -6.837   8.524  65.875  1.00  0.00    -0.064 C  
BRANCH  37  38
HETATM   38  N   UNL     1      -6.439   7.305  66.585  1.00  0.00    -0.050 N  
HETATM   39  O   UNL     1      -5.337   8.523  68.156  1.00  0.00    -0.033 OA 
HETATM   40  C   UNL     1      -5.688   7.415  67.729  1.00  0.00    -0.030 C  
HETATM   41  H   UNL     1      -6.715   6.388  66.234  1.00  0.00     0.000 HD 
BRANCH  40  42
HETATM   42  C   UNL     1      -5.331   6.144  68.508  1.00  0.00    -0.007 C  
BRANCH  42  43
HETATM   43  N   UNL     1      -6.435   5.488  69.250  1.00  0.00    -0.037 NA 
HETATM   44  C   UNL     1      -6.690   3.228  68.033  1.00  0.00    -0.045 C  
HETATM   45  C   UNL     1      -5.855   4.639  70.333  1.00  0.00    -0.017 C  
HETATM   46  O   UNL     1      -6.080   2.540  69.130  1.00  0.00    -0.023 OA 
HETATM   47  C   UNL     1      -5.142   3.377  69.810  1.00  0.00    -0.004 C  
HETATM   48  C   UNL     1      -7.284   4.600  68.421  1.00  0.00    -0.064 C  
ENDBRANCH  42  43
ENDBRANCH  40  42
ENDBRANCH  37  38
BRANCH  37  49
HETATM   49  C   UNL     1      -6.806   8.361  64.352  1.00  0.00    -0.069 C  
BRANCH  49  50
HETATM   50  C   UNL     1      -7.899   7.384  63.890  1.00  0.00    -0.117 C  
BRANCH  50  51
HETATM   51  C   UNL     1      -7.431   5.954  63.900  1.00  0.00    -0.075 A  
HETATM   52  C   UNL     1      -6.234   5.595  63.269  1.00  0.00    -0.024 A  
HETATM   53  C   UNL     1      -5.801   4.269  63.283  1.00  0.00    -0.017 A  
HETATM   54  C   UNL     1      -7.748   3.644  64.566  1.00  0.00    -0.081 A  
HETATM   55  C   UNL     1      -8.184   4.969  64.552  1.00  0.00    -0.126 A  
HETATM   56  C   UNL     1      -6.558   3.294  63.931  1.00  0.00    -0.031 A  
ENDBRANCH  50  51
ENDBRANCH  49  50
ENDBRANCH  37  49
ENDBRANCH  36  37
ENDBRANCH   5  33
ENDBRANCH   3   5
TORSDOF 18
ENDMDL
MODEL       50
REMARK 921   NORMALIZED FREE ENERGY PREDICTED BY IDOCK:   -2.10 KCAL/MOL
REMARK 922        TOTAL FREE ENERGY PREDICTED BY IDOCK:   -7.94 KCAL/MOL
REMARK 923 INTER-LIGAND FREE ENERGY PREDICTED BY IDOCK:   -6.91 KCAL/MOL
REMARK 924 INTRA-LIGAND FREE ENERGY PREDICTED BY IDOCK:   -1.03 KCAL/MOL
REMARK 927      BINDING AFFINITY PREDICTED BY RF-SCORE:    0.00 PKD
ROOT
HETATM    1  C   UNL     1     -11.968  12.502  70.921  1.00  0.00     0.056 C  
HETATM    2  C   UNL     1     -12.525  11.209  71.523  1.00  0.00    -0.356 C  
HETATM    3  C   UNL     1     -12.325   9.956  70.642  1.00  0.00    -0.299 C  
HETATM    4  C   UNL     1     -14.010  11.409  71.846  1.00  0.00     0.628 C  
ENDROOT
BRANCH   3   5
HETATM    5  C   UNL     1     -10.860   9.590  70.325  1.00  0.00    -0.269 C  
BRANCH   5   6
HETATM    6  C   UNL     1     -10.604   8.268  69.561  1.00  0.00    -0.213 C  
HETATM    7  H   UNL     1      -8.568   8.561  69.684  1.00  0.00     0.000 HD 
HETATM    8  N   UNL     1      -9.292   7.877  69.467  1.00  0.00    -0.156 N  
HETATM    9  O   UNL     1     -11.535   7.565  69.170  1.00  0.00     0.248 OA 
BRANCH   8  10
HETATM   10  C   UNL     1      -8.876   6.528  69.071  1.00  0.00    -0.130 C  
BRANCH  10  11
HETATM   11  C   UNL     1      -7.350   6.278  69.082  1.00  0.00    -0.089 C  
BRANCH  11  12
HETATM   12  C   UNL     1      -6.575   7.524  69.436  1.00  0.00    -0.037 A  
HETATM   13  C   UNL     1      -6.826   8.199  70.639  1.00  0.00    -0.037 A  
HETATM   14  C   UNL     1      -5.207   9.378  68.703  1.00  0.00    -0.034 A  
HETATM   15  C   UNL     1      -5.719   8.101  68.494  1.00  0.00    -0.037 A  
HETATM   16  C   UNL     1      -5.522  10.074  69.868  1.00  0.00    -0.038 A  
HETATM   17  C   UNL     1      -6.311   9.475  70.847  1.00  0.00    -0.089 A  
ENDBRANCH  11  12
ENDBRANCH  10  11
BRANCH  10  18
HETATM   18  C   UNL     1      -9.628   5.514  69.977  1.00  0.00    -0.165 C  
HETATM   19  N   UNL     1      -9.093   5.378  71.239  1.00  0.00    -0.141 N  
HETATM   20  O   UNL     1     -10.597   4.858  69.599  1.00  0.00    -0.126 OA 
HETATM   21  H   UNL     1      -8.310   5.979  71.493  1.00  0.00     0.000 HD 
BRANCH  19  22
HETATM   22  C   UNL     1      -9.578   4.426  72.238  1.00  0.00    -0.147 C  
BRANCH  22  23
HETATM   23  C   UNL     1     -10.044   5.283  73.424  1.00  0.00    -0.180 C  
HETATM   24  O   UNL     1     -10.258   4.801  74.535  1.00  0.00    -0.218 OA 
BRANCH  23  25
HETATM   25  C   UNL     1     -10.228   6.749  73.222  1.00  0.00    -0.247 C  
HETATM   26  O   UNL     1      -9.069   7.457  72.757  1.00  0.00    -0.132 OA 
HETATM   27  C   UNL     1     -11.524   7.279  72.691  1.00  0.00    -0.304 C  
HETATM   28  C   UNL     1      -9.420   7.664  74.130  1.00  0.00     0.054 C  
ENDBRANCH  23  25
ENDBRANCH  22  23
BRANCH  22  29
HETATM   29  C   UNL     1      -8.524   3.383  72.652  1.00  0.00    -0.086 C  
HETATM   30  C   UNL     1      -7.966   2.457  71.547  1.00  0.00    -0.047 C  
HETATM   31  C   UNL     1      -6.887   1.538  72.135  1.00  0.00    -0.015 C  
HETATM   32  C   UNL     1      -9.013   1.577  70.857  1.00  0.00    -0.124 C  
ENDBRANCH  22  29
ENDBRANCH  19  22
ENDBRANCH  10  18
ENDBRANCH   8  10
ENDBRANCH   5   6
BRANCH   5  33
HETATM   33  N   UNL     1     -10.134  10.673  69.651  1.00  0.00    -0.420 N  
HETATM   34  H   UNL     1      -9.308  11.058  70.110  1.00  0.00     0.000 HD 
HETATM   35  O   UNL     1     -11.486  10.807  67.800  1.00  0.00    -0.460 OA 
HETATM   36  C   UNL     1     -10.508  11.198  68.434  1.00  0.00    -0.188 C  
BRANCH  36  37
HETATM   37  C   UNL     1      -9.576  12.304  67.902  1.00  0.00    -0.203 C  
BRANCH  37  38
HETATM   38  N   UNL     1      -9.958  13.604  68.463  1.00  0.00    -0.281 N  
HETATM   39  O   UNL     1      -8.696  14.697  66.921  1.00  0.00    -0.225 OA 
HETATM   40  C   UNL     1      -9.465  14.749  67.891  1.00  0.00    -0.201 C  
HETATM   41  H   UNL     1     -10.583  13.655  69.268  1.00  0.00     0.000 HD 
BRANCH  40  42
HETATM   42  C   UNL     1      -9.920  16.108  68.435  1.00  0.00    -0.230 C  
BRANCH  42  43
HETATM   43  N   UNL     1      -9.013  17.257  68.197  1.00  0.00    -0.246 NA 
HETATM   44  C   UNL     1     -10.107  18.454  66.191  1.00  0.00    -0.360 C  
HETATM   45  C   UNL     1      -9.520  18.440  68.954  1.00  0.00    -0.227 C  
HETATM   46  O   UNL     1     -10.568  19.510  67.040  1.00  0.00    -0.441 OA 
HETATM   47  C   UNL     1     -10.813  19.038  68.367  1.00  0.00     0.299 C  
HETATM   48  C   UNL     1      -8.912  17.670  66.777  1.00  0.00    -0.257 C  
ENDBRANCH  42  43
ENDBRANCH  40  42
ENDBRANCH  37  38
BRANCH  37  49
HETATM   49  C   UNL     1      -8.126  11.924  68.220  1.00  0.00    -0.154 C  
BRANCH  49  50
HETATM   50  C   UNL     1      -7.323  11.719  66.926  1.00  0.00    -0.104 C  
BRANCH  50  51
HETATM   51  C   UNL     1      -7.902  10.636  66.057  1.00  0.00    -0.156 A  
HETATM   52  C   UNL     1      -8.603  10.961  64.890  1.00  0.00    -0.029 A  
HETATM   53  C   UNL     1      -9.136   9.954  64.086  1.00  0.00    -0.294 A  
HETATM   54  C   UNL     1      -8.268   8.283  65.597  1.00  0.00    -0.134 A  
HETATM   55  C   UNL     1      -7.736   9.288  66.404  1.00  0.00    -0.093 A  
HETATM   56  C   UNL     1      -8.968   8.616  64.439  1.00  0.00     0.222 A  
ENDBRANCH  50  51
ENDBRANCH  49  50
ENDBRANCH  37  49
ENDBRANCH  36  37
ENDBRANCH   5  33
ENDBRANCH   3   5
TORSDOF 18
ENDMDL
MODEL       51
REMARK 921   NORMALIZED FREE ENERGY PREDICTED BY IDOCK:   -1.97 KCAL/MOL
REMARK 922        TOTAL FREE ENERGY PREDICTED BY IDOCK:   -7.68 KCAL/MOL
REMARK 923 INTER-LIGAND FREE ENERGY PREDICTED BY IDOCK:   -7.80 KCAL/MOL
REMARK 924 INTRA-LIGAND FREE ENERGY PREDICTED BY IDOCK:    0.12 KCAL/MOL
REMARK 927      BINDING AFFINITY PREDICTED BY RF-SCORE:    0.00 PKD
ROOT
HETATM    1  C   UNL     1      -5.605  11.697  71.021  1.00  0.00    -0.009 C  
HETATM    2  C   UNL     1      -6.304  12.851  70.297  1.00  0.00     0.122 C  
HETATM    3  C   UNL     1      -6.235  12.774  68.756  1.00  0.00    -0.075 C  
HETATM    4  C   UNL     1      -5.724  14.178  70.797  1.00  0.00    -0.192 C  
ENDROOT
BRANCH   3   5
HETATM    5  C   UNL     1      -6.878  11.523  68.120  1.00  0.00    -0.068 C  
BRANCH   5   6
HETATM    6  C   UNL     1      -6.082  10.197  68.194  1.00  0.00    -0.048 C  
HETATM    7  H   UNL     1      -7.269   9.543  69.746  1.00  0.00     0.000 HD 
HETATM    8  N   UNL     1      -6.578   9.251  69.056  1.00  0.00    -0.047 N  
HETATM    9  O   UNL     1      -5.137   9.975  67.439  1.00  0.00    -0.037 OA 
BRANCH   8  10
HETATM   10  C   UNL     1      -6.166   7.844  69.039  1.00  0.00    -0.039 C  
BRANCH  10  11
HETATM   11  C   UNL     1      -5.963   7.198  70.428  1.00  0.00    -0.024 C  
BRANCH  11  12
HETATM   12  C   UNL     1      -6.984   7.680  71.430  1.00  0.00    -0.053 A  
HETATM   13  C   UNL     1      -6.753   7.536  72.805  1.00  0.00    -0.065 A  
HETATM   14  C   UNL     1      -9.268   8.321  71.899  1.00  0.00    -0.272 A  
HETATM   15  C   UNL     1      -8.234   8.126  70.989  1.00  0.00    -0.114 A  
HETATM   16  C   UNL     1      -9.052   8.103  73.259  1.00  0.00    -0.327 A  
HETATM   17  C   UNL     1      -7.788   7.734  73.714  1.00  0.00    -0.207 A  
ENDBRANCH  11  12
ENDBRANCH  10  11
BRANCH  10  18
HETATM   18  C   UNL     1      -7.201   7.058  68.187  1.00  0.00    -0.091 C  
HETATM   19  N   UNL     1      -6.687   5.947  67.555  1.00  0.00    -0.057 N  
HETATM   20  O   UNL     1      -8.372   7.407  68.054  1.00  0.00    -0.122 OA 
HETATM   21  H   UNL     1      -5.715   5.700  67.739  1.00  0.00     0.000 HD 
BRANCH  19  22
HETATM   22  C   UNL     1      -7.448   5.100  66.638  1.00  0.00    -0.087 C  
BRANCH  22  23
HETATM   23  C   UNL     1      -7.768   3.824  67.432  1.00  0.00    -0.079 C  
HETATM   24  O   UNL     1      -6.888   3.065  67.833  1.00  0.00    -0.047 OA 
BRANCH  23  25
HETATM   25  C   UNL     1      -9.194   3.507  67.735  1.00  0.00    -0.184 C  
HETATM   26  O   UNL     1     -10.163   4.338  67.077  1.00  0.00    -0.123 OA 
HETATM   27  C   UNL     1      -9.628   2.086  67.917  1.00  0.00    -0.066 C  
HETATM   28  C   UNL     1      -9.981   4.577  68.477  1.00  0.00    -0.035 C  
ENDBRANCH  23  25
ENDBRANCH  22  23
BRANCH  22  29
HETATM   29  C   UNL     1      -6.702   4.795  65.325  1.00  0.00    -0.048 C  
HETATM   30  C   UNL     1      -6.405   5.985  64.383  1.00  0.00    -0.030 C  
HETATM   31  C   UNL     1      -5.603   5.498  63.169  1.00  0.00    -0.014 C  
HETATM   32  C   UNL     1      -7.645   6.720  63.867  1.00  0.00    -0.105 C  
ENDBRANCH  22  29
ENDBRANCH  19  22
ENDBRANCH  10  18
ENDBRANCH   8  10
ENDBRANCH   5   6
BRANCH   5  33
HETATM   33  N   UNL     1      -8.245  11.282  68.593  1.00  0.00    -0.149 N  
HETATM   34  H   UNL     1      -8.509  11.642  69.511  1.00  0.00     0.000 HD 
HETATM   35  O   UNL     1      -8.977  10.120  66.753  1.00  0.00    -0.132 OA 
HETATM   36  C   UNL     1      -9.193  10.595  67.866  1.00  0.00    -0.148 C  
BRANCH  36  37
HETATM   37  C   UNL     1     -10.572  10.494  68.547  1.00  0.00    -0.206 C  
BRANCH  37  38
HETATM   38  N   UNL     1     -10.691  11.502  69.605  1.00  0.00    -0.456 N  
HETATM   39  O   UNL     1     -12.941  11.199  69.708  1.00  0.00    -0.016 OA 
HETATM   40  C   UNL     1     -11.929  11.779  70.127  1.00  0.00    -0.339 C  
HETATM   41  H   UNL     1      -9.864  11.990  69.949  1.00  0.00     0.000 HD 
BRANCH  40  42
HETATM   42  C   UNL     1     -12.043  12.781  71.281  1.00  0.00     0.362 C  
BRANCH  42  43
HETATM   43  N   UNL     1     -12.025  14.219  70.916  1.00  0.00    -0.334 NA 
HETATM   44  C   UNL     1     -14.242  15.095  71.903  1.00  0.00    -0.579 C  
HETATM   45  C   UNL     1     -11.422  14.997  72.037  1.00  0.00    -0.268 C  
HETATM   46  O   UNL     1     -13.537  15.765  72.954  1.00  0.00    -0.546 OA 
HETATM   47  C   UNL     1     -12.325  15.083  73.283  1.00  0.00    -0.421 C  
HETATM   48  C   UNL     1     -13.366  14.801  70.666  1.00  0.00    -0.171 C  
ENDBRANCH  42  43
ENDBRANCH  40  42
ENDBRANCH  37  38
BRANCH  37  49
HETATM   49  C   UNL     1     -11.660  10.626  67.477  1.00  0.00     0.095 C  
BRANCH  49  50
HETATM   50  C   UNL     1     -11.045  11.020  66.124  1.00  0.00    -0.082 C  
BRANCH  50  51
HETATM   51  C   UNL     1     -11.234  12.479  65.812  1.00  0.00    -0.356 A  
HETATM   52  C   UNL     1     -10.170  13.241  65.315  1.00  0.00    -0.303 A  
HETATM   53  C   UNL     1     -10.350  14.594  65.024  1.00  0.00    -0.432 A  
HETATM   54  C   UNL     1     -12.658  14.439  65.713  1.00  0.00    -0.314 A  
HETATM   55  C   UNL     1     -12.481  13.087  66.007  1.00  0.00    -0.256 A  
HETATM   56  C   UNL     1     -11.593  15.192  65.223  1.00  0.00    -0.206 A  
ENDBRANCH  50  51
ENDBRANCH  49  50
ENDBRANCH  37  49
ENDBRANCH  36  37
ENDBRANCH   5  33
ENDBRANCH   3   5
TORSDOF 18
ENDMDL
MODEL       52
REMARK 921   NORMALIZED FREE ENERGY PREDICTED BY IDOCK:   -1.97 KCAL/MOL
REMARK 922        TOTAL FREE ENERGY PREDICTED BY IDOCK:   -7.68 KCAL/MOL
REMARK 923 INTER-LIGAND FREE ENERGY PREDICTED BY IDOCK:   -8.15 KCAL/MOL
REMARK 924 INTRA-LIGAND FREE ENERGY PREDICTED BY IDOCK:    0.47 KCAL/MOL
REMARK 927      BINDING AFFINITY PREDICTED BY RF-SCORE:    0.00 PKD
ROOT
HETATM    1  C   UNL     1     -12.118  12.912  71.353  1.00  0.00     0.380 C  
HETATM    2  C   UNL     1     -12.825  11.621  71.774  1.00  0.00    -0.418 C  
HETATM    3  C   UNL     1     -12.746  10.480  70.736  1.00  0.00    -0.471 C  
HETATM    4  C   UNL     1     -14.286  11.940  72.113  1.00  0.00     0.901 C  
ENDROOT
BRANCH   3   5
HETATM    5  C   UNL     1     -11.323   9.998  70.381  1.00  0.00    -0.320 C  
BRANCH   5   6
HETATM    6  C   UNL     1     -11.195   8.676  69.584  1.00  0.00     0.079 C  
HETATM    7  H   UNL     1      -9.702   9.492  68.423  1.00  0.00     0.000 HD 
HETATM    8  N   UNL     1     -10.163   8.621  68.682  1.00  0.00    -0.191 N  
HETATM    9  O   UNL     1     -11.909   7.707  69.836  1.00  0.00     0.165 OA 
BRANCH   8  10
HETATM   10  C   UNL     1      -9.687   7.375  68.072  1.00  0.00    -0.144 C  
BRANCH  10  11
HETATM   11  C   UNL     1      -8.228   7.405  67.564  1.00  0.00    -0.113 C  
BRANCH  11  12
HETATM   12  C   UNL     1      -8.039   6.543  66.338  1.00  0.00    -0.113 A  
HETATM   13  C   UNL     1      -9.116   5.823  65.803  1.00  0.00    -0.122 A  
HETATM   14  C   UNL     1      -6.533   5.344  64.875  1.00  0.00    -0.039 A  
HETATM   15  C   UNL     1      -6.754   6.333  65.828  1.00  0.00    -0.048 A  
HETATM   16  C   UNL     1      -7.598   4.579  64.402  1.00  0.00    -0.072 A  
HETATM   17  C   UNL     1      -8.893   4.835  64.848  1.00  0.00    -0.153 A  
ENDBRANCH  11  12
ENDBRANCH  10  11
BRANCH  10  18
HETATM   18  C   UNL     1      -9.913   6.229  69.096  1.00  0.00    -0.150 C  
HETATM   19  N   UNL     1      -9.186   6.357  70.259  1.00  0.00    -0.154 N  
HETATM   20  O   UNL     1     -10.648   5.266  68.883  1.00  0.00    -0.170 OA 
HETATM   21  H   UNL     1      -8.623   7.199  70.379  1.00  0.00     0.000 HD 
BRANCH  19  22
HETATM   22  C   UNL     1      -9.171   5.363  71.332  1.00  0.00    -0.146 C  
BRANCH  22  23
HETATM   23  C   UNL     1      -9.823   6.055  72.538  1.00  0.00    -0.164 C  
HETATM   24  O   UNL     1     -10.963   5.785  72.910  1.00  0.00    -0.241 OA 
BRANCH  23  25
HETATM   25  C   UNL     1      -9.038   7.079  73.287  1.00  0.00    -0.136 C  
HETATM   26  O   UNL     1      -9.697   8.340  73.480  1.00  0.00    -0.117 OA 
HETATM   27  C   UNL     1      -8.156   6.668  74.425  1.00  0.00    -0.136 C  
HETATM   28  C   UNL     1      -8.641   8.327  72.513  1.00  0.00    -0.208 C  
ENDBRANCH  23  25
ENDBRANCH  22  23
BRANCH  22  29
HETATM   29  C   UNL     1      -7.761   4.834  71.657  1.00  0.00    -0.096 C  
HETATM   30  C   UNL     1      -6.823   4.531  70.466  1.00  0.00    -0.037 C  
HETATM   31  C   UNL     1      -5.451   4.083  70.987  1.00  0.00    -0.008 C  
HETATM   32  C   UNL     1      -7.336   3.460  69.500  1.00  0.00    -0.045 C  
ENDBRANCH  22  29
ENDBRANCH  19  22
ENDBRANCH  10  18
ENDBRANCH   8  10
ENDBRANCH   5   6
BRANCH   5  33
HETATM   33  N   UNL     1     -10.520  11.030  69.717  1.00  0.00    -0.450 N  
HETATM   34  H   UNL     1      -9.593  11.235  70.091  1.00  0.00     0.000 HD 
HETATM   35  O   UNL     1     -12.048  11.570  68.090  1.00  0.00    -0.604 OA 
HETATM   36  C   UNL     1     -10.949  11.738  68.616  1.00  0.00    -0.224 C  
BRANCH  36  37
HETATM   37  C   UNL     1      -9.923  12.747  68.065  1.00  0.00    -0.225 C  
BRANCH  37  38
HETATM   38  N   UNL     1     -10.146  14.072  68.655  1.00  0.00    -0.253 N  
HETATM   39  O   UNL     1      -8.672  15.018  67.207  1.00  0.00    -0.178 OA 
HETATM   40  C   UNL     1      -9.470  15.151  68.145  1.00  0.00    -0.201 C  
HETATM   41  H   UNL     1     -10.795  14.188  69.433  1.00  0.00     0.000 HD 
BRANCH  40  42
HETATM   42  C   UNL     1      -9.756  16.545  68.716  1.00  0.00    -0.251 C  
BRANCH  42  43
HETATM   43  N   UNL     1      -8.959  17.666  68.162  1.00  0.00    -0.261 NA 
HETATM   44  C   UNL     1     -10.179  18.209  65.954  1.00  0.00    -0.234 C  
HETATM   45  C   UNL     1      -9.563  18.956  68.608  1.00  0.00    -0.391 C  
HETATM   46  O   UNL     1     -10.725  19.405  66.521  1.00  0.00    -0.438 OA 
HETATM   47  C   UNL     1     -10.911  19.272  67.932  1.00  0.00    -0.211 C  
HETATM   48  C   UNL     1      -8.912  17.707  66.681  1.00  0.00    -0.265 C  
ENDBRANCH  42  43
ENDBRANCH  40  42
ENDBRANCH  37  38
BRANCH  37  49
HETATM   49  C   UNL     1      -8.513  12.210  68.328  1.00  0.00    -0.176 C  
BRANCH  49  50
HETATM   50  C   UNL     1      -7.774  11.958  67.004  1.00  0.00    -0.146 C  
BRANCH  50  51
HETATM   51  C   UNL     1      -8.718  11.702  65.861  1.00  0.00     0.002 A  
HETATM   52  C   UNL     1      -9.422  12.759  65.272  1.00  0.00     0.217 A  
HETATM   53  C   UNL     1     -10.294  12.518  64.211  1.00  0.00    -0.396 A  
HETATM   54  C   UNL     1      -9.765  10.165  64.304  1.00  0.00    -0.326 A  
HETATM   55  C   UNL     1      -8.894  10.402  65.367  1.00  0.00    -0.197 A  
HETATM   56  C   UNL     1     -10.465  11.222  63.727  1.00  0.00    -0.459 A  
ENDBRANCH  50  51
ENDBRANCH  49  50
ENDBRANCH  37  49
ENDBRANCH  36  37
ENDBRANCH   5  33
ENDBRANCH   3   5
TORSDOF 18
ENDMDL
MODEL       53
REMARK 921   NORMALIZED FREE ENERGY PREDICTED BY IDOCK:   -1.73 KCAL/MOL
REMARK 922        TOTAL FREE ENERGY PREDICTED BY IDOCK:   -7.18 KCAL/MOL
REMARK 923 INTER-LIGAND FREE ENERGY PREDICTED BY IDOCK:   -7.57 KCAL/MOL
REMARK 924 INTRA-LIGAND FREE ENERGY PREDICTED BY IDOCK:    0.40 KCAL/MOL
REMARK 927      BINDING AFFINITY PREDICTED BY RF-SCORE:    0.00 PKD
ROOT
HETATM    1  C   UNL     1     -10.120  11.313  67.703  1.00  0.00    -0.201 C  
HETATM    2  C   UNL     1      -9.812  10.407  66.508  1.00  0.00    -0.256 C  
HETATM    3  C   UNL     1      -8.406  10.605  65.901  1.00  0.00    -0.161 C  
HETATM    4  C   UNL     1     -10.894  10.605  65.440  1.00  0.00     0.005 C  
ENDROOT
BRANCH   3   5
HETATM    5  C   UNL     1      -7.223  10.337  66.855  1.00  0.00    -0.093 C  
BRANCH   5   6
HETATM    6  C   UNL     1      -6.456  11.565  67.402  1.00  0.00    -0.094 C  
HETATM    7  H   UNL     1      -8.201  12.658  67.468  1.00  0.00     0.000 HD 
HETATM    8  N   UNL     1      -7.230  12.635  67.776  1.00  0.00    -0.112 N  
HETATM    9  O   UNL     1      -5.241  11.528  67.592  1.00  0.00    -0.046 OA 
BRANCH   8  10
HETATM   10  C   UNL     1      -6.735  13.745  68.595  1.00  0.00    -0.099 C  
BRANCH  10  11
HETATM   11  C   UNL     1      -5.523  14.507  68.012  1.00  0.00    -0.122 C  
BRANCH  11  12
HETATM   12  C   UNL     1      -5.605  15.991  68.281  1.00  0.00    -0.110 A  
HETATM   13  C   UNL     1      -5.700  16.901  67.218  1.00  0.00    -0.189 A  
HETATM   14  C   UNL     1      -5.235  17.833  69.803  1.00  0.00    -0.198 A  
HETATM   15  C   UNL     1      -5.425  16.473  69.580  1.00  0.00    -0.157 A  
HETATM   16  C   UNL     1      -5.256  18.724  68.731  1.00  0.00    -0.189 A  
HETATM   17  C   UNL     1      -5.512  18.261  67.443  1.00  0.00    -0.146 A  
ENDBRANCH  11  12
ENDBRANCH  10  11
BRANCH  10  18
HETATM   18  C   UNL     1      -7.929  14.699  68.873  1.00  0.00    -0.149 C  
HETATM   19  N   UNL     1      -8.614  15.093  67.745  1.00  0.00    -0.148 N  
HETATM   20  O   UNL     1      -8.226  15.103  69.997  1.00  0.00     0.005 OA 
HETATM   21  H   UNL     1      -8.332  14.691  66.851  1.00  0.00     0.000 HD 
BRANCH  19  22
HETATM   22  C   UNL     1      -9.720  16.049  67.748  1.00  0.00    -0.221 C  
BRANCH  22  23
HETATM   23  C   UNL     1     -10.994  15.199  67.639  1.00  0.00    -0.308 C  
HETATM   24  O   UNL     1     -11.776  15.067  68.579  1.00  0.00    -0.320 OA 
BRANCH  23  25
HETATM   25  C   UNL     1     -11.297  14.524  66.344  1.00  0.00    -0.349 C  
HETATM   26  O   UNL     1     -12.601  14.788  65.801  1.00  0.00    -0.089 OA 
HETATM   27  C   UNL     1     -10.226  14.359  65.311  1.00  0.00    -0.416 C  
HETATM   28  C   UNL     1     -12.410  13.485  66.366  1.00  0.00    -0.357 C  
ENDBRANCH  23  25
ENDBRANCH  22  23
BRANCH  22  29
HETATM   29  C   UNL     1      -9.624  17.100  66.626  1.00  0.00    -0.279 C  
HETATM   30  C   UNL     1      -9.942  18.567  66.996  1.00  0.00    -0.365 C  
HETATM   31  C   UNL     1      -9.728  19.469  65.772  1.00  0.00    -0.099 C  
HETATM   32  C   UNL     1     -11.361  18.806  67.518  1.00  0.00     0.431 C  
ENDBRANCH  22  29
ENDBRANCH  19  22
ENDBRANCH  10  18
ENDBRANCH   8  10
ENDBRANCH   5   6
BRANCH   5  33
HETATM   33  N   UNL     1      -7.582   9.465  67.979  1.00  0.00    -0.083 N  
HETATM   34  H   UNL     1      -7.412   9.804  68.926  1.00  0.00     0.000 HD 
HETATM   35  O   UNL     1      -8.380   7.712  66.729  1.00  0.00    -0.119 OA 
HETATM   36  C   UNL     1      -8.137   8.214  67.825  1.00  0.00    -0.127 C  
BRANCH  36  37
HETATM   37  C   UNL     1      -8.465   7.493  69.147  1.00  0.00    -0.136 C  
BRANCH  37  38
HETATM   38  N   UNL     1      -8.158   6.063  69.036  1.00  0.00    -0.106 N  
HETATM   39  O   UNL     1      -5.949   6.512  68.740  1.00  0.00    -0.020 OA 
HETATM   40  C   UNL     1      -6.857   5.674  68.837  1.00  0.00    -0.058 C  
HETATM   41  H   UNL     1      -8.901   5.368  69.105  1.00  0.00     0.000 HD 
BRANCH  40  42
HETATM   42  C   UNL     1      -6.527   4.178  68.790  1.00  0.00    -0.037 C  
BRANCH  42  43
HETATM   43  N   UNL     1      -6.047   3.644  67.493  1.00  0.00    -0.028 NA 
HETATM   44  C   UNL     1      -7.560   1.589  67.115  1.00  0.00    -0.059 C  
HETATM   45  C   UNL     1      -6.868   4.231  66.393  1.00  0.00    -0.055 C  
HETATM   46  O   UNL     1      -8.293   2.284  66.101  1.00  0.00    -0.086 OA 
HETATM   47  C   UNL     1      -8.311   3.692  66.347  1.00  0.00    -0.105 C  
HETATM   48  C   UNL     1      -6.151   2.171  67.363  1.00  0.00    -0.024 C  
ENDBRANCH  42  43
ENDBRANCH  40  42
ENDBRANCH  37  38
BRANCH  37  49
HETATM   49  C   UNL     1      -7.701   8.178  70.285  1.00  0.00    -0.085 C  
BRANCH  49  50
HETATM   50  C   UNL     1      -8.315   7.812  71.646  1.00  0.00    -0.125 C  
BRANCH  50  51
HETATM   51  C   UNL     1      -9.753   8.237  71.759  1.00  0.00    -0.278 A  
HETATM   52  C   UNL     1     -10.119   9.569  71.530  1.00  0.00     0.009 A  
HETATM   53  C   UNL     1     -11.454   9.959  71.633  1.00  0.00    -0.181 A  
HETATM   54  C   UNL     1     -12.078   7.694  72.186  1.00  0.00    -0.325 A  
HETATM   55  C   UNL     1     -10.743   7.300  72.086  1.00  0.00    -0.252 A  
HETATM   56  C   UNL     1     -12.433   9.021  71.961  1.00  0.00    -0.460 A  
ENDBRANCH  50  51
ENDBRANCH  49  50
ENDBRANCH  37  49
ENDBRANCH  36  37
ENDBRANCH   5  33
ENDBRANCH   3   5
TORSDOF 18
ENDMDL
MODEL       54
REMARK 921   NORMALIZED FREE ENERGY PREDICTED BY IDOCK:   -1.49 KCAL/MOL
REMARK 922        TOTAL FREE ENERGY PREDICTED BY IDOCK:   -6.69 KCAL/MOL
REMARK 923 INTER-LIGAND FREE ENERGY PREDICTED BY IDOCK:   -8.61 KCAL/MOL
REMARK 924 INTRA-LIGAND FREE ENERGY PREDICTED BY IDOCK:    1.92 KCAL/MOL
REMARK 927      BINDING AFFINITY PREDICTED BY RF-SCORE:    0.00 PKD
ROOT
HETATM    1  C   UNL     1      -5.159  12.253  67.089  1.00  0.00    -0.041 C  
HETATM    2  C   UNL     1      -5.995  11.001  66.813  1.00  0.00    -0.099 C  
HETATM    3  C   UNL     1      -6.514  10.286  68.080  1.00  0.00    -0.060 C  
HETATM    4  C   UNL     1      -5.177  10.036  65.947  1.00  0.00    -0.042 C  
ENDROOT
BRANCH   3   5
HETATM    5  C   UNL     1      -7.435  11.126  68.990  1.00  0.00    -0.124 C  
BRANCH   5   6
HETATM    6  C   UNL     1      -7.957  12.472  68.430  1.00  0.00    -0.139 C  
HETATM    7  H   UNL     1      -8.100  11.660  66.542  1.00  0.00     0.000 HD 
HETATM    8  N   UNL     1      -8.368  12.455  67.121  1.00  0.00    -0.181 N  
HETATM    9  O   UNL     1      -8.096  13.455  69.156  1.00  0.00     0.188 OA 
BRANCH   8  10
HETATM   10  C   UNL     1      -9.171  13.519  66.511  1.00  0.00    -0.173 C  
BRANCH  10  11
HETATM   11  C   UNL     1     -10.675  13.499  66.869  1.00  0.00    -0.274 C  
BRANCH  11  12
HETATM   12  C   UNL     1     -11.549  13.434  65.639  1.00  0.00    -0.350 A  
HETATM   13  C   UNL     1     -12.119  12.218  65.237  1.00  0.00    -0.361 A  
HETATM   14  C   UNL     1     -12.240  14.431  63.548  1.00  0.00     0.335 A  
HETATM   15  C   UNL     1     -11.662  14.551  64.808  1.00  0.00    -0.425 A  
HETATM   16  C   UNL     1     -12.737  13.200  63.123  1.00  0.00     0.204 A  
HETATM   17  C   UNL     1     -12.699  12.100  63.977  1.00  0.00    -0.452 A  
ENDBRANCH  11  12
ENDBRANCH  10  11
BRANCH  10  18
HETATM   18  C   UNL     1      -8.515  14.879  66.877  1.00  0.00    -0.223 C  
HETATM   19  N   UNL     1      -9.207  15.607  67.819  1.00  0.00    -0.193 N  
HETATM   20  O   UNL     1      -7.484  15.296  66.351  1.00  0.00     0.273 OA 
HETATM   21  H   UNL     1     -10.036  15.183  68.235  1.00  0.00     0.000 HD 
BRANCH  19  22
HETATM   22  C   UNL     1      -8.829  16.949  68.260  1.00  0.00    -0.228 C  
BRANCH  22  23
HETATM   23  C   UNL     1     -10.029  17.844  67.915  1.00  0.00    -0.329 C  
HETATM   24  O   UNL     1     -10.861  18.177  68.757  1.00  0.00     0.060 OA 
BRANCH  23  25
HETATM   25  C   UNL     1     -10.179  18.334  66.514  1.00  0.00    -0.394 C  
HETATM   26  O   UNL     1      -9.125  19.190  66.045  1.00  0.00    -0.442 OA 
HETATM   27  C   UNL     1     -10.756  17.440  65.461  1.00  0.00    -0.081 C  
HETATM   28  C   UNL     1     -10.371  19.833  66.338  1.00  0.00    -0.508 C  
ENDBRANCH  23  25
ENDBRANCH  22  23
BRANCH  22  29
HETATM   29  C   UNL     1      -7.523  17.458  67.624  1.00  0.00    -0.194 C  
HETATM   30  C   UNL     1      -6.567  18.278  68.522  1.00  0.00    -0.225 C  
HETATM   31  C   UNL     1      -5.298  18.637  67.737  1.00  0.00    -0.168 C  
HETATM   32  C   UNL     1      -7.162  19.575  69.077  1.00  0.00    -0.397 C  
ENDBRANCH  22  29
ENDBRANCH  19  22
ENDBRANCH  10  18
ENDBRANCH   8  10
ENDBRANCH   5   6
BRANCH   5  33
HETATM   33  N   UNL     1      -8.572  10.360  69.514  1.00  0.00    -0.326 N  
HETATM   34  H   UNL     1      -9.497  10.790  69.487  1.00  0.00     0.000 HD 
HETATM   35  O   UNL     1      -7.391   8.487  70.121  1.00  0.00    -0.049 OA 
HETATM   36  C   UNL     1      -8.458   9.093  70.041  1.00  0.00    -0.157 C  
BRANCH  36  37
HETATM   37  C   UNL     1      -9.791   8.468  70.497  1.00  0.00    -0.180 C  
BRANCH  37  38
HETATM   38  N   UNL     1     -10.637   9.484  71.131  1.00  0.00    -0.332 N  
HETATM   39  O   UNL     1     -12.240   7.937  71.584  1.00  0.00    -0.287 OA 
HETATM   40  C   UNL     1     -11.851   9.111  71.652  1.00  0.00    -0.372 C  
HETATM   41  H   UNL     1     -10.328  10.455  71.183  1.00  0.00     0.000 HD 
BRANCH  40  42
HETATM   42  C   UNL     1     -12.703  10.160  72.375  1.00  0.00     0.117 C  
BRANCH  42  43
HETATM   43  N   UNL     1     -13.602  10.983  71.530  1.00  0.00     0.043 NA 
HETATM   44  C   UNL     1     -12.491  13.311  71.597  1.00  0.00    -0.053 C  
HETATM   45  C   UNL     1     -13.091  10.974  70.127  1.00  0.00     0.214 C  
HETATM   46  O   UNL     1     -12.027  13.155  70.251  1.00  0.00    -0.335 OA 
HETATM   47  C   UNL     1     -11.791  11.781  69.940  1.00  0.00    -0.348 C  
HETATM   48  C   UNL     1     -13.693  12.405  71.941  1.00  0.00     0.024 C  
ENDBRANCH  42  43
ENDBRANCH  40  42
ENDBRANCH  37  38
BRANCH  37  49
HETATM   49  C   UNL     1     -10.462   7.803  69.291  1.00  0.00    -0.221 C  
BRANCH  49  50
HETATM   50  C   UNL     1     -10.419   6.272  69.423  1.00  0.00    -0.298 C  
BRANCH  50  51
HETATM   51  C   UNL     1     -10.187   5.590  68.103  1.00  0.00    -0.232 A  
HETATM   52  C   UNL     1     -10.898   5.987  66.965  1.00  0.00    -0.413 A  
HETATM   53  C   UNL     1     -10.678   5.353  65.742  1.00  0.00     0.158 A  
HETATM   54  C   UNL     1      -9.027   3.925  66.774  1.00  0.00    -0.144 A  
HETATM   55  C   UNL     1      -9.246   4.556  67.999  1.00  0.00    -0.166 A  
HETATM   56  C   UNL     1      -9.742   4.323  65.647  1.00  0.00    -0.207 A  
ENDBRANCH  50  51
ENDBRANCH  49  50
ENDBRANCH  37  49
ENDBRANCH  36  37
ENDBRANCH   5  33
ENDBRANCH   3   5
TORSDOF 18
ENDMDL
MODEL       55
REMARK 921   NORMALIZED FREE ENERGY PREDICTED BY IDOCK:   -1.34 KCAL/MOL
REMARK 922        TOTAL FREE ENERGY PREDICTED BY IDOCK:   -6.38 KCAL/MOL
REMARK 923 INTER-LIGAND FREE ENERGY PREDICTED BY IDOCK:   -5.16 KCAL/MOL
REMARK 924 INTRA-LIGAND FREE ENERGY PREDICTED BY IDOCK:   -1.22 KCAL/MOL
REMARK 927      BINDING AFFINITY PREDICTED BY RF-SCORE:    0.00 PKD
ROOT
HETATM    1  C   UNL     1     -11.871   7.089  68.375  1.00  0.00     1.250 C  
HETATM    2  C   UNL     1     -11.428   8.032  69.497  1.00  0.00     0.409 C  
HETATM    3  C   UNL     1      -9.899   8.216  69.611  1.00  0.00    -0.184 C  
HETATM    4  C   UNL     1     -12.012   7.536  70.825  1.00  0.00    -0.224 C  
ENDROOT
BRANCH   3   5
HETATM    5  C   UNL     1      -9.203   8.805  68.365  1.00  0.00    -0.137 C  
BRANCH   5   6
HETATM    6  C   UNL     1      -9.285  10.338  68.160  1.00  0.00    -0.136 C  
HETATM    7  H   UNL     1     -11.329  10.224  67.933  1.00  0.00     0.000 HD 
HETATM    8  N   UNL     1     -10.550  10.864  68.083  1.00  0.00    -0.185 N  
HETATM    9  O   UNL     1      -8.275  11.040  68.182  1.00  0.00    -0.114 OA 
BRANCH   8  10
HETATM   10  C   UNL     1     -10.841  12.295  68.207  1.00  0.00    -0.225 C  
BRANCH  10  11
HETATM   11  C   UNL     1     -10.676  12.883  69.627  1.00  0.00     0.414 C  
BRANCH  11  12
HETATM   12  C   UNL     1     -11.894  12.639  70.485  1.00  0.00    -0.140 A  
HETATM   13  C   UNL     1     -12.555  13.710  71.102  1.00  0.00    -0.452 A  
HETATM   14  C   UNL     1     -13.220  11.093  71.788  1.00  0.00    -0.486 A  
HETATM   15  C   UNL     1     -12.273  11.330  70.797  1.00  0.00    -0.479 A  
HETATM   16  C   UNL     1     -13.819  12.163  72.452  1.00  0.00     0.139 A  
HETATM   17  C   UNL     1     -13.504  13.471  72.092  1.00  0.00    -0.631 A  
ENDBRANCH  11  12
ENDBRANCH  10  11
BRANCH  10  18
HETATM   18  C   UNL     1      -9.962  13.049  67.171  1.00  0.00    -0.235 C  
HETATM   19  N   UNL     1      -9.126  13.996  67.720  1.00  0.00    -0.184 N  
HETATM   20  O   UNL     1     -10.023  12.850  65.959  1.00  0.00    -0.267 OA 
HETATM   21  H   UNL     1      -9.105  14.082  68.735  1.00  0.00     0.000 HD 
BRANCH  19  22
HETATM   22  C   UNL     1      -8.268  14.886  66.938  1.00  0.00    -0.143 C  
BRANCH  22  23
HETATM   23  C   UNL     1      -6.860  14.716  67.529  1.00  0.00    -0.149 C  
HETATM   24  O   UNL     1      -6.064  13.885  67.096  1.00  0.00    -0.213 OA 
BRANCH  23  25
HETATM   25  C   UNL     1      -6.445  15.599  68.657  1.00  0.00    -0.107 C  
HETATM   26  O   UNL     1      -6.223  14.934  69.911  1.00  0.00    -0.127 OA 
HETATM   27  C   UNL     1      -5.532  16.760  68.410  1.00  0.00    -0.121 C  
HETATM   28  C   UNL     1      -7.420  15.716  69.820  1.00  0.00    -0.046 C  
ENDBRANCH  23  25
ENDBRANCH  22  23
BRANCH  22  29
HETATM   29  C   UNL     1      -8.731  16.354  66.954  1.00  0.00    -0.233 C  
HETATM   30  C   UNL     1     -10.202  16.640  66.572  1.00  0.00    -0.314 C  
HETATM   31  C   UNL     1     -10.493  18.140  66.710  1.00  0.00    -0.363 C  
HETATM   32  C   UNL     1     -10.593  16.210  65.155  1.00  0.00    -0.366 C  
ENDBRANCH  22  29
ENDBRANCH  19  22
ENDBRANCH  10  18
ENDBRANCH   8  10
ENDBRANCH   5   6
BRANCH   5  33
HETATM   33  N   UNL     1      -7.803   8.386  68.243  1.00  0.00    -0.109 N  
HETATM   34  H   UNL     1      -7.209   8.441  69.071  1.00  0.00     0.000 HD 
HETATM   35  O   UNL     1      -7.873   7.818  66.019  1.00  0.00    -0.092 OA 
HETATM   36  C   UNL     1      -7.246   7.922  67.072  1.00  0.00    -0.090 C  
BRANCH  36  37
HETATM   37  C   UNL     1      -5.767   7.505  67.188  1.00  0.00    -0.031 C  
BRANCH  37  38
HETATM   38  N   UNL     1      -5.551   6.735  68.417  1.00  0.00    -0.016 N  
HETATM   39  O   UNL     1      -5.208   8.640  69.608  1.00  0.00    -0.030 OA 
HETATM   40  C   UNL     1      -5.282   7.404  69.584  1.00  0.00    -0.015 C  
HETATM   41  H   UNL     1      -5.601   5.716  68.404  1.00  0.00     0.000 HD 
BRANCH  40  42
HETATM   42  C   UNL     1      -5.126   6.601  70.881  1.00  0.00    -0.018 C  
BRANCH  42  43
HETATM   43  N   UNL     1      -6.020   6.973  72.004  1.00  0.00    -0.038 NA 
HETATM   44  C   UNL     1      -8.160   5.617  71.514  1.00  0.00    -0.118 C  
HETATM   45  C   UNL     1      -5.855   5.980  73.106  1.00  0.00    -0.038 C  
HETATM   46  O   UNL     1      -7.859   4.711  72.582  1.00  0.00    -0.085 OA 
HETATM   47  C   UNL     1      -6.449   4.596  72.782  1.00  0.00    -0.038 C  
HETATM   48  C   UNL     1      -7.462   6.987  71.656  1.00  0.00    -0.088 C  
ENDBRANCH  42  43
ENDBRANCH  40  42
ENDBRANCH  37  38
BRANCH  37  49
HETATM   49  C   UNL     1      -5.372   6.732  65.925  1.00  0.00    -0.022 C  
BRANCH  49  50
HETATM   50  C   UNL     1      -6.483   5.748  65.524  1.00  0.00    -0.043 C  
BRANCH  50  51
HETATM   51  C   UNL     1      -6.467   4.496  66.358  1.00  0.00    -0.041 A  
HETATM   52  C   UNL     1      -7.662   3.838  66.672  1.00  0.00    -0.088 A  
HETATM   53  C   UNL     1      -7.643   2.675  67.442  1.00  0.00    -0.061 A  
HETATM   54  C   UNL     1      -5.237   2.805  67.587  1.00  0.00    -0.012 A  
HETATM   55  C   UNL     1      -5.253   3.969  66.818  1.00  0.00    -0.012 A  
HETATM   56  C   UNL     1      -6.431   2.159  67.899  1.00  0.00    -0.029 A  
ENDBRANCH  50  51
ENDBRANCH  49  50
ENDBRANCH  37  49
ENDBRANCH  36  37
ENDBRANCH   5  33
ENDBRANCH   3   5
TORSDOF 18
ENDMDL
MODEL       56
REMARK 921   NORMALIZED FREE ENERGY PREDICTED BY IDOCK:   -1.21 KCAL/MOL
REMARK 922        TOTAL FREE ENERGY PREDICTED BY IDOCK:   -6.12 KCAL/MOL
REMARK 923 INTER-LIGAND FREE ENERGY PREDICTED BY IDOCK:   -6.73 KCAL/MOL
REMARK 924 INTRA-LIGAND FREE ENERGY PREDICTED BY IDOCK:    0.60 KCAL/MOL
REMARK 927      BINDING AFFINITY PREDICTED BY RF-SCORE:    0.00 PKD
ROOT
HETATM    1  C   UNL     1      -8.435   9.609  65.323  1.00  0.00    -0.155 C  
HETATM    2  C   UNL     1      -7.271  10.061  66.208  1.00  0.00    -0.106 C  
HETATM    3  C   UNL     1      -7.604  11.242  67.147  1.00  0.00    -0.137 C  
HETATM    4  C   UNL     1      -6.071  10.402  65.319  1.00  0.00    -0.130 C  
ENDROOT
BRANCH   3   5
HETATM    5  C   UNL     1      -8.737  10.988  68.164  1.00  0.00    -0.141 C  
BRANCH   5   6
HETATM    6  C   UNL     1     -10.107  11.653  67.886  1.00  0.00    -0.187 C  
HETATM    7  H   UNL     1      -9.463  13.404  68.760  1.00  0.00     0.000 HD 
HETATM    8  N   UNL     1     -10.192  12.991  68.180  1.00  0.00    -0.233 N  
HETATM    9  O   UNL     1     -11.015  11.038  67.330  1.00  0.00    -0.267 OA 
BRANCH   8  10
HETATM   10  C   UNL     1     -11.275  13.857  67.705  1.00  0.00    -0.295 C  
BRANCH  10  11
HETATM   11  C   UNL     1     -12.580  13.796  68.530  1.00  0.00     0.564 C  
BRANCH  11  12
HETATM   12  C   UNL     1     -12.310  13.790  70.016  1.00  0.00    -0.364 A  
HETATM   13  C   UNL     1     -12.682  12.690  70.801  1.00  0.00    -0.213 A  
HETATM   14  C   UNL     1     -11.832  15.042  72.028  1.00  0.00    -0.462 A  
HETATM   15  C   UNL     1     -11.834  14.946  70.640  1.00  0.00    -0.357 A  
HETATM   16  C   UNL     1     -12.274  13.971  72.802  1.00  0.00     0.220 A  
HETATM   17  C   UNL     1     -12.677  12.786  72.189  1.00  0.00    -0.070 A  
ENDBRANCH  11  12
ENDBRANCH  10  11
BRANCH  10  18
HETATM   18  C   UNL     1     -10.720  15.306  67.619  1.00  0.00    -0.282 C  
HETATM   19  N   UNL     1      -9.355  15.381  67.462  1.00  0.00    -0.202 N  
HETATM   20  O   UNL     1     -11.427  16.308  67.717  1.00  0.00    -0.162 OA 
HETATM   21  H   UNL     1      -8.838  14.509  67.354  1.00  0.00     0.000 HD 
BRANCH  19  22
HETATM   22  C   UNL     1      -8.598  16.633  67.439  1.00  0.00    -0.189 C  
BRANCH  22  23
HETATM   23  C   UNL     1      -7.793  16.646  68.746  1.00  0.00    -0.238 C  
HETATM   24  O   UNL     1      -8.078  15.921  69.698  1.00  0.00    -0.161 OA 
BRANCH  23  25
HETATM   25  C   UNL     1      -6.618  17.559  68.856  1.00  0.00    -0.226 C  
HETATM   26  O   UNL     1      -5.576  17.119  69.740  1.00  0.00    -0.186 OA 
HETATM   27  C   UNL     1      -6.128  18.304  67.654  1.00  0.00    -0.172 C  
HETATM   28  C   UNL     1      -6.385  18.200  70.217  1.00  0.00     0.300 C  
ENDBRANCH  23  25
ENDBRANCH  22  23
BRANCH  22  29
HETATM   29  C   UNL     1      -9.486  17.883  67.291  1.00  0.00    -0.263 C  
HETATM   30  C   UNL     1      -9.565  18.845  68.499  1.00  0.00    -0.432 C  
HETATM   31  C   UNL     1     -10.436  20.057  68.140  1.00  0.00    -0.428 C  
HETATM   32  C   UNL     1     -10.124  18.223  69.781  1.00  0.00     0.605 C  
ENDBRANCH  22  29
ENDBRANCH  19  22
ENDBRANCH  10  18
ENDBRANCH   8  10
ENDBRANCH   5   6
BRANCH   5  33
HETATM   33  N   UNL     1      -8.950   9.562  68.436  1.00  0.00    -0.127 N  
HETATM   34  H   UNL     1      -9.458   9.010  67.744  1.00  0.00     0.000 HD 
HETATM   35  O   UNL     1      -7.884   9.502  70.468  1.00  0.00    -0.154 OA 
HETATM   36  C   UNL     1      -8.503   8.928  69.574  1.00  0.00    -0.128 C  
BRANCH  36  37
HETATM   37  C   UNL     1      -8.811   7.419  69.628  1.00  0.00    -0.141 C  
BRANCH  37  38
HETATM   38  N   UNL     1      -9.622   7.109  70.810  1.00  0.00    -0.168 N  
HETATM   39  O   UNL     1      -9.876   4.955  70.131  1.00  0.00    -0.197 OA 
HETATM   40  C   UNL     1     -10.106   5.835  70.972  1.00  0.00    -0.205 C  
HETATM   41  H   UNL     1      -9.823   7.831  71.503  1.00  0.00     0.000 HD 
BRANCH  40  42
HETATM   42  C   UNL     1     -10.894   5.496  72.242  1.00  0.00    -0.241 C  
BRANCH  42  43
HETATM   43  N   UNL     1     -10.113   5.379  73.497  1.00  0.00    -0.175 NA 
HETATM   44  C   UNL     1     -10.797   3.058  74.393  1.00  0.00    -0.005 C  
HETATM   45  C   UNL     1      -8.822   4.690  73.203  1.00  0.00    -0.111 C  
HETATM   46  O   UNL     1      -9.525   2.514  74.023  1.00  0.00    -0.082 OA 
HETATM   47  C   UNL     1      -8.982   3.191  72.888  1.00  0.00    -0.087 C  
HETATM   48  C   UNL     1     -10.782   4.594  74.561  1.00  0.00    -0.052 C  
ENDBRANCH  42  43
ENDBRANCH  40  42
ENDBRANCH  37  38
BRANCH  37  49
HETATM   49  C   UNL     1      -9.489   7.007  68.318  1.00  0.00    -0.128 C  
BRANCH  49  50
HETATM   50  C   UNL     1      -8.450   6.856  67.195  1.00  0.00    -0.121 C  
BRANCH  50  51
HETATM   51  C   UNL     1      -8.673   5.618  66.370  1.00  0.00    -0.126 A  
HETATM   52  C   UNL     1      -7.901   4.471  66.590  1.00  0.00    -0.099 A  
HETATM   53  C   UNL     1      -8.112   3.324  65.825  1.00  0.00    -0.093 A  
HETATM   54  C   UNL     1      -9.875   4.448  64.619  1.00  0.00    -0.097 A  
HETATM   55  C   UNL     1      -9.665   5.598  65.381  1.00  0.00     0.321 A  
HETATM   56  C   UNL     1      -9.099   3.313  64.841  1.00  0.00    -0.141 A  
ENDBRANCH  50  51
ENDBRANCH  49  50
ENDBRANCH  37  49
ENDBRANCH  36  37
ENDBRANCH   5  33
ENDBRANCH   3   5
TORSDOF 18
ENDMDL
MODEL       57
REMARK 921   NORMALIZED FREE ENERGY PREDICTED BY IDOCK:   -1.15 KCAL/MOL
REMARK 922        TOTAL FREE ENERGY PREDICTED BY IDOCK:   -5.98 KCAL/MOL
REMARK 923 INTER-LIGAND FREE ENERGY PREDICTED BY IDOCK:   -8.69 KCAL/MOL
REMARK 924 INTRA-LIGAND FREE ENERGY PREDICTED BY IDOCK:    2.70 KCAL/MOL
REMARK 927      BINDING AFFINITY PREDICTED BY RF-SCORE:    0.00 PKD
ROOT
HETATM    1  C   UNL     1      -7.966   9.599  65.777  1.00  0.00    -0.109 C  
HETATM    2  C   UNL     1      -6.871  10.296  66.589  1.00  0.00    -0.091 C  
HETATM    3  C   UNL     1      -7.354  11.523  67.393  1.00  0.00    -0.123 C  
HETATM    4  C   UNL     1      -5.724  10.686  65.650  1.00  0.00    -0.135 C  
ENDROOT
BRANCH   3   5
HETATM    5  C   UNL     1      -8.445  11.242  68.448  1.00  0.00    -0.153 C  
BRANCH   5   6
HETATM    6  C   UNL     1      -9.877  11.751  68.147  1.00  0.00    -0.190 C  
HETATM    7  H   UNL     1      -9.770  13.062  69.733  1.00  0.00     0.000 HD 
HETATM    8  N   UNL     1     -10.300  12.820  68.895  1.00  0.00    -0.103 N  
HETATM    9  O   UNL     1     -10.536  11.290  67.217  1.00  0.00    -0.197 OA 
BRANCH   8  10
HETATM   10  C   UNL     1     -11.471  13.634  68.555  1.00  0.00    -0.312 C  
BRANCH  10  11
HETATM   11  C   UNL     1     -12.747  13.329  69.373  1.00  0.00     0.553 C  
BRANCH  11  12
HETATM   12  C   UNL     1     -12.591  13.708  70.826  1.00  0.00    -0.397 A  
HETATM   13  C   UNL     1     -13.412  13.128  71.803  1.00  0.00    -0.420 A  
HETATM   14  C   UNL     1     -11.781  15.287  72.468  1.00  0.00    -0.535 A  
HETATM   15  C   UNL     1     -11.737  14.756  71.183  1.00  0.00    -0.360 A  
HETATM   16  C   UNL     1     -12.655  14.754  73.414  1.00  0.00    -0.556 A  
HETATM   17  C   UNL     1     -13.452  13.659  73.089  1.00  0.00     0.474 A  
ENDBRANCH  11  12
ENDBRANCH  10  11
BRANCH  10  18
HETATM   18  C   UNL     1     -11.061  15.128  68.671  1.00  0.00    -0.271 C  
HETATM   19  N   UNL     1      -9.701  15.344  68.674  1.00  0.00    -0.203 N  
HETATM   20  O   UNL     1     -11.872  16.045  68.786  1.00  0.00    -0.375 OA 
HETATM   21  H   UNL     1      -9.090  14.538  68.541  1.00  0.00     0.000 HD 
BRANCH  19  22
HETATM   22  C   UNL     1      -9.078  16.654  68.856  1.00  0.00    -0.238 C  
BRANCH  22  23
HETATM   23  C   UNL     1      -9.267  17.384  67.518  1.00  0.00    -0.233 C  
HETATM   24  O   UNL     1      -9.418  16.779  66.458  1.00  0.00    -0.241 OA 
BRANCH  23  25
HETATM   25  C   UNL     1      -9.281  18.876  67.511  1.00  0.00    -0.290 C  
HETATM   26  O   UNL     1     -10.542  19.479  67.183  1.00  0.00    -0.439 OA 
HETATM   27  C   UNL     1      -8.478  19.642  68.516  1.00  0.00    -0.334 C  
HETATM   28  C   UNL     1      -9.535  19.543  66.167  1.00  0.00    -0.340 C  
ENDBRANCH  23  25
ENDBRANCH  22  23
BRANCH  22  29
HETATM   29  C   UNL     1      -7.597  16.576  69.271  1.00  0.00    -0.156 C  
HETATM   30  C   UNL     1      -6.590  16.056  68.218  1.00  0.00    -0.121 C  
HETATM   31  C   UNL     1      -5.166  16.114  68.788  1.00  0.00    -0.103 C  
HETATM   32  C   UNL     1      -6.848  14.627  67.734  1.00  0.00    -0.193 C  
ENDBRANCH  22  29
ENDBRANCH  19  22
ENDBRANCH  10  18
ENDBRANCH   8  10
ENDBRANCH   5   6
BRANCH   5  33
HETATM   33  N   UNL     1      -8.517   9.828  68.832  1.00  0.00    -0.123 N  
HETATM   34  H   UNL     1      -8.844   9.156  68.137  1.00  0.00     0.000 HD 
HETATM   35  O   UNL     1      -7.765  10.083  70.986  1.00  0.00    -0.094 OA 
HETATM   36  C   UNL     1      -8.168   9.358  70.078  1.00  0.00    -0.162 C  
BRANCH  36  37
HETATM   37  C   UNL     1      -8.290   7.831  70.244  1.00  0.00    -0.127 C  
BRANCH  37  38
HETATM   38  N   UNL     1      -9.311   7.509  71.246  1.00  0.00    -0.150 N  
HETATM   39  O   UNL     1      -9.160   5.294  70.759  1.00  0.00    -0.132 OA 
HETATM   40  C   UNL     1      -9.673   6.198  71.432  1.00  0.00    -0.167 C  
HETATM   41  H   UNL     1      -9.745   8.249  71.798  1.00  0.00     0.000 HD 
BRANCH  40  42
HETATM   42  C   UNL     1     -10.689   5.856  72.528  1.00  0.00    -0.234 C  
BRANCH  42  43
HETATM   43  N   UNL     1     -10.136   5.412  73.831  1.00  0.00    -0.195 NA 
HETATM   44  C   UNL     1      -8.898   3.232  73.221  1.00  0.00    -0.080 C  
HETATM   45  C   UNL     1      -8.751   5.949  73.979  1.00  0.00    -0.119 C  
HETATM   46  O   UNL     1      -7.630   3.884  73.361  1.00  0.00    -0.068 OA 
HETATM   47  C   UNL     1      -7.726   5.275  73.047  1.00  0.00    -0.098 C  
HETATM   48  C   UNL     1     -10.040   3.940  73.982  1.00  0.00    -0.145 C  
ENDBRANCH  42  43
ENDBRANCH  40  42
ENDBRANCH  37  38
BRANCH  37  49
HETATM   49  C   UNL     1      -8.586   7.209  68.875  1.00  0.00    -0.129 C  
BRANCH  49  50
HETATM   50  C   UNL     1      -7.279   6.932  68.113  1.00  0.00    -0.091 C  
BRANCH  50  51
HETATM   51  C   UNL     1      -7.186   5.510  67.633  1.00  0.00    -0.075 A  
HETATM   52  C   UNL     1      -6.616   4.523  68.446  1.00  0.00    -0.046 A  
HETATM   53  C   UNL     1      -6.533   3.205  67.999  1.00  0.00    -0.037 A  
HETATM   54  C   UNL     1      -7.598   3.837  65.927  1.00  0.00    -0.085 A  
HETATM   55  C   UNL     1      -7.680   5.157  66.370  1.00  0.00    -0.092 A  
HETATM   56  C   UNL     1      -7.025   2.862  66.740  1.00  0.00    -0.049 A  
ENDBRANCH  50  51
ENDBRANCH  49  50
ENDBRANCH  37  49
ENDBRANCH  36  37
ENDBRANCH   5  33
ENDBRANCH   3   5
TORSDOF 18
ENDMDL
MODEL       58
REMARK 921   NORMALIZED FREE ENERGY PREDICTED BY IDOCK:   -0.98 KCAL/MOL
REMARK 922        TOTAL FREE ENERGY PREDICTED BY IDOCK:   -5.64 KCAL/MOL
REMARK 923 INTER-LIGAND FREE ENERGY PREDICTED BY IDOCK:   -8.72 KCAL/MOL
REMARK 924 INTRA-LIGAND FREE ENERGY PREDICTED BY IDOCK:    3.09 KCAL/MOL
REMARK 927      BINDING AFFINITY PREDICTED BY RF-SCORE:    0.00 PKD
ROOT
HETATM    1  C   UNL     1      -7.950  11.455  66.052  1.00  0.00     0.095 C  
HETATM    2  C   UNL     1      -6.998  11.335  67.244  1.00  0.00    -0.109 C  
HETATM    3  C   UNL     1      -7.482  12.051  68.524  1.00  0.00    -0.117 C  
HETATM    4  C   UNL     1      -5.614  11.848  66.830  1.00  0.00    -0.111 C  
ENDROOT
BRANCH   3   5
HETATM    5  C   UNL     1      -8.825  11.554  69.100  1.00  0.00     0.280 C  
BRANCH   5   6
HETATM    6  C   UNL     1     -10.121  12.187  68.536  1.00  0.00    -0.187 C  
HETATM    7  H   UNL     1     -10.407  13.225  70.293  1.00  0.00     0.000 HD 
HETATM    8  N   UNL     1     -10.705  13.149  69.321  1.00  0.00    -0.022 N  
HETATM    9  O   UNL     1     -10.524  11.918  67.406  1.00  0.00    -0.210 OA 
BRANCH   8  10
HETATM   10  C   UNL     1     -11.735  14.073  68.836  1.00  0.00    -0.340 C  
BRANCH  10  11
HETATM   11  C   UNL     1     -13.109  13.956  69.534  1.00  0.00     1.150 C  
BRANCH  11  12
HETATM   12  C   UNL     1     -13.082  14.517  70.936  1.00  0.00    -0.405 A  
HETATM   13  C   UNL     1     -14.185  15.217  71.442  1.00  0.00    -0.597 A  
HETATM   14  C   UNL     1     -11.780  15.217  72.850  1.00  0.00    -0.478 A  
HETATM   15  C   UNL     1     -11.896  14.479  71.676  1.00  0.00    -0.244 A  
HETATM   16  C   UNL     1     -12.858  15.972  73.308  1.00  0.00    -0.649 A  
HETATM   17  C   UNL     1     -14.068  15.953  72.618  1.00  0.00    -0.380 A  
ENDBRANCH  11  12
ENDBRANCH  10  11
BRANCH  10  18
HETATM   18  C   UNL     1     -11.164  15.515  68.938  1.00  0.00    -0.304 C  
HETATM   19  N   UNL     1      -9.794  15.591  68.828  1.00  0.00    -0.208 N  
HETATM   20  O   UNL     1     -11.864  16.507  69.134  1.00  0.00    -0.070 OA 
HETATM   21  H   UNL     1      -9.282  14.730  68.632  1.00  0.00     0.000 HD 
BRANCH  19  22
HETATM   22  C   UNL     1      -9.025  16.826  68.974  1.00  0.00    -0.188 C  
BRANCH  22  23
HETATM   23  C   UNL     1      -9.157  17.550  67.625  1.00  0.00    -0.243 C  
HETATM   24  O   UNL     1      -9.302  16.940  66.567  1.00  0.00    -0.246 OA 
BRANCH  23  25
HETATM   25  C   UNL     1      -9.120  19.041  67.605  1.00  0.00    -0.291 C  
HETATM   26  O   UNL     1     -10.118  19.692  68.406  1.00  0.00    -0.410 OA 
HETATM   27  C   UNL     1      -7.809  19.762  67.552  1.00  0.00    -0.317 C  
HETATM   28  C   UNL     1     -10.325  19.738  66.990  1.00  0.00    -0.465 C  
ENDBRANCH  23  25
ENDBRANCH  22  23
BRANCH  22  29
HETATM   29  C   UNL     1      -7.554  16.590  69.365  1.00  0.00    -0.061 C  
HETATM   30  C   UNL     1      -6.544  16.345  68.220  1.00  0.00    -0.134 C  
HETATM   31  C   UNL     1      -5.130  16.200  68.798  1.00  0.00    -0.103 C  
HETATM   32  C   UNL     1      -6.834  15.111  67.362  1.00  0.00    -0.166 C  
ENDBRANCH  22  29
ENDBRANCH  19  22
ENDBRANCH  10  18
ENDBRANCH   8  10
ENDBRANCH   5   6
BRANCH   5  33
HETATM   33  N   UNL     1      -8.956  10.094  69.061  1.00  0.00    -0.156 N  
HETATM   34  H   UNL     1      -8.406   9.578  68.374  1.00  0.00     0.000 HD 
HETATM   35  O   UNL     1     -10.488   9.905  70.760  1.00  0.00    -0.290 OA 
HETATM   36  C   UNL     1      -9.783   9.380  69.901  1.00  0.00    -0.212 C  
BRANCH  36  37
HETATM   37  C   UNL     1      -9.732   7.853  69.702  1.00  0.00    -0.173 C  
BRANCH  37  38
HETATM   38  N   UNL     1      -8.815   7.513  68.610  1.00  0.00    -0.128 N  
HETATM   39  O   UNL     1      -7.579   6.198  69.993  1.00  0.00    -0.090 OA 
HETATM   40  C   UNL     1      -7.765   6.665  68.860  1.00  0.00    -0.109 C  
HETATM   41  H   UNL     1      -8.955   7.901  67.677  1.00  0.00     0.000 HD 
BRANCH  40  42
HETATM   42  C   UNL     1      -6.848   6.256  67.702  1.00  0.00    -0.069 C  
BRANCH  42  43
HETATM   43  N   UNL     1      -7.107   4.933  67.085  1.00  0.00    -0.065 NA 
HETATM   44  C   UNL     1      -7.653   3.442  69.119  1.00  0.00    -0.051 C  
HETATM   45  C   UNL     1      -8.570   4.801  66.819  1.00  0.00    -0.108 C  
HETATM   46  O   UNL     1      -9.041   3.430  68.769  1.00  0.00    -0.117 OA 
HETATM   47  C   UNL     1      -9.416   4.633  68.096  1.00  0.00    -0.146 C  
HETATM   48  C   UNL     1      -6.723   3.779  67.933  1.00  0.00    -0.046 C  
ENDBRANCH  42  43
ENDBRANCH  40  42
ENDBRANCH  37  38
BRANCH  37  49
HETATM   49  C   UNL     1      -9.344   7.196  71.031  1.00  0.00    -0.158 C  
BRANCH  49  50
HETATM   50  C   UNL     1     -10.581   6.601  71.723  1.00  0.00    -0.242 C  
BRANCH  50  51
HETATM   51  C   UNL     1     -10.229   5.479  72.661  1.00  0.00    -0.222 A  
HETATM   52  C   UNL     1     -11.013   4.321  72.706  1.00  0.00    -0.138 A  
HETATM   53  C   UNL     1     -10.682   3.281  73.575  1.00  0.00    -0.306 A  
HETATM   54  C   UNL     1      -8.775   4.538  74.358  1.00  0.00    -0.105 A  
HETATM   55  C   UNL     1      -9.105   5.580  73.491  1.00  0.00    -0.128 A  
HETATM   56  C   UNL     1      -9.563   3.390  74.400  1.00  0.00    -0.131 A  
ENDBRANCH  50  51
ENDBRANCH  49  50
ENDBRANCH  37  49
ENDBRANCH  36  37
ENDBRANCH   5  33
ENDBRANCH   3   5
TORSDOF 18
ENDMDL
MODEL       59
REMARK 921   NORMALIZED FREE ENERGY PREDICTED BY IDOCK:   -0.56 KCAL/MOL
REMARK 922        TOTAL FREE ENERGY PREDICTED BY IDOCK:   -4.78 KCAL/MOL
REMARK 923 INTER-LIGAND FREE ENERGY PREDICTED BY IDOCK:   -4.43 KCAL/MOL
REMARK 924 INTRA-LIGAND FREE ENERGY PREDICTED BY IDOCK:   -0.35 KCAL/MOL
REMARK 927      BINDING AFFINITY PREDICTED BY RF-SCORE:    0.00 PKD
ROOT
HETATM    1  C   UNL     1     -11.895   6.619  66.852  1.00  0.00     1.787 C  
HETATM    2  C   UNL     1     -11.427   7.268  68.157  1.00  0.00     0.602 C  
HETATM    3  C   UNL     1      -9.907   7.536  68.229  1.00  0.00    -0.177 C  
HETATM    4  C   UNL     1     -11.877   6.399  69.337  1.00  0.00     0.214 C  
ENDROOT
BRANCH   3   5
HETATM    5  C   UNL     1      -9.345   8.482  67.147  1.00  0.00    -0.152 C  
BRANCH   5   6
HETATM    6  C   UNL     1      -9.659   9.992  67.286  1.00  0.00    -0.156 C  
HETATM    7  H   UNL     1      -8.488  10.106  68.977  1.00  0.00     0.000 HD 
HETATM    8  N   UNL     1      -8.970  10.657  68.268  1.00  0.00    -0.137 N  
HETATM    9  O   UNL     1     -10.395  10.567  66.486  1.00  0.00    -0.233 OA 
BRANCH   8  10
HETATM   10  C   UNL     1      -8.889  12.119  68.351  1.00  0.00    -0.143 C  
BRANCH  10  11
HETATM   11  C   UNL     1      -8.062  12.799  67.236  1.00  0.00    -0.172 C  
BRANCH  11  12
HETATM   12  C   UNL     1      -7.432  14.088  67.707  1.00  0.00    -0.169 A  
HETATM   13  C   UNL     1      -6.888  14.184  68.995  1.00  0.00    -0.110 A  
HETATM   14  C   UNL     1      -7.193  16.480  67.447  1.00  0.00    -0.178 A  
HETATM   15  C   UNL     1      -7.531  15.238  66.918  1.00  0.00     0.013 A  
HETATM   16  C   UNL     1      -6.724  16.578  68.755  1.00  0.00    -0.170 A  
HETATM   17  C   UNL     1      -6.548  15.427  69.521  1.00  0.00    -0.166 A  
ENDBRANCH  11  12
ENDBRANCH  10  11
BRANCH  10  18
HETATM   18  C   UNL     1     -10.340  12.672  68.406  1.00  0.00    -0.235 C  
HETATM   19  N   UNL     1     -10.614  13.637  67.463  1.00  0.00    -0.240 N  
HETATM   20  O   UNL     1     -11.171  12.311  69.238  1.00  0.00    -0.246 OA 
HETATM   21  H   UNL     1      -9.886  13.862  66.784  1.00  0.00     0.000 HD 
BRANCH  19  22
HETATM   22  C   UNL     1     -11.881  14.361  67.372  1.00  0.00    -0.400 C  
BRANCH  22  23
HETATM   23  C   UNL     1     -12.481  13.964  66.016  1.00  0.00    -0.461 C  
HETATM   24  O   UNL     1     -13.593  13.448  65.918  1.00  0.00     0.134 OA 
BRANCH  23  25
HETATM   25  C   UNL     1     -11.691  14.226  64.778  1.00  0.00    -0.415 C  
HETATM   26  O   UNL     1     -10.372  14.752  64.989  1.00  0.00    -0.400 OA 
HETATM   27  C   UNL     1     -11.802  13.303  63.604  1.00  0.00    -0.515 C  
HETATM   28  C   UNL     1     -11.344  15.680  64.492  1.00  0.00    -0.320 C  
ENDBRANCH  23  25
ENDBRANCH  22  23
BRANCH  22  29
HETATM   29  C   UNL     1     -11.727  15.887  67.515  1.00  0.00     0.226 C  
HETATM   30  C   UNL     1     -10.453  16.411  68.218  1.00  0.00    -0.302 C  
HETATM   31  C   UNL     1     -10.446  17.945  68.204  1.00  0.00    -0.380 C  
HETATM   32  C   UNL     1     -10.284  15.949  69.668  1.00  0.00    -0.280 C  
ENDBRANCH  22  29
ENDBRANCH  19  22
ENDBRANCH  10  18
ENDBRANCH   8  10
ENDBRANCH   5   6
BRANCH   5  33
HETATM   33  N   UNL     1      -7.902   8.317  66.940  1.00  0.00    -0.095 N  
HETATM   34  H   UNL     1      -7.266   8.879  67.506  1.00  0.00     0.000 HD 
HETATM   35  O   UNL     1      -8.036   6.724  65.291  1.00  0.00    -0.113 OA 
HETATM   36  C   UNL     1      -7.359   7.445  66.022  1.00  0.00    -0.075 C  
BRANCH  36  37
HETATM   37  C   UNL     1      -5.818   7.414  66.004  1.00  0.00    -0.037 C  
BRANCH  37  38
HETATM   38  N   UNL     1      -5.314   6.560  67.084  1.00  0.00    -0.012 N  
HETATM   39  O   UNL     1      -6.668   7.588  68.593  1.00  0.00    -0.051 OA 
HETATM   40  C   UNL     1      -5.812   6.725  68.352  1.00  0.00    -0.018 C  
HETATM   41  H   UNL     1      -4.603   5.854  66.896  1.00  0.00     0.000 HD 
BRANCH  40  42
HETATM   42  C   UNL     1      -5.336   5.787  69.466  1.00  0.00    -0.004 C  
BRANCH  42  43
HETATM   43  N   UNL     1      -6.257   5.595  70.613  1.00  0.00    -0.029 NA 
HETATM   44  C   UNL     1      -7.830   3.724  69.786  1.00  0.00    -0.051 C  
HETATM   45  C   UNL     1      -5.721   4.514  71.491  1.00  0.00    -0.012 C  
HETATM   46  O   UNL     1      -7.198   2.776  70.653  1.00  0.00    -0.033 OA 
HETATM   47  C   UNL     1      -5.824   3.108  70.870  1.00  0.00    -0.014 C  
HETATM   48  C   UNL     1      -7.631   5.190  70.230  1.00  0.00    -0.071 C  
ENDBRANCH  42  43
ENDBRANCH  40  42
ENDBRANCH  37  38
BRANCH  37  49
HETATM   49  C   UNL     1      -5.351   6.955  64.618  1.00  0.00    -0.028 C  
BRANCH  49  50
HETATM   50  C   UNL     1      -5.161   8.162  63.685  1.00  0.00    -0.049 C  
BRANCH  50  51
HETATM   51  C   UNL     1      -6.461   8.845  63.360  1.00  0.00    -0.089 A  
HETATM   52  C   UNL     1      -7.452   8.176  62.632  1.00  0.00    -0.109 A  
HETATM   53  C   UNL     1      -8.657   8.811  62.335  1.00  0.00    -0.188 A  
HETATM   54  C   UNL     1      -7.904  10.790  63.496  1.00  0.00     0.183 A  
HETATM   55  C   UNL     1      -6.697  10.157  63.793  1.00  0.00    -0.113 A  
HETATM   56  C   UNL     1      -8.883  10.118  62.767  1.00  0.00    -0.236 A  
ENDBRANCH  50  51
ENDBRANCH  49  50
ENDBRANCH  37  49
ENDBRANCH  36  37
ENDBRANCH   5  33
ENDBRANCH   3   5
TORSDOF 18
ENDMDL
MODEL       60
REMARK 921   NORMALIZED FREE ENERGY PREDICTED BY IDOCK:   -0.54 KCAL/MOL
REMARK 922        TOTAL FREE ENERGY PREDICTED BY IDOCK:   -4.75 KCAL/MOL
REMARK 923 INTER-LIGAND FREE ENERGY PREDICTED BY IDOCK:   -5.81 KCAL/MOL
REMARK 924 INTRA-LIGAND FREE ENERGY PREDICTED BY IDOCK:    1.06 KCAL/MOL
REMARK 927      BINDING AFFINITY PREDICTED BY RF-SCORE:    0.00 PKD
ROOT
HETATM    1  C   UNL     1      -5.976  10.940  70.798  1.00  0.00    -0.034 C  
HETATM    2  C   UNL     1      -6.446  12.267  70.199  1.00  0.00     0.163 C  
HETATM    3  C   UNL     1      -6.127  12.439  68.697  1.00  0.00    -0.065 C  
HETATM    4  C   UNL     1      -5.849  13.421  71.012  1.00  0.00    -0.093 C  
ENDROOT
BRANCH   3   5
HETATM    5  C   UNL     1      -6.756  11.390  67.757  1.00  0.00    -0.070 C  
BRANCH   5   6
HETATM    6  C   UNL     1      -5.974  10.071  67.534  1.00  0.00    -0.054 C  
HETATM    7  H   UNL     1      -6.966   9.189  69.111  1.00  0.00     0.000 HD 
HETATM    8  N   UNL     1      -6.370   9.006  68.304  1.00  0.00    -0.054 N  
HETATM    9  O   UNL     1      -5.134   9.969  66.642  1.00  0.00    -0.038 OA 
BRANCH   8  10
HETATM   10  C   UNL     1      -5.982   7.620  68.028  1.00  0.00    -0.040 C  
BRANCH  10  11
HETATM   11  C   UNL     1      -6.141   6.641  69.213  1.00  0.00    -0.026 C  
BRANCH  11  12
HETATM   12  C   UNL     1      -7.085   7.174  70.265  1.00  0.00    -0.066 A  
HETATM   13  C   UNL     1      -6.867   6.897  71.621  1.00  0.00    -0.065 A  
HETATM   14  C   UNL     1      -9.263   8.069  70.814  1.00  0.00    -0.165 A  
HETATM   15  C   UNL     1      -8.267   7.811  69.877  1.00  0.00    -0.125 A  
HETATM   16  C   UNL     1      -9.070   7.722  72.150  1.00  0.00    -0.192 A  
HETATM   17  C   UNL     1      -7.863   7.158  72.558  1.00  0.00    -0.098 A  
ENDBRANCH  11  12
ENDBRANCH  10  11
BRANCH  10  18
HETATM   18  C   UNL     1      -6.779   7.143  66.782  1.00  0.00    -0.060 C  
HETATM   19  N   UNL     1      -7.705   6.158  67.045  1.00  0.00    -0.099 N  
HETATM   20  O   UNL     1      -6.584   7.575  65.648  1.00  0.00    -0.044 OA 
HETATM   21  H   UNL     1      -7.836   5.873  68.016  1.00  0.00     0.000 HD 
BRANCH  19  22
HETATM   22  C   UNL     1      -8.514   5.497  66.022  1.00  0.00    -0.126 C  
BRANCH  22  23
HETATM   23  C   UNL     1      -9.732   4.933  66.768  1.00  0.00    -0.181 C  
HETATM   24  O   UNL     1     -10.862   4.949  66.283  1.00  0.00    -0.259 OA 
BRANCH  23  25
HETATM   25  C   UNL     1      -9.532   4.333  68.119  1.00  0.00    -0.157 C  
HETATM   26  O   UNL     1      -8.258   3.706  68.332  1.00  0.00    -0.076 OA 
HETATM   27  C   UNL     1     -10.094   5.006  69.333  1.00  0.00    -0.288 C  
HETATM   28  C   UNL     1      -9.372   2.821  68.171  1.00  0.00    -0.203 C  
ENDBRANCH  23  25
ENDBRANCH  22  23
BRANCH  22  29
HETATM   29  C   UNL     1      -7.751   4.406  65.248  1.00  0.00    -0.086 C  
HETATM   30  C   UNL     1      -8.411   3.850  63.966  1.00  0.00    -0.093 C  
HETATM   31  C   UNL     1      -7.477   2.830  63.301  1.00  0.00    -0.061 C  
HETATM   32  C   UNL     1      -9.769   3.177  64.183  1.00  0.00    -0.151 C  
ENDBRANCH  22  29
ENDBRANCH  19  22
ENDBRANCH  10  18
ENDBRANCH   8  10
ENDBRANCH   5   6
BRANCH   5  33
HETATM   33  N   UNL     1      -8.141  11.064  68.111  1.00  0.00    -0.116 N  
HETATM   34  H   UNL     1      -8.462  11.282  69.055  1.00  0.00     0.000 HD 
HETATM   35  O   UNL     1      -8.749  10.178  66.082  1.00  0.00    -0.138 OA 
HETATM   36  C   UNL     1      -9.034  10.481  67.238  1.00  0.00    -0.139 C  
BRANCH  36  37
HETATM   37  C   UNL     1     -10.445  10.264  67.818  1.00  0.00    -0.226 C  
BRANCH  37  38
HETATM   38  N   UNL     1     -10.630  11.078  69.024  1.00  0.00    -0.216 N  
HETATM   39  O   UNL     1     -12.287  12.270  68.024  1.00  0.00    -0.260 OA 
HETATM   40  C   UNL     1     -11.589  12.059  69.026  1.00  0.00    -0.313 C  
HETATM   41  H   UNL     1     -10.053  10.916  69.849  1.00  0.00     0.000 HD 
BRANCH  40  42
HETATM   42  C   UNL     1     -11.828  12.862  70.309  1.00  0.00    -0.213 C  
BRANCH  42  43
HETATM   43  N   UNL     1     -10.901  13.990  70.569  1.00  0.00     0.606 NA 
HETATM   44  C   UNL     1     -11.119  15.423  68.435  1.00  0.00    -0.301 C  
HETATM   45  C   UNL     1     -11.665  15.113  71.189  1.00  0.00    -0.353 C  
HETATM   46  O   UNL     1     -11.877  16.409  69.144  1.00  0.00    -0.169 OA 
HETATM   47  C   UNL     1     -12.623  15.819  70.211  1.00  0.00    -0.187 C  
HETATM   48  C   UNL     1     -10.250  14.537  69.354  1.00  0.00    -0.035 C  
ENDBRANCH  42  43
ENDBRANCH  40  42
ENDBRANCH  37  38
BRANCH  37  49
HETATM   49  C   UNL     1     -11.478  10.572  66.729  1.00  0.00     0.539 C  
BRANCH  49  50
HETATM   50  C   UNL     1     -10.780  10.930  65.407  1.00  0.00    -0.189 C  
BRANCH  50  51
HETATM   51  C   UNL     1     -11.226  12.260  64.864  1.00  0.00    -0.365 A  
HETATM   52  C   UNL     1     -12.406  12.361  64.117  1.00  0.00    -0.558 A  
HETATM   53  C   UNL     1     -12.818  13.596  63.618  1.00  0.00     0.448 A  
HETATM   54  C   UNL     1     -10.887  14.648  64.613  1.00  0.00    -0.332 A  
HETATM   55  C   UNL     1     -10.470  13.414  65.112  1.00  0.00    -0.358 A  
HETATM   56  C   UNL     1     -12.059  14.739  63.866  1.00  0.00    -0.028 A  
ENDBRANCH  50  51
ENDBRANCH  49  50
ENDBRANCH  37  49
ENDBRANCH  36  37
ENDBRANCH   5  33
ENDBRANCH   3   5
TORSDOF 18
ENDMDL
MODEL       61
REMARK 921   NORMALIZED FREE ENERGY PREDICTED BY IDOCK:   -0.01 KCAL/MOL
REMARK 922        TOTAL FREE ENERGY PREDICTED BY IDOCK:   -3.65 KCAL/MOL
REMARK 923 INTER-LIGAND FREE ENERGY PREDICTED BY IDOCK:   -7.72 KCAL/MOL
REMARK 924 INTRA-LIGAND FREE ENERGY PREDICTED BY IDOCK:    4.07 KCAL/MOL
REMARK 927      BINDING AFFINITY PREDICTED BY RF-SCORE:    0.00 PKD
ROOT
HETATM    1  C   UNL     1      -5.778  13.166  67.126  1.00  0.00     0.390 C  
HETATM    2  C   UNL     1      -6.277  11.816  66.604  1.00  0.00    -0.025 C  
HETATM    3  C   UNL     1      -6.786  10.855  67.700  1.00  0.00    -0.081 C  
HETATM    4  C   UNL     1      -5.164  11.156  65.783  1.00  0.00    -0.077 C  
ENDROOT
BRANCH   3   5
HETATM    5  C   UNL     1      -7.978  11.367  68.536  1.00  0.00    -0.143 C  
BRANCH   5   6
HETATM    6  C   UNL     1      -8.585  12.738  68.149  1.00  0.00    -0.185 C  
HETATM    7  H   UNL     1      -8.547  12.219  66.155  1.00  0.00     0.000 HD 
HETATM    8  N   UNL     1      -8.917  12.892  66.827  1.00  0.00    -0.208 N  
HETATM    9  O   UNL     1      -8.851  13.583  69.002  1.00  0.00     0.152 OA 
BRANCH   8  10
HETATM   10  C   UNL     1      -9.776  13.970  66.328  1.00  0.00    -0.295 C  
BRANCH  10  11
HETATM   11  C   UNL     1     -11.294  13.742  66.509  1.00  0.00    -0.336 C  
BRANCH  11  12
HETATM   12  C   UNL     1     -11.924  13.124  65.283  1.00  0.00    -0.437 A  
HETATM   13  C   UNL     1     -11.809  11.748  65.043  1.00  0.00    -0.104 A  
HETATM   14  C   UNL     1     -12.827  13.419  63.060  1.00  0.00     0.869 A  
HETATM   15  C   UNL     1     -12.485  13.946  64.302  1.00  0.00    -0.305 A  
HETATM   16  C   UNL     1     -12.640  12.062  62.802  1.00  0.00     0.515 A  
HETATM   17  C   UNL     1     -12.154  11.222  63.801  1.00  0.00     0.383 A  
ENDBRANCH  11  12
ENDBRANCH  10  11
BRANCH  10  18
HETATM   18  C   UNL     1      -9.313  15.294  66.997  1.00  0.00    -0.224 C  
HETATM   19  N   UNL     1      -8.308  15.948  66.321  1.00  0.00    -0.320 N  
HETATM   20  O   UNL     1      -9.774  15.713  68.057  1.00  0.00    -0.204 OA 
HETATM   21  H   UNL     1      -7.999  15.559  65.431  1.00  0.00     0.000 HD 
BRANCH  19  22
HETATM   22  C   UNL     1      -7.655  17.167  66.799  1.00  0.00    -0.239 C  
BRANCH  22  23
HETATM   23  C   UNL     1      -6.303  16.709  67.365  1.00  0.00    -0.169 C  
HETATM   24  O   UNL     1      -5.461  16.141  66.671  1.00  0.00    -0.243 OA 
BRANCH  23  25
HETATM   25  C   UNL     1      -5.998  16.976  68.800  1.00  0.00    -0.152 C  
HETATM   26  O   UNL     1      -5.125  16.027  69.432  1.00  0.00    -0.105 OA 
HETATM   27  C   UNL     1      -5.829  18.382  69.286  1.00  0.00    -0.227 C  
HETATM   28  C   UNL     1      -6.507  15.949  69.802  1.00  0.00    -0.163 C  
ENDBRANCH  23  25
ENDBRANCH  22  23
BRANCH  22  29
HETATM   29  C   UNL     1      -8.487  17.941  67.838  1.00  0.00    -0.251 C  
HETATM   30  C   UNL     1      -9.504  18.978  67.305  1.00  0.00    -0.353 C  
HETATM   31  C   UNL     1     -10.280  19.593  68.478  1.00  0.00    -0.529 C  
HETATM   32  C   UNL     1      -8.889  20.120  66.493  1.00  0.00    -0.370 C  
ENDBRANCH  22  29
ENDBRANCH  19  22
ENDBRANCH  10  18
ENDBRANCH   8  10
ENDBRANCH   5   6
BRANCH   5  33
HETATM   33  N   UNL     1      -9.062  10.385  68.646  1.00  0.00    -0.149 N  
HETATM   34  H   UNL     1     -10.020  10.730  68.718  1.00  0.00     0.000 HD 
HETATM   35  O   UNL     1      -7.745   8.505  68.577  1.00  0.00    -0.100 OA 
HETATM   36  C   UNL     1      -8.858   9.023  68.657  1.00  0.00    -0.137 C  
BRANCH  36  37
HETATM   37  C   UNL     1     -10.148   8.183  68.744  1.00  0.00    -0.199 C  
BRANCH  37  38
HETATM   38  N   UNL     1     -11.138   8.860  69.589  1.00  0.00    -0.423 N  
HETATM   39  O   UNL     1      -9.612   9.118  71.254  1.00  0.00    -0.275 OA 
HETATM   40  C   UNL     1     -10.764   9.297  70.834  1.00  0.00    -0.301 C  
HETATM   41  H   UNL     1     -12.090   9.003  69.254  1.00  0.00     0.000 HD 
BRANCH  40  42
HETATM   42  C   UNL     1     -11.780  10.065  71.688  1.00  0.00    -0.169 C  
BRANCH  42  43
HETATM   43  N   UNL     1     -12.639   9.256  72.586  1.00  0.00    -0.194 NA 
HETATM   44  C   UNL     1     -14.390   8.262  70.974  1.00  0.00    -0.005 C  
HETATM   45  C   UNL     1     -12.127   7.855  72.614  1.00  0.00    -0.187 C  
HETATM   46  O   UNL     1     -13.774   6.972  71.061  1.00  0.00    -0.177 OA 
HETATM   47  C   UNL     1     -12.370   7.084  71.302  1.00  0.00    -0.383 C  
HETATM   48  C   UNL     1     -14.059   9.183  72.168  1.00  0.00    -0.346 C  
ENDBRANCH  42  43
ENDBRANCH  40  42
ENDBRANCH  37  38
BRANCH  37  49
HETATM   49  C   UNL     1     -10.660   7.918  67.325  1.00  0.00    -0.365 C  
BRANCH  49  50
HETATM   50  C   UNL     1     -10.480   6.437  66.953  1.00  0.00    -0.340 C  
BRANCH  50  51
HETATM   51  C   UNL     1      -9.152   6.168  66.299  1.00  0.00    -0.165 A  
HETATM   52  C   UNL     1      -8.424   5.016  66.620  1.00  0.00    -0.106 A  
HETATM   53  C   UNL     1      -7.195   4.768  66.009  1.00  0.00    -0.076 A  
HETATM   54  C   UNL     1      -7.408   6.811  64.742  1.00  0.00    -0.088 A  
HETATM   55  C   UNL     1      -8.637   7.063  65.352  1.00  0.00    -0.048 A  
HETATM   56  C   UNL     1      -6.688   5.665  65.070  1.00  0.00    -0.047 A  
ENDBRANCH  50  51
ENDBRANCH  49  50
ENDBRANCH  37  49
ENDBRANCH  36  37
ENDBRANCH   5  33
ENDBRANCH   3   5
TORSDOF 18
ENDMDL
MODEL       62
REMARK 921   NORMALIZED FREE ENERGY PREDICTED BY IDOCK:    0.04 KCAL/MOL
REMARK 922        TOTAL FREE ENERGY PREDICTED BY IDOCK:   -3.56 KCAL/MOL
REMARK 923 INTER-LIGAND FREE ENERGY PREDICTED BY IDOCK:   -7.09 KCAL/MOL
REMARK 924 INTRA-LIGAND FREE ENERGY PREDICTED BY IDOCK:    3.54 KCAL/MOL
REMARK 927      BINDING AFFINITY PREDICTED BY RF-SCORE:    0.00 PKD
ROOT
HETATM    1  C   UNL     1      -5.340  13.104  67.359  1.00  0.00     0.092 C  
HETATM    2  C   UNL     1      -6.074  11.858  66.859  1.00  0.00    -0.120 C  
HETATM    3  C   UNL     1      -6.647  10.960  67.978  1.00  0.00    -0.062 C  
HETATM    4  C   UNL     1      -5.134  11.055  65.953  1.00  0.00    -0.132 C  
ENDROOT
BRANCH   3   5
HETATM    5  C   UNL     1      -7.686  11.628  68.904  1.00  0.00    -0.065 C  
BRANCH   5   6
HETATM    6  C   UNL     1      -8.308  12.965  68.430  1.00  0.00    -0.116 C  
HETATM    7  H   UNL     1      -8.468  12.238  66.509  1.00  0.00     0.000 HD 
HETATM    8  N   UNL     1      -8.763  12.986  67.136  1.00  0.00    -0.203 N  
HETATM    9  O   UNL     1      -8.482  13.900  69.210  1.00  0.00     0.231 OA 
BRANCH   8  10
HETATM   10  C   UNL     1      -9.652  14.025  66.607  1.00  0.00    -0.289 C  
BRANCH  10  11
HETATM   11  C   UNL     1     -11.160  13.796  66.860  1.00  0.00    -0.311 C  
BRANCH  11  12
HETATM   12  C   UNL     1     -11.882  13.358  65.608  1.00  0.00    -0.403 A  
HETATM   13  C   UNL     1     -11.784  12.034  65.158  1.00  0.00    -0.315 A  
HETATM   14  C   UNL     1     -12.958  13.966  63.530  1.00  0.00     1.120 A  
HETATM   15  C   UNL     1     -12.521  14.307  64.806  1.00  0.00    -0.390 A  
HETATM   16  C   UNL     1     -12.789  12.665  63.060  1.00  0.00     0.356 A  
HETATM   17  C   UNL     1     -12.224  11.693  63.883  1.00  0.00    -0.274 A  
ENDBRANCH  11  12
ENDBRANCH  10  11
BRANCH  10  18
HETATM   18  C   UNL     1      -9.178  15.391  67.178  1.00  0.00    -0.213 C  
HETATM   19  N   UNL     1      -8.174  15.990  66.451  1.00  0.00    -0.297 N  
HETATM   20  O   UNL     1      -9.629  15.886  68.209  1.00  0.00    -0.202 OA 
HETATM   21  H   UNL     1      -7.873  15.537  65.589  1.00  0.00     0.000 HD 
BRANCH  19  22
HETATM   22  C   UNL     1      -7.512  17.236  66.838  1.00  0.00    -0.207 C  
BRANCH  22  23
HETATM   23  C   UNL     1      -6.180  16.809  67.472  1.00  0.00    -0.163 C  
HETATM   24  O   UNL     1      -5.238  16.393  66.799  1.00  0.00    -0.348 OA 
BRANCH  23  25
HETATM   25  C   UNL     1      -6.022  16.918  68.951  1.00  0.00    -0.159 C  
HETATM   26  O   UNL     1      -5.267  15.864  69.569  1.00  0.00    -0.106 OA 
HETATM   27  C   UNL     1      -5.844  18.258  69.594  1.00  0.00    -0.247 C  
HETATM   28  C   UNL     1      -6.683  15.828  69.783  1.00  0.00    -0.140 C  
ENDBRANCH  23  25
ENDBRANCH  22  23
BRANCH  22  29
HETATM   29  C   UNL     1      -8.354  18.109  67.787  1.00  0.00    -0.253 C  
HETATM   30  C   UNL     1      -9.381  19.070  67.145  1.00  0.00    -0.345 C  
HETATM   31  C   UNL     1     -10.166  19.800  68.244  1.00  0.00    -0.569 C  
HETATM   32  C   UNL     1      -8.779  20.125  66.213  1.00  0.00    -0.283 C  
ENDBRANCH  22  29
ENDBRANCH  19  22
ENDBRANCH  10  18
ENDBRANCH   8  10
ENDBRANCH   5   6
BRANCH   5  33
HETATM   33  N   UNL     1      -8.765  10.718  69.300  1.00  0.00    -0.356 N  
HETATM   34  H   UNL     1      -9.699  11.107  69.433  1.00  0.00     0.000 HD 
HETATM   35  O   UNL     1      -7.504   8.801  69.370  1.00  0.00    -0.076 OA 
HETATM   36  C   UNL     1      -8.587   9.367  69.501  1.00  0.00    -0.158 C  
BRANCH  36  37
HETATM   37  C   UNL     1      -9.871   8.602  69.878  1.00  0.00    -0.183 C  
BRANCH  37  38
HETATM   38  N   UNL     1     -10.756   9.456  70.677  1.00  0.00    -0.264 N  
HETATM   39  O   UNL     1     -11.963   7.655  71.356  1.00  0.00    -0.292 OA 
HETATM   40  C   UNL     1     -11.776   8.879  71.390  1.00  0.00    -0.315 C  
HETATM   41  H   UNL     1     -10.614  10.466  70.702  1.00  0.00     0.000 HD 
BRANCH  40  42
HETATM   42  C   UNL     1     -12.656   9.765  72.279  1.00  0.00    -0.184 C  
BRANCH  42  43
HETATM   43  N   UNL     1     -13.672  10.597  71.589  1.00  0.00     0.008 NA 
HETATM   44  C   UNL     1     -13.137  12.978  72.426  1.00  0.00    -0.275 C  
HETATM   45  C   UNL     1     -13.095  11.107  70.310  1.00  0.00     0.210 C  
HETATM   46  O   UNL     1     -12.575  13.324  71.156  1.00  0.00    -0.360 OA 
HETATM   47  C   UNL     1     -12.009  12.181  70.511  1.00  0.00    -0.216 C  
HETATM   48  C   UNL     1     -14.114  11.783  72.360  1.00  0.00     0.828 C  
ENDBRANCH  42  43
ENDBRANCH  40  42
ENDBRANCH  37  38
BRANCH  37  49
HETATM   49  C   UNL     1     -10.537   8.094  68.595  1.00  0.00    -0.144 C  
BRANCH  49  50
HETATM   50  C   UNL     1     -11.114   6.685  68.806  1.00  0.00    -0.297 C  
BRANCH  50  51
HETATM   51  C   UNL     1     -10.043   5.655  69.035  1.00  0.00    -0.259 A  
HETATM   52  C   UNL     1      -8.739   5.873  68.574  1.00  0.00    -0.112 A  
HETATM   53  C   UNL     1      -7.747   4.916  68.790  1.00  0.00    -0.077 A  
HETATM   54  C   UNL     1      -9.343   3.515  69.938  1.00  0.00    -0.247 A  
HETATM   55  C   UNL     1     -10.338   4.469  69.722  1.00  0.00     0.150 A  
HETATM   56  C   UNL     1      -8.049   3.738  69.472  1.00  0.00    -0.062 A  
ENDBRANCH  50  51
ENDBRANCH  49  50
ENDBRANCH  37  49
ENDBRANCH  36  37
ENDBRANCH   5  33
ENDBRANCH   3   5
TORSDOF 18
ENDMDL
MODEL       63
REMARK 921   NORMALIZED FREE ENERGY PREDICTED BY IDOCK:    0.09 KCAL/MOL
REMARK 922        TOTAL FREE ENERGY PREDICTED BY IDOCK:   -3.44 KCAL/MOL
REMARK 923 INTER-LIGAND FREE ENERGY PREDICTED BY IDOCK:   -8.07 KCAL/MOL
REMARK 924 INTRA-LIGAND FREE ENERGY PREDICTED BY IDOCK:    4.63 KCAL/MOL
REMARK 927      BINDING AFFINITY PREDICTED BY RF-SCORE:    0.00 PKD
ROOT
HETATM    1  C   UNL     1      -8.439   8.840  71.559  1.00  0.00    -0.230 C  
HETATM    2  C   UNL     1      -6.911   8.827  71.642  1.00  0.00    -0.085 C  
HETATM    3  C   UNL     1      -6.195   8.978  70.282  1.00  0.00    -0.043 C  
HETATM    4  C   UNL     1      -6.461   7.543  72.348  1.00  0.00    -0.054 C  
ENDROOT
BRANCH   3   5
HETATM    5  C   UNL     1      -6.490  10.283  69.513  1.00  0.00    -0.060 C  
BRANCH   5   6
HETATM    6  C   UNL     1      -6.291  10.268  67.978  1.00  0.00    -0.056 C  
HETATM    7  H   UNL     1      -5.051   8.630  68.131  1.00  0.00     0.000 HD 
HETATM    8  N   UNL     1      -5.586   9.202  67.478  1.00  0.00    -0.041 N  
HETATM    9  O   UNL     1      -6.833  11.102  67.255  1.00  0.00    -0.082 OA 
BRANCH   8  10
HETATM   10  C   UNL     1      -5.561   8.842  66.057  1.00  0.00    -0.045 C  
BRANCH  10  11
HETATM   11  C   UNL     1      -5.136   7.388  65.752  1.00  0.00    -0.024 C  
BRANCH  11  12
HETATM   12  C   UNL     1      -5.677   6.414  66.771  1.00  0.00    -0.013 A  
HETATM   13  C   UNL     1      -5.181   6.410  68.082  1.00  0.00    -0.008 A  
HETATM   14  C   UNL     1      -6.857   4.354  67.229  1.00  0.00    -0.052 A  
HETATM   15  C   UNL     1      -6.560   5.407  66.370  1.00  0.00    -0.056 A  
HETATM   16  C   UNL     1      -6.300   4.317  68.506  1.00  0.00    -0.036 A  
HETATM   17  C   UNL     1      -5.482   5.357  68.941  1.00  0.00    -0.004 A  
ENDBRANCH  11  12
ENDBRANCH  10  11
BRANCH  10  18
HETATM   18  C   UNL     1      -6.959   9.166  65.461  1.00  0.00    -0.081 C  
HETATM   19  N   UNL     1      -8.016   8.813  66.271  1.00  0.00    -0.104 N  
HETATM   20  O   UNL     1      -7.121   9.664  64.348  1.00  0.00    -0.107 OA 
HETATM   21  H   UNL     1      -7.804   8.436  67.194  1.00  0.00     0.000 HD 
BRANCH  19  22
HETATM   22  C   UNL     1      -9.421   8.944  65.890  1.00  0.00    -0.234 C  
BRANCH  22  23
HETATM   23  C   UNL     1      -9.668  10.454  65.757  1.00  0.00    -0.228 C  
HETATM   24  O   UNL     1      -9.317  11.253  66.623  1.00  0.00    -0.173 OA 
BRANCH  23  25
HETATM   25  C   UNL     1     -10.344  10.965  64.529  1.00  0.00    -0.348 C  
HETATM   26  O   UNL     1     -10.287  10.095  63.387  1.00  0.00     0.366 OA 
HETATM   27  C   UNL     1     -11.615  11.748  64.639  1.00  0.00    -0.270 C  
HETATM   28  C   UNL     1      -9.448  11.255  63.334  1.00  0.00    -0.293 C  
ENDBRANCH  23  25
ENDBRANCH  22  23
BRANCH  22  29
HETATM   29  C   UNL     1     -10.390   8.283  66.887  1.00  0.00    -0.391 C  
HETATM   30  C   UNL     1     -10.246   6.760  67.117  1.00  0.00    -0.291 C  
HETATM   31  C   UNL     1     -11.245   6.299  68.186  1.00  0.00    -0.239 C  
HETATM   32  C   UNL     1     -10.457   5.899  65.868  1.00  0.00     0.346 C  
ENDBRANCH  22  29
ENDBRANCH  19  22
ENDBRANCH  10  18
ENDBRANCH   8  10
ENDBRANCH   5   6
BRANCH   5  33
HETATM   33  N   UNL     1      -7.817  10.833  69.812  1.00  0.00    -0.368 N  
HETATM   34  H   UNL     1      -7.869  11.723  70.309  1.00  0.00     0.000 HD 
HETATM   35  O   UNL     1      -9.043   9.142  68.860  1.00  0.00    -0.138 OA 
HETATM   36  C   UNL     1      -8.995  10.215  69.458  1.00  0.00    -0.188 C  
BRANCH  36  37
HETATM   37  C   UNL     1     -10.268  10.994  69.844  1.00  0.00     0.405 C  
BRANCH  37  38
HETATM   38  N   UNL     1     -10.294  12.293  69.164  1.00  0.00    -0.426 N  
HETATM   39  O   UNL     1     -12.268  11.783  68.161  1.00  0.00    -0.507 OA 
HETATM   40  C   UNL     1     -11.350  12.594  68.341  1.00  0.00    -0.290 C  
HETATM   41  H   UNL     1      -9.537  12.963  69.300  1.00  0.00     0.000 HD 
BRANCH  40  42
HETATM   42  C   UNL     1     -11.410  13.979  67.686  1.00  0.00    -0.312 C  
BRANCH  42  43
HETATM   43  N   UNL     1     -10.405  14.971  68.138  1.00  0.00    -0.237 NA 
HETATM   44  C   UNL     1      -8.617  14.873  66.281  1.00  0.00     0.162 C  
HETATM   45  C   UNL     1     -10.719  16.294  67.523  1.00  0.00    -0.300 C  
HETATM   46  O   UNL     1      -9.046  16.139  65.767  1.00  0.00    -0.398 OA 
HETATM   47  C   UNL     1     -10.439  16.351  66.009  1.00  0.00    -0.323 C  
HETATM   48  C   UNL     1      -9.010  14.644  67.757  1.00  0.00    -0.181 C  
ENDBRANCH  42  43
ENDBRANCH  40  42
ENDBRANCH  37  38
BRANCH  37  49
HETATM   49  C   UNL     1     -11.492  10.130  69.521  1.00  0.00    -0.227 C  
BRANCH  49  50
HETATM   50  C   UNL     1     -12.336   9.895  70.784  1.00  0.00    -0.363 C  
BRANCH  50  51
HETATM   51  C   UNL     1     -12.063   8.558  71.416  1.00  0.00    -0.345 A  
HETATM   52  C   UNL     1     -11.241   8.461  72.545  1.00  0.00    -0.406 A  
HETATM   53  C   UNL     1     -10.992   7.220  73.130  1.00  0.00    -0.384 A  
HETATM   54  C   UNL     1     -12.388   6.155  71.473  1.00  0.00     0.148 A  
HETATM   55  C   UNL     1     -12.638   7.395  70.885  1.00  0.00    -0.187 A  
HETATM   56  C   UNL     1     -11.566   6.068  72.594  1.00  0.00    -0.266 A  
ENDBRANCH  50  51
ENDBRANCH  49  50
ENDBRANCH  37  49
ENDBRANCH  36  37
ENDBRANCH   5  33
ENDBRANCH   3   5
TORSDOF 18
ENDMDL
MODEL       64
REMARK 921   NORMALIZED FREE ENERGY PREDICTED BY IDOCK:    0.48 KCAL/MOL
REMARK 922        TOTAL FREE ENERGY PREDICTED BY IDOCK:   -2.65 KCAL/MOL
REMARK 923 INTER-LIGAND FREE ENERGY PREDICTED BY IDOCK:   -8.18 KCAL/MOL
REMARK 924 INTRA-LIGAND FREE ENERGY PREDICTED BY IDOCK:    5.54 KCAL/MOL
REMARK 927      BINDING AFFINITY PREDICTED BY RF-SCORE:    0.00 PKD
ROOT
HETATM    1  C   UNL     1      -5.971  13.163  68.051  1.00  0.00    -0.117 C  
HETATM    2  C   UNL     1      -6.333  11.916  67.242  1.00  0.00    -0.143 C  
HETATM    3  C   UNL     1      -6.826  10.724  68.091  1.00  0.00    -0.068 C  
HETATM    4  C   UNL     1      -5.127  11.507  66.388  1.00  0.00    -0.069 C  
ENDROOT
BRANCH   3   5
HETATM    5  C   UNL     1      -8.099  10.979  68.925  1.00  0.00    -0.135 C  
BRANCH   5   6
HETATM    6  C   UNL     1      -8.953  12.220  68.563  1.00  0.00    -0.070 C  
HETATM    7  H   UNL     1      -8.659  11.867  66.555  1.00  0.00     0.000 HD 
HETATM    8  N   UNL     1      -9.212  12.397  67.228  1.00  0.00    -0.181 N  
HETATM    9  O   UNL     1      -9.455  12.927  69.436  1.00  0.00     0.720 OA 
BRANCH   8  10
HETATM   10  C   UNL     1     -10.241  13.308  66.716  1.00  0.00    -0.254 C  
BRANCH  10  11
HETATM   11  C   UNL     1     -11.683  13.003  67.182  1.00  0.00    -0.439 C  
BRANCH  11  12
HETATM   12  C   UNL     1     -11.987  13.624  68.524  1.00  0.00    -0.396 A  
HETATM   13  C   UNL     1     -12.088  12.824  69.671  1.00  0.00    -0.286 A  
HETATM   14  C   UNL     1     -12.861  15.499  69.776  1.00  0.00     0.138 A  
HETATM   15  C   UNL     1     -12.326  14.978  68.602  1.00  0.00     0.050 A  
HETATM   16  C   UNL     1     -13.030  14.679  70.890  1.00  0.00    -0.425 A  
HETATM   17  C   UNL     1     -12.621  13.348  70.845  1.00  0.00    -0.406 A  
ENDBRANCH  11  12
ENDBRANCH  10  11
BRANCH  10  18
HETATM   18  C   UNL     1      -9.816  14.757  67.083  1.00  0.00    -0.232 C  
HETATM   19  N   UNL     1      -9.352  15.498  66.018  1.00  0.00    -0.339 N  
HETATM   20  O   UNL     1      -9.854  15.204  68.228  1.00  0.00    -0.216 OA 
HETATM   21  H   UNL     1      -9.381  15.072  65.092  1.00  0.00     0.000 HD 
BRANCH  19  22
HETATM   22  C   UNL     1      -8.821  16.855  66.132  1.00  0.00    -0.244 C  
BRANCH  22  23
HETATM   23  C   UNL     1      -7.318  16.683  66.400  1.00  0.00    -0.181 C  
HETATM   24  O   UNL     1      -6.828  15.598  66.707  1.00  0.00    -0.203 OA 
BRANCH  23  25
HETATM   25  C   UNL     1      -6.426  17.872  66.271  1.00  0.00    -0.244 C  
HETATM   26  O   UNL     1      -6.296  18.403  64.943  1.00  0.00    -0.397 OA 
HETATM   27  C   UNL     1      -6.389  18.908  67.351  1.00  0.00    -0.195 C  
HETATM   28  C   UNL     1      -5.164  17.683  65.443  1.00  0.00     0.129 C  
ENDBRANCH  23  25
ENDBRANCH  22  23
BRANCH  22  29
HETATM   29  C   UNL     1      -9.513  17.695  67.221  1.00  0.00    -0.257 C  
HETATM   30  C   UNL     1     -10.441  18.841  66.754  1.00  0.00    -0.478 C  
HETATM   31  C   UNL     1     -11.088  19.515  67.971  1.00  0.00     0.200 C  
HETATM   32  C   UNL     1      -9.752  19.926  65.922  1.00  0.00    -0.379 C  
ENDBRANCH  22  29
ENDBRANCH  19  22
ENDBRANCH  10  18
ENDBRANCH   8  10
ENDBRANCH   5   6
BRANCH   5  33
HETATM   33  N   UNL     1      -8.978   9.807  68.999  1.00  0.00    -0.145 N  
HETATM   34  H   UNL     1      -9.933   9.940  69.334  1.00  0.00     0.000 HD 
HETATM   35  O   UNL     1      -7.458   8.268  68.229  1.00  0.00    -0.093 OA 
HETATM   36  C   UNL     1      -8.584   8.536  68.642  1.00  0.00    -0.135 C  
BRANCH  36  37
HETATM   37  C   UNL     1      -9.686   7.466  68.768  1.00  0.00    -0.149 C  
BRANCH  37  38
HETATM   38  N   UNL     1     -10.341   7.564  70.077  1.00  0.00    -0.216 N  
HETATM   39  O   UNL     1     -10.528   5.303  70.206  1.00  0.00    -0.279 OA 
HETATM   40  C   UNL     1     -10.721   6.413  70.720  1.00  0.00    -0.250 C  
HETATM   41  H   UNL     1     -10.512   8.475  70.502  1.00  0.00     0.000 HD 
BRANCH  40  42
HETATM   42  C   UNL     1     -11.342   6.514  72.118  1.00  0.00    -0.282 C  
BRANCH  42  43
HETATM   43  N   UNL     1     -10.431   6.291  73.267  1.00  0.00    -0.232 NA 
HETATM   44  C   UNL     1      -8.104   6.221  72.156  1.00  0.00    -0.109 C  
HETATM   45  C   UNL     1      -9.956   7.613  73.772  1.00  0.00    -0.117 C  
HETATM   46  O   UNL     1      -7.790   7.518  72.675  1.00  0.00    -0.089 OA 
HETATM   47  C   UNL     1      -8.967   8.315  72.822  1.00  0.00    -0.253 C  
HETATM   48  C   UNL     1      -9.221   5.499  72.941  1.00  0.00    -0.134 C  
ENDBRANCH  42  43
ENDBRANCH  40  42
ENDBRANCH  37  38
BRANCH  37  49
HETATM   49  C   UNL     1     -10.665   7.626  67.601  1.00  0.00    -0.246 C  
BRANCH  49  50
HETATM   50  C   UNL     1     -10.583   6.416  66.656  1.00  0.00    -0.253 C  
BRANCH  50  51
HETATM   51  C   UNL     1      -9.263   6.337  65.940  1.00  0.00    -0.050 A  
HETATM   52  C   UNL     1      -8.910   7.307  64.995  1.00  0.00     0.310 A  
HETATM   53  C   UNL     1      -7.684   7.232  64.334  1.00  0.00    -0.120 A  
HETATM   54  C   UNL     1      -7.143   5.223  65.559  1.00  0.00    -0.067 A  
HETATM   55  C   UNL     1      -8.369   5.295  66.220  1.00  0.00    -0.114 A  
HETATM   56  C   UNL     1      -6.801   6.191  64.617  1.00  0.00    -0.047 A  
ENDBRANCH  50  51
ENDBRANCH  49  50
ENDBRANCH  37  49
ENDBRANCH  36  37
ENDBRANCH   5  33
ENDBRANCH   3   5
TORSDOF 18
ENDMDL
MODEL       65
REMARK 921   NORMALIZED FREE ENERGY PREDICTED BY IDOCK:    0.61 KCAL/MOL
REMARK 922        TOTAL FREE ENERGY PREDICTED BY IDOCK:   -2.38 KCAL/MOL
REMARK 923 INTER-LIGAND FREE ENERGY PREDICTED BY IDOCK:  -10.09 KCAL/MOL
REMARK 924 INTRA-LIGAND FREE ENERGY PREDICTED BY IDOCK:    7.71 KCAL/MOL
REMARK 927      BINDING AFFINITY PREDICTED BY RF-SCORE:    0.00 PKD
ROOT
HETATM    1  C   UNL     1      -5.660  12.710  67.284  1.00  0.00    -0.034 C  
HETATM    2  C   UNL     1      -6.213  11.435  66.641  1.00  0.00    -0.137 C  
HETATM    3  C   UNL     1      -6.764  10.400  67.646  1.00  0.00    -0.074 C  
HETATM    4  C   UNL     1      -5.126  10.807  65.762  1.00  0.00    -0.118 C  
ENDROOT
BRANCH   3   5
HETATM    5  C   UNL     1      -7.936  10.882  68.527  1.00  0.00    -0.134 C  
BRANCH   5   6
HETATM    6  C   UNL     1      -8.727  12.124  68.045  1.00  0.00    -0.180 C  
HETATM    7  H   UNL     1      -8.645  11.451  66.099  1.00  0.00     0.000 HD 
HETATM    8  N   UNL     1      -9.094  12.121  66.723  1.00  0.00    -0.202 N  
HETATM    9  O   UNL     1      -9.095  12.993  68.834  1.00  0.00     0.103 OA 
BRANCH   8  10
HETATM   10  C   UNL     1     -10.097  13.030  66.160  1.00  0.00    -0.285 C  
BRANCH  10  11
HETATM   11  C   UNL     1     -11.567  12.595  66.357  1.00  0.00    -0.441 C  
BRANCH  11  12
HETATM   12  C   UNL     1     -11.914  12.418  67.816  1.00  0.00    -0.252 A  
HETATM   13  C   UNL     1     -12.141  13.534  68.633  1.00  0.00    -0.303 A  
HETATM   14  C   UNL     1     -11.908  11.005  69.778  1.00  0.00    -0.421 A  
HETATM   15  C   UNL     1     -11.852  11.147  68.395  1.00  0.00    -0.302 A  
HETATM   16  C   UNL     1     -12.058  12.128  70.589  1.00  0.00    -0.344 A  
HETATM   17  C   UNL     1     -12.199  13.390  70.016  1.00  0.00    -0.367 A  
ENDBRANCH  11  12
ENDBRANCH  10  11
BRANCH  10  18
HETATM   18  C   UNL     1      -9.837  14.446  66.745  1.00  0.00    -0.264 C  
HETATM   19  N   UNL     1      -8.900  15.181  66.053  1.00  0.00    -0.435 N  
HETATM   20  O   UNL     1     -10.388  14.871  67.759  1.00  0.00    -0.241 OA 
HETATM   21  H   UNL     1      -8.509  14.777  65.203  1.00  0.00     0.000 HD 
BRANCH  19  22
HETATM   22  C   UNL     1      -8.431  16.505  66.461  1.00  0.00    -0.293 C  
BRANCH  22  23
HETATM   23  C   UNL     1      -7.237  16.244  67.392  1.00  0.00    -0.169 C  
HETATM   24  O   UNL     1      -7.011  15.135  67.871  1.00  0.00    -0.120 OA 
BRANCH  23  25
HETATM   25  C   UNL     1      -6.317  17.374  67.712  1.00  0.00    -0.149 C  
HETATM   26  O   UNL     1      -5.521  17.204  68.895  1.00  0.00    -0.139 OA 
HETATM   27  C   UNL     1      -5.629  18.121  66.612  1.00  0.00    -0.177 C  
HETATM   28  C   UNL     1      -6.604  18.136  68.998  1.00  0.00    -0.250 C  
ENDBRANCH  23  25
ENDBRANCH  22  23
BRANCH  22  29
HETATM   29  C   UNL     1      -9.519  17.360  67.136  1.00  0.00    -0.257 C  
HETATM   30  C   UNL     1      -9.897  18.696  66.457  1.00  0.00    -0.388 C  
HETATM   31  C   UNL     1     -11.037  19.369  67.233  1.00  0.00    -0.293 C  
HETATM   32  C   UNL     1      -8.749  19.702  66.335  1.00  0.00    -0.404 C  
ENDBRANCH  22  29
ENDBRANCH  19  22
ENDBRANCH  10  18
ENDBRANCH   8  10
ENDBRANCH   5   6
BRANCH   5  33
HETATM   33  N   UNL     1      -8.886   9.812  68.848  1.00  0.00    -0.134 N  
HETATM   34  H   UNL     1      -9.763  10.067  69.303  1.00  0.00     0.000 HD 
HETATM   35  O   UNL     1      -7.637   8.071  68.025  1.00  0.00    -0.107 OA 
HETATM   36  C   UNL     1      -8.659   8.483  68.569  1.00  0.00    -0.138 C  
BRANCH  36  37
HETATM   37  C   UNL     1      -9.813   7.540  68.965  1.00  0.00    -0.170 C  
BRANCH  37  38
HETATM   38  N   UNL     1     -10.360   7.926  70.269  1.00  0.00    -0.208 N  
HETATM   39  O   UNL     1      -8.340   7.612  71.263  1.00  0.00    -0.104 OA 
HETATM   40  C   UNL     1      -9.532   7.935  71.363  1.00  0.00    -0.150 C  
HETATM   41  H   UNL     1     -11.342   8.184  70.362  1.00  0.00     0.000 HD 
BRANCH  40  42
HETATM   42  C   UNL     1     -10.087   8.406  72.712  1.00  0.00    -0.198 C  
BRANCH  42  43
HETATM   43  N   UNL     1     -11.340   7.762  73.175  1.00  0.00    -0.293 NA 
HETATM   44  C   UNL     1     -12.568   7.230  70.969  1.00  0.00    -0.263 C  
HETATM   45  C   UNL     1     -11.140   6.283  73.215  1.00  0.00    -0.116 C  
HETATM   46  O   UNL     1     -12.272   5.836  71.112  1.00  0.00     0.519 OA 
HETATM   47  C   UNL     1     -11.047   5.637  71.819  1.00  0.00    -0.199 C  
HETATM   48  C   UNL     1     -12.512   8.010  72.301  1.00  0.00    -0.261 C  
ENDBRANCH  42  43
ENDBRANCH  40  42
ENDBRANCH  37  38
BRANCH  37  49
HETATM   49  C   UNL     1     -10.866   7.555  67.851  1.00  0.00    -0.128 C  
BRANCH  49  50
HETATM   50  C   UNL     1     -11.088   6.139  67.298  1.00  0.00    -0.334 C  
BRANCH  50  51
HETATM   51  C   UNL     1      -9.803   5.478  66.881  1.00  0.00    -0.181 A  
HETATM   52  C   UNL     1      -9.084   5.956  65.779  1.00  0.00    -0.101 A  
HETATM   53  C   UNL     1      -7.891   5.343  65.397  1.00  0.00    -0.095 A  
HETATM   54  C   UNL     1      -8.113   3.771  67.217  1.00  0.00    -0.091 A  
HETATM   55  C   UNL     1      -9.307   4.382  67.600  1.00  0.00    -0.186 A  
HETATM   56  C   UNL     1      -7.406   4.251  66.116  1.00  0.00    -0.076 A  
ENDBRANCH  50  51
ENDBRANCH  49  50
ENDBRANCH  37  49
ENDBRANCH  36  37
ENDBRANCH   5  33
ENDBRANCH   3   5
TORSDOF 18
ENDMDL
MODEL       66
REMARK 921   NORMALIZED FREE ENERGY PREDICTED BY IDOCK:    0.70 KCAL/MOL
REMARK 922        TOTAL FREE ENERGY PREDICTED BY IDOCK:   -2.19 KCAL/MOL
REMARK 923 INTER-LIGAND FREE ENERGY PREDICTED BY IDOCK:   -7.35 KCAL/MOL
REMARK 924 INTRA-LIGAND FREE ENERGY PREDICTED BY IDOCK:    5.17 KCAL/MOL
REMARK 927      BINDING AFFINITY PREDICTED BY RF-SCORE:    0.00 PKD
ROOT
HETATM    1  C   UNL     1      -5.621  11.313  71.689  1.00  0.00     0.383 C  
HETATM    2  C   UNL     1      -6.089  12.613  71.030  1.00  0.00     0.594 C  
HETATM    3  C   UNL     1      -5.801  12.702  69.515  1.00  0.00    -0.105 C  
HETATM    4  C   UNL     1      -5.460  13.801  71.768  1.00  0.00    -0.208 C  
ENDROOT
BRANCH   3   5
HETATM    5  C   UNL     1      -6.464  11.612  68.646  1.00  0.00    -0.059 C  
BRANCH   5   6
HETATM    6  C   UNL     1      -5.775  10.227  68.589  1.00  0.00    -0.037 C  
HETATM    7  H   UNL     1      -6.187   9.913  70.583  1.00  0.00     0.000 HD 
HETATM    8  N   UNL     1      -5.882   9.460  69.722  1.00  0.00    -0.035 N  
HETATM    9  O   UNL     1      -5.268   9.807  67.550  1.00  0.00    -0.036 OA 
BRANCH   8  10
HETATM   10  C   UNL     1      -5.581   8.026  69.761  1.00  0.00    -0.023 C  
BRANCH  10  11
HETATM   11  C   UNL     1      -5.665   7.371  71.158  1.00  0.00    -0.035 C  
BRANCH  11  12
HETATM   12  C   UNL     1      -6.852   7.872  71.947  1.00  0.00    -0.064 A  
HETATM   13  C   UNL     1      -6.781   7.983  73.343  1.00  0.00    -0.115 A  
HETATM   14  C   UNL     1      -9.233   8.279  72.052  1.00  0.00    -0.270 A  
HETATM   15  C   UNL     1      -8.077   8.076  71.305  1.00  0.00    -0.110 A  
HETATM   16  C   UNL     1      -9.167   8.312  73.443  1.00  0.00    -0.221 A  
HETATM   17  C   UNL     1      -7.939   8.188  74.088  1.00  0.00    -0.305 A  
ENDBRANCH  11  12
ENDBRANCH  10  11
BRANCH  10  18
HETATM   18  C   UNL     1      -6.514   7.318  68.740  1.00  0.00    -0.040 C  
HETATM   19  N   UNL     1      -7.315   6.340  69.288  1.00  0.00    -0.089 N  
HETATM   20  O   UNL     1      -6.521   7.576  67.537  1.00  0.00    -0.053 OA 
HETATM   21  H   UNL     1      -7.279   6.205  70.298  1.00  0.00     0.000 HD 
BRANCH  19  22
HETATM   22  C   UNL     1      -8.212   5.485  68.513  1.00  0.00    -0.098 C  
BRANCH  22  23
HETATM   23  C   UNL     1      -9.191   4.890  69.537  1.00  0.00    -0.119 C  
HETATM   24  O   UNL     1     -10.381   5.201  69.562  1.00  0.00    -0.251 OA 
BRANCH  23  25
HETATM   25  C   UNL     1      -8.681   3.893  70.522  1.00  0.00    -0.076 C  
HETATM   26  O   UNL     1      -7.716   2.960  70.011  1.00  0.00    -0.044 OA 
HETATM   27  C   UNL     1      -8.455   4.289  71.948  1.00  0.00    -0.112 C  
HETATM   28  C   UNL     1      -9.027   2.436  70.250  1.00  0.00    -0.095 C  
ENDBRANCH  23  25
ENDBRANCH  22  23
BRANCH  22  29
HETATM   29  C   UNL     1      -7.479   4.395  67.710  1.00  0.00    -0.069 C  
HETATM   30  C   UNL     1      -8.148   3.900  66.407  1.00  0.00    -0.097 C  
HETATM   31  C   UNL     1      -7.242   2.872  65.716  1.00  0.00    -0.066 C  
HETATM   32  C   UNL     1      -9.528   3.265  66.594  1.00  0.00    -0.118 C  
ENDBRANCH  22  29
ENDBRANCH  19  22
ENDBRANCH  10  18
ENDBRANCH   8  10
ENDBRANCH   5   6
BRANCH   5  33
HETATM   33  N   UNL     1      -7.885  11.421  68.956  1.00  0.00    -0.304 N  
HETATM   34  H   UNL     1      -8.326  12.066  69.612  1.00  0.00     0.000 HD 
HETATM   35  O   UNL     1      -8.222   9.591  67.610  1.00  0.00    -0.119 OA 
HETATM   36  C   UNL     1      -8.656  10.420  68.409  1.00  0.00    -0.128 C  
BRANCH  36  37
HETATM   37  C   UNL     1     -10.132  10.434  68.853  1.00  0.00    -0.201 C  
BRANCH  37  38
HETATM   38  N   UNL     1     -10.427  11.664  69.595  1.00  0.00    -0.369 N  
HETATM   39  O   UNL     1     -10.894  12.773  67.667  1.00  0.00    -0.221 OA 
HETATM   40  C   UNL     1     -10.808  12.785  68.903  1.00  0.00    -0.196 C  
HETATM   41  H   UNL     1     -10.350  11.684  70.612  1.00  0.00     0.000 HD 
BRANCH  40  42
HETATM   42  C   UNL     1     -11.183  14.049  69.685  1.00  0.00    -0.164 C  
BRANCH  42  43
HETATM   43  N   UNL     1     -10.083  15.001  69.975  1.00  0.00    -0.072 NA 
HETATM   44  C   UNL     1      -8.934  15.276  67.681  1.00  0.00    -0.179 C  
HETATM   45  C   UNL     1     -10.560  16.390  69.705  1.00  0.00    -0.307 C  
HETATM   46  O   UNL     1      -9.490  16.587  67.532  1.00  0.00    -0.222 OA 
HETATM   47  C   UNL     1     -10.745  16.697  68.206  1.00  0.00    -0.351 C  
HETATM   48  C   UNL     1      -8.868  14.799  69.149  1.00  0.00    -0.084 C  
ENDBRANCH  42  43
ENDBRANCH  40  42
ENDBRANCH  37  38
BRANCH  37  49
HETATM   49  C   UNL     1     -11.020  10.259  67.616  1.00  0.00    -0.356 C  
BRANCH  49  50
HETATM   50  C   UNL     1     -10.243   9.566  66.486  1.00  0.00    -0.307 C  
BRANCH  50  51
HETATM   51  C   UNL     1     -10.132  10.425  65.256  1.00  0.00    -0.370 A  
HETATM   52  C   UNL     1     -10.903  11.586  65.131  1.00  0.00    -0.326 A  
HETATM   53  C   UNL     1     -10.796  12.382  63.990  1.00  0.00    -0.441 A  
HETATM   54  C   UNL     1      -9.140  10.875  63.089  1.00  0.00    -0.277 A  
HETATM   55  C   UNL     1      -9.246  10.076  64.228  1.00  0.00    -0.318 A  
HETATM   56  C   UNL     1      -9.914  12.026  62.971  1.00  0.00    -0.063 A  
ENDBRANCH  50  51
ENDBRANCH  49  50
ENDBRANCH  37  49
ENDBRANCH  36  37
ENDBRANCH   5  33
ENDBRANCH   3   5
TORSDOF 18
ENDMDL
MODEL       67
REMARK 921   NORMALIZED FREE ENERGY PREDICTED BY IDOCK:    0.95 KCAL/MOL
REMARK 922        TOTAL FREE ENERGY PREDICTED BY IDOCK:   -1.67 KCAL/MOL
REMARK 923 INTER-LIGAND FREE ENERGY PREDICTED BY IDOCK:   -8.97 KCAL/MOL
REMARK 924 INTRA-LIGAND FREE ENERGY PREDICTED BY IDOCK:    7.29 KCAL/MOL
REMARK 927      BINDING AFFINITY PREDICTED BY RF-SCORE:    0.00 PKD
ROOT
HETATM    1  C   UNL     1     -11.132  10.367  66.044  1.00  0.00     0.324 C  
HETATM    2  C   UNL     1     -11.248  11.835  65.623  1.00  0.00    -0.324 C  
HETATM    3  C   UNL     1     -12.236  12.666  66.471  1.00  0.00    -0.130 C  
HETATM    4  C   UNL     1     -11.624  11.900  64.139  1.00  0.00    -0.434 C  
ENDROOT
BRANCH   3   5
HETATM    5  C   UNL     1     -11.909  12.760  67.976  1.00  0.00    -0.336 C  
BRANCH   5   6
HETATM    6  C   UNL     1     -11.811  11.434  68.770  1.00  0.00    -0.323 C  
HETATM    7  H   UNL     1      -9.942  11.956  69.461  1.00  0.00     0.000 HD 
HETATM    8  N   UNL     1     -10.718  11.307  69.589  1.00  0.00    -0.106 N  
HETATM    9  O   UNL     1     -12.720  10.606  68.744  1.00  0.00     0.058 OA 
BRANCH   8  10
HETATM   10  C   UNL     1     -10.607  10.290  70.639  1.00  0.00     0.035 C  
BRANCH  10  11
HETATM   11  C   UNL     1     -11.836   9.367  70.797  1.00  0.00    -0.323 C  
BRANCH  11  12
HETATM   12  C   UNL     1     -11.466   8.028  71.388  1.00  0.00    -0.293 A  
HETATM   13  C   UNL     1     -11.307   7.881  72.773  1.00  0.00    -0.453 A  
HETATM   14  C   UNL     1     -10.530   5.821  71.065  1.00  0.00    -0.307 A  
HETATM   15  C   UNL     1     -11.123   6.967  70.544  1.00  0.00    -0.316 A  
HETATM   16  C   UNL     1     -10.306   5.714  72.436  1.00  0.00    -0.245 A  
HETATM   17  C   UNL     1     -10.716   6.733  73.293  1.00  0.00    -0.330 A  
ENDBRANCH  11  12
ENDBRANCH  10  11
BRANCH  10  18
HETATM   18  C   UNL     1      -9.311   9.475  70.375  1.00  0.00    -0.257 C  
HETATM   19  N   UNL     1      -8.919   9.446  69.056  1.00  0.00    -0.138 N  
HETATM   20  O   UNL     1      -8.698   8.875  71.257  1.00  0.00    -0.196 OA 
HETATM   21  H   UNL     1      -9.457   9.996  68.386  1.00  0.00     0.000 HD 
BRANCH  19  22
HETATM   22  C   UNL     1      -7.780   8.678  68.554  1.00  0.00    -0.100 C  
BRANCH  22  23
HETATM   23  C   UNL     1      -8.374   7.360  68.037  1.00  0.00    -0.124 C  
HETATM   24  O   UNL     1      -9.232   6.739  68.662  1.00  0.00    -0.134 OA 
BRANCH  23  25
HETATM   25  C   UNL     1      -7.902   6.825  66.727  1.00  0.00    -0.107 C  
HETATM   26  O   UNL     1      -8.490   7.432  65.565  1.00  0.00    -0.144 OA 
HETATM   27  C   UNL     1      -6.471   6.422  66.549  1.00  0.00    -0.047 C  
HETATM   28  C   UNL     1      -8.939   6.108  65.875  1.00  0.00    -0.121 C  
ENDBRANCH  23  25
ENDBRANCH  22  23
BRANCH  22  29
HETATM   29  C   UNL     1      -6.684   8.447  69.610  1.00  0.00    -0.037 C  
HETATM   30  C   UNL     1      -6.170   9.683  70.385  1.00  0.00    -0.071 C  
HETATM   31  C   UNL     1      -5.137   9.246  71.433  1.00  0.00    -0.042 C  
HETATM   32  C   UNL     1      -5.531  10.767  69.513  1.00  0.00    -0.038 C  
ENDBRANCH  22  29
ENDBRANCH  19  22
ENDBRANCH  10  18
ENDBRANCH   8  10
ENDBRANCH   5   6
BRANCH   5  33
HETATM   33  N   UNL     1     -10.713  13.564  68.252  1.00  0.00    -0.250 N  
HETATM   34  H   UNL     1      -9.850  13.077  68.495  1.00  0.00     0.000 HD 
HETATM   35  O   UNL     1     -11.676  15.622  67.918  1.00  0.00    -0.262 OA 
HETATM   36  C   UNL     1     -10.692  14.940  68.199  1.00  0.00    -0.251 C  
BRANCH  36  37
HETATM   37  C   UNL     1      -9.316  15.571  68.491  1.00  0.00    -0.197 C  
BRANCH  37  38
HETATM   38  N   UNL     1      -9.483  16.884  69.121  1.00  0.00    -0.192 N  
HETATM   39  O   UNL     1      -8.432  17.906  67.384  1.00  0.00    -0.230 OA 
HETATM   40  C   UNL     1      -9.006  17.998  68.478  1.00  0.00    -0.289 C  
HETATM   41  H   UNL     1      -9.946  16.968  70.026  1.00  0.00     0.000 HD 
BRANCH  40  42
HETATM   42  C   UNL     1      -9.242  19.377  69.105  1.00  0.00    -0.177 C  
BRANCH  42  43
HETATM   43  N   UNL     1      -8.904  20.554  68.268  1.00  0.00     0.190 NA 
HETATM   44  C   UNL     1      -7.994  19.484  66.104  1.00  0.00    -0.330 C  
HETATM   45  C   UNL     1     -10.074  20.886  67.403  1.00  0.00     0.069 C  
HETATM   46  O   UNL     1      -9.191  19.832  65.400  1.00  0.00    -0.118 OA 
HETATM   47  C   UNL     1     -10.318  19.862  66.278  1.00  0.00    -0.495 C  
HETATM   48  C   UNL     1      -7.749  20.346  67.362  1.00  0.00    -0.328 C  
ENDBRANCH  42  43
ENDBRANCH  40  42
ENDBRANCH  37  38
BRANCH  37  49
HETATM   49  C   UNL     1      -8.501  14.599  69.349  1.00  0.00     0.100 C  
BRANCH  49  50
HETATM   50  C   UNL     1      -7.067  14.471  68.809  1.00  0.00    -0.112 C  
BRANCH  50  51
HETATM   51  C   UNL     1      -6.402  15.807  68.627  1.00  0.00    -0.107 A  
HETATM   52  C   UNL     1      -6.320  16.710  69.694  1.00  0.00    -0.217 A  
HETATM   53  C   UNL     1      -5.700  17.947  69.522  1.00  0.00    -0.229 A  
HETATM   54  C   UNL     1      -5.227  17.395  67.220  1.00  0.00    -0.149 A  
HETATM   55  C   UNL     1      -5.848  16.158  67.388  1.00  0.00    -0.166 A  
HETATM   56  C   UNL     1      -5.153  18.289  68.286  1.00  0.00    -0.167 A  
ENDBRANCH  50  51
ENDBRANCH  49  50
ENDBRANCH  37  49
ENDBRANCH  36  37
ENDBRANCH   5  33
ENDBRANCH   3   5
TORSDOF 18
ENDMDL
MODEL       68
REMARK 921   NORMALIZED FREE ENERGY PREDICTED BY IDOCK:    1.50 KCAL/MOL
REMARK 922        TOTAL FREE ENERGY PREDICTED BY IDOCK:   -0.55 KCAL/MOL
REMARK 923 INTER-LIGAND FREE ENERGY PREDICTED BY IDOCK:   -2.91 KCAL/MOL
REMARK 924 INTRA-LIGAND FREE ENERGY PREDICTED BY IDOCK:    2.36 KCAL/MOL
REMARK 927      BINDING AFFINITY PREDICTED BY RF-SCORE:    0.00 PKD
ROOT
HETATM    1  C   UNL     1     -10.853  16.359  70.366  1.00  0.00    -0.149 C  
HETATM    2  C   UNL     1     -11.204  14.886  70.591  1.00  0.00    -0.229 C  
HETATM    3  C   UNL     1     -10.646  13.924  69.519  1.00  0.00     0.111 C  
HETATM    4  C   UNL     1     -12.727  14.746  70.700  1.00  0.00    -0.415 C  
ENDROOT
BRANCH   3   5
HETATM    5  C   UNL     1      -9.109  13.899  69.379  1.00  0.00     0.712 C  
BRANCH   5   6
HETATM    6  C   UNL     1      -8.431  12.518  69.202  1.00  0.00     0.639 C  
HETATM    7  H   UNL     1      -7.097  13.319  67.852  1.00  0.00     0.000 HD 
HETATM    8  N   UNL     1      -7.294  12.505  68.434  1.00  0.00    -0.108 N  
HETATM    9  O   UNL     1      -8.832  11.527  69.810  1.00  0.00     0.962 OA 
BRANCH   8  10
HETATM   10  C   UNL     1      -6.349  11.385  68.406  1.00  0.00    -0.046 C  
BRANCH  10  11
HETATM   11  C   UNL     1      -6.177  10.633  69.745  1.00  0.00    -0.085 C  
BRANCH  11  12
HETATM   12  C   UNL     1      -6.295   9.137  69.573  1.00  0.00    -0.043 A  
HETATM   13  C   UNL     1      -7.469   8.470  69.949  1.00  0.00    -0.063 A  
HETATM   14  C   UNL     1      -5.196   7.004  69.280  1.00  0.00    -0.014 A  
HETATM   15  C   UNL     1      -5.177   8.392  69.188  1.00  0.00    -0.031 A  
HETATM   16  C   UNL     1      -6.343   6.350  69.727  1.00  0.00    -0.038 A  
HETATM   17  C   UNL     1      -7.487   7.081  70.038  1.00  0.00    -0.090 A  
ENDBRANCH  11  12
ENDBRANCH  10  11
BRANCH  10  18
HETATM   18  C   UNL     1      -6.783  10.426  67.264  1.00  0.00    -0.076 C  
HETATM   19  N   UNL     1      -8.030  10.692  66.744  1.00  0.00    -0.127 N  
HETATM   20  O   UNL     1      -6.095   9.485  66.872  1.00  0.00    -0.061 OA 
HETATM   21  H   UNL     1      -8.529  11.509  67.095  1.00  0.00     0.000 HD 
BRANCH  19  22
HETATM   22  C   UNL     1      -8.685   9.877  65.721  1.00  0.00    -0.141 C  
BRANCH  22  23
HETATM   23  C   UNL     1      -9.477   8.812  66.494  1.00  0.00    -0.219 C  
HETATM   24  O   UNL     1      -9.331   7.609  66.285  1.00  0.00    -0.176 OA 
BRANCH  23  25
HETATM   25  C   UNL     1     -10.443   9.255  67.540  1.00  0.00    -0.274 C  
HETATM   26  O   UNL     1     -10.013   9.063  68.897  1.00  0.00    -0.177 OA 
HETATM   27  C   UNL     1     -11.272  10.484  67.329  1.00  0.00    -0.202 C  
HETATM   28  C   UNL     1     -11.026   8.165  68.428  1.00  0.00     0.225 C  
ENDBRANCH  23  25
ENDBRANCH  22  23
BRANCH  22  29
HETATM   29  C   UNL     1      -7.702   9.253  64.714  1.00  0.00    -0.111 C  
HETATM   30  C   UNL     1      -7.245  10.133  63.527  1.00  0.00    -0.120 C  
HETATM   31  C   UNL     1      -6.223   9.368  62.676  1.00  0.00    -0.093 C  
HETATM   32  C   UNL     1      -8.373  10.601  62.604  1.00  0.00    -0.217 C  
ENDBRANCH  22  29
ENDBRANCH  19  22
ENDBRANCH  10  18
ENDBRANCH   8  10
ENDBRANCH   5   6
BRANCH   5  33
HETATM   33  N   UNL     1      -8.616  14.805  68.336  1.00  0.00    -0.160 N  
HETATM   34  H   UNL     1      -9.047  14.756  67.412  1.00  0.00     0.000 HD 
HETATM   35  O   UNL     1      -7.019  15.855  69.608  1.00  0.00    -0.198 OA 
HETATM   36  C   UNL     1      -7.604  15.717  68.535  1.00  0.00    -0.138 C  
BRANCH  36  37
HETATM   37  C   UNL     1      -7.277  16.589  67.306  1.00  0.00    -0.168 C  
BRANCH  37  38
HETATM   38  N   UNL     1      -8.476  16.776  66.483  1.00  0.00    -0.256 N  
HETATM   39  O   UNL     1      -8.496  14.572  65.926  1.00  0.00     0.717 OA 
HETATM   40  C   UNL     1      -9.015  15.693  65.834  1.00  0.00    -0.154 C  
HETATM   41  H   UNL     1      -8.903  17.697  66.395  1.00  0.00     0.000 HD 
BRANCH  40  42
HETATM   42  C   UNL     1     -10.307  15.877  65.030  1.00  0.00    -0.159 C  
BRANCH  42  43
HETATM   43  N   UNL     1     -11.506  15.160  65.529  1.00  0.00    -0.270 NA 
HETATM   44  C   UNL     1     -12.705  14.455  63.355  1.00  0.00     1.184 C  
HETATM   45  C   UNL     1     -11.196  13.702  65.622  1.00  0.00    -0.297 C  
HETATM   46  O   UNL     1     -12.305  13.093  63.547  1.00  0.00    -0.680 OA 
HETATM   47  C   UNL     1     -11.064  13.012  64.251  1.00  0.00    -0.385 C  
HETATM   48  C   UNL     1     -12.698  15.287  64.657  1.00  0.00     0.358 C  
ENDBRANCH  42  43
ENDBRANCH  40  42
ENDBRANCH  37  38
BRANCH  37  49
HETATM   49  C   UNL     1      -6.674  17.912  67.787  1.00  0.00    -0.194 C  
BRANCH  49  50
HETATM   50  C   UNL     1      -7.697  18.702  68.620  1.00  0.00    -0.344 C  
BRANCH  50  51
HETATM   51  C   UNL     1      -8.841  19.213  67.788  1.00  0.00    -0.339 A  
HETATM   52  C   UNL     1      -8.606  20.085  66.718  1.00  0.00    -0.396 A  
HETATM   53  C   UNL     1      -9.669  20.554  65.947  1.00  0.00    -0.013 A  
HETATM   54  C   UNL     1     -11.215  19.282  67.295  1.00  0.00    -0.045 A  
HETATM   55  C   UNL     1     -10.154  18.812  68.069  1.00  0.00    -0.417 A  
HETATM   56  C   UNL     1     -10.972  20.152  66.235  1.00  0.00     0.099 A  
ENDBRANCH  50  51
ENDBRANCH  49  50
ENDBRANCH  37  49
ENDBRANCH  36  37
ENDBRANCH   5  33
ENDBRANCH   3   5
TORSDOF 18
ENDMDL
MODEL       69
REMARK 921   NORMALIZED FREE ENERGY PREDICTED BY IDOCK:    1.53 KCAL/MOL
REMARK 922        TOTAL FREE ENERGY PREDICTED BY IDOCK:   -0.48 KCAL/MOL
REMARK 923 INTER-LIGAND FREE ENERGY PREDICTED BY IDOCK:   -4.63 KCAL/MOL
REMARK 924 INTRA-LIGAND FREE ENERGY PREDICTED BY IDOCK:    4.15 KCAL/MOL
REMARK 927      BINDING AFFINITY PREDICTED BY RF-SCORE:    0.00 PKD
ROOT
HETATM    1  C   UNL     1      -8.466   8.818  71.522  1.00  0.00    -0.230 C  
HETATM    2  C   UNL     1      -6.955   8.689  71.727  1.00  0.00    -0.096 C  
HETATM    3  C   UNL     1      -6.132   8.669  70.421  1.00  0.00    -0.031 C  
HETATM    4  C   UNL     1      -6.670   7.436  72.563  1.00  0.00    -0.059 C  
ENDROOT
BRANCH   3   5
HETATM    5  C   UNL     1      -6.257   9.926  69.533  1.00  0.00    -0.045 C  
BRANCH   5   6
HETATM    6  C   UNL     1      -5.976   9.762  68.019  1.00  0.00    -0.043 C  
HETATM    7  H   UNL     1      -4.995   7.984  68.370  1.00  0.00     0.000 HD 
HETATM    8  N   UNL     1      -5.405   8.572  67.644  1.00  0.00    -0.034 N  
HETATM    9  O   UNL     1      -6.351  10.603  67.205  1.00  0.00    -0.064 OA 
BRANCH   8  10
HETATM   10  C   UNL     1      -5.352   8.101  66.257  1.00  0.00    -0.025 C  
BRANCH  10  11
HETATM   11  C   UNL     1      -5.176   6.575  66.083  1.00  0.00    -0.013 C  
BRANCH  11  12
HETATM   12  C   UNL     1      -5.789   6.078  64.796  1.00  0.00    -0.025 A  
HETATM   13  C   UNL     1      -6.871   5.186  64.822  1.00  0.00    -0.049 A  
HETATM   14  C   UNL     1      -5.572   5.718  62.415  1.00  0.00    -0.018 A  
HETATM   15  C   UNL     1      -5.179   6.379  63.575  1.00  0.00    -0.018 A  
HETATM   16  C   UNL     1      -6.599   4.777  62.462  1.00  0.00    -0.026 A  
HETATM   17  C   UNL     1      -7.264   4.529  63.660  1.00  0.00    -0.050 A  
ENDBRANCH  11  12
ENDBRANCH  10  11
BRANCH  10  18
HETATM   18  C   UNL     1      -6.627   8.615  65.532  1.00  0.00    -0.063 C  
HETATM   19  N   UNL     1      -7.803   8.348  66.197  1.00  0.00    -0.099 N  
HETATM   20  O   UNL     1      -6.602   9.183  64.441  1.00  0.00    -0.078 OA 
HETATM   21  H   UNL     1      -7.743   7.904  67.113  1.00  0.00     0.000 HD 
BRANCH  19  22
HETATM   22  C   UNL     1      -9.131   8.661  65.673  1.00  0.00    -0.164 C  
BRANCH  22  23
HETATM   23  C   UNL     1      -9.137  10.182  65.458  1.00  0.00    -0.178 C  
HETATM   24  O   UNL     1      -9.217  10.975  66.395  1.00  0.00    -0.166 OA 
BRANCH  23  25
HETATM   25  C   UNL     1      -9.026  10.710  64.068  1.00  0.00    -0.196 C  
HETATM   26  O   UNL     1     -10.185  11.404  63.579  1.00  0.00    -0.333 OA 
HETATM   27  C   UNL     1      -7.727  11.264  63.572  1.00  0.00     0.955 C  
HETATM   28  C   UNL     1      -9.962  10.098  63.035  1.00  0.00     0.324 C  
ENDBRANCH  23  25
ENDBRANCH  22  23
BRANCH  22  29
HETATM   29  C   UNL     1     -10.277   8.201  66.593  1.00  0.00    -0.329 C  
HETATM   30  C   UNL     1     -10.401   6.684  66.870  1.00  0.00    -0.324 C  
HETATM   31  C   UNL     1     -11.551   6.429  67.854  1.00  0.00     0.565 C  
HETATM   32  C   UNL     1     -10.641   5.822  65.628  1.00  0.00     0.711 C  
ENDBRANCH  22  29
ENDBRANCH  19  22
ENDBRANCH  10  18
ENDBRANCH   8  10
ENDBRANCH   5   6
BRANCH   5  33
HETATM   33  N   UNL     1      -7.539  10.619  69.703  1.00  0.00    -0.302 N  
HETATM   34  H   UNL     1      -7.524  11.594  70.003  1.00  0.00     0.000 HD 
HETATM   35  O   UNL     1      -8.890   8.856  69.120  1.00  0.00    -0.133 OA 
HETATM   36  C   UNL     1      -8.761  10.024  69.481  1.00  0.00    -0.192 C  
BRANCH  36  37
HETATM   37  C   UNL     1      -9.973  10.955  69.688  1.00  0.00     0.135 C  
BRANCH  37  38
HETATM   38  N   UNL     1      -9.818  12.175  68.889  1.00  0.00    -0.417 N  
HETATM   39  O   UNL     1     -11.431  13.228  70.096  1.00  0.00    -0.134 OA 
HETATM   40  C   UNL     1     -10.597  13.266  69.180  1.00  0.00     0.025 C  
HETATM   41  H   UNL     1      -9.141  12.211  68.127  1.00  0.00     0.000 HD 
BRANCH  40  42
HETATM   42  C   UNL     1     -10.386  14.562  68.389  1.00  0.00    -0.241 C  
BRANCH  42  43
HETATM   43  N   UNL     1     -10.466  14.460  66.912  1.00  0.00    -0.268 NA 
HETATM   44  C   UNL     1     -10.397  16.925  66.155  1.00  0.00    -0.320 C  
HETATM   45  C   UNL     1      -9.083  14.432  66.352  1.00  0.00    -0.160 C  
HETATM   46  O   UNL     1      -9.051  16.770  65.691  1.00  0.00    -0.489 OA 
HETATM   47  C   UNL     1      -8.351  15.784  66.453  1.00  0.00    -0.232 C  
HETATM   48  C   UNL     1     -11.168  15.591  66.260  1.00  0.00    -0.096 C  
ENDBRANCH  42  43
ENDBRANCH  40  42
ENDBRANCH  37  38
BRANCH  37  49
HETATM   49  C   UNL     1     -11.252  10.182  69.351  1.00  0.00    -0.265 C  
BRANCH  49  50
HETATM   50  C   UNL     1     -12.119   9.996  70.607  1.00  0.00    -0.381 C  
BRANCH  50  51
HETATM   51  C   UNL     1     -11.851   8.689  71.300  1.00  0.00    -0.344 A  
HETATM   52  C   UNL     1     -11.352   7.595  70.583  1.00  0.00    -0.288 A  
HETATM   53  C   UNL     1     -11.102   6.385  71.229  1.00  0.00    -0.334 A  
HETATM   54  C   UNL     1     -11.835   7.346  73.319  1.00  0.00     0.592 A  
HETATM   55  C   UNL     1     -12.087   8.557  72.675  1.00  0.00    -0.305 A  
HETATM   56  C   UNL     1     -11.343   6.261  72.597  1.00  0.00    -0.283 A  
ENDBRANCH  50  51
ENDBRANCH  49  50
ENDBRANCH  37  49
ENDBRANCH  36  37
ENDBRANCH   5  33
ENDBRANCH   3   5
TORSDOF 18
ENDMDL
MODEL       70
REMARK 921   NORMALIZED FREE ENERGY PREDICTED BY IDOCK:    3.62 KCAL/MOL
REMARK 922        TOTAL FREE ENERGY PREDICTED BY IDOCK:    3.80 KCAL/MOL
REMARK 923 INTER-LIGAND FREE ENERGY PREDICTED BY IDOCK:   -5.09 KCAL/MOL
REMARK 924 INTRA-LIGAND FREE ENERGY PREDICTED BY IDOCK:    8.89 KCAL/MOL
REMARK 927      BINDING AFFINITY PREDICTED BY RF-SCORE:    0.00 PKD
ROOT
HETATM    1  C   UNL     1     -11.169  10.357  66.088  1.00  0.00     0.487 C  
HETATM    2  C   UNL     1     -11.335  11.810  65.637  1.00  0.00    -0.293 C  
HETATM    3  C   UNL     1     -12.376  12.615  66.443  1.00  0.00     0.040 C  
HETATM    4  C   UNL     1     -11.676  11.832  64.143  1.00  0.00    -0.376 C  
ENDROOT
BRANCH   3   5
HETATM    5  C   UNL     1     -12.092  12.751  67.954  1.00  0.00    -0.132 C  
BRANCH   5   6
HETATM    6  C   UNL     1     -11.966  11.444  68.777  1.00  0.00    -0.287 C  
HETATM    7  H   UNL     1     -10.316  12.192  69.758  1.00  0.00     0.000 HD 
HETATM    8  N   UNL     1     -11.017  11.452  69.768  1.00  0.00    -0.126 N  
HETATM    9  O   UNL     1     -12.751  10.511  68.616  1.00  0.00     0.400 OA 
BRANCH   8  10
HETATM   10  C   UNL     1     -10.959  10.454  70.840  1.00  0.00     0.117 C  
BRANCH  10  11
HETATM   11  C   UNL     1     -12.102   9.413  70.836  1.00  0.00    -0.327 C  
BRANCH  11  12
HETATM   12  C   UNL     1     -11.656   8.082  71.394  1.00  0.00    -0.301 A  
HETATM   13  C   UNL     1     -11.449   6.988  70.543  1.00  0.00    -0.363 A  
HETATM   14  C   UNL     1     -11.454   6.612  73.304  1.00  0.00     0.243 A  
HETATM   15  C   UNL     1     -11.603   7.892  72.778  1.00  0.00    -0.387 A  
HETATM   16  C   UNL     1     -11.324   5.518  72.450  1.00  0.00    -0.294 A  
HETATM   17  C   UNL     1     -11.298   5.709  71.070  1.00  0.00    -0.005 A  
ENDBRANCH  11  12
ENDBRANCH  10  11
BRANCH  10  18
HETATM   18  C   UNL     1      -9.564   9.772  70.779  1.00  0.00     0.060 C  
HETATM   19  N   UNL     1      -9.048   9.651  69.508  1.00  0.00    -0.184 N  
HETATM   20  O   UNL     1      -8.978   9.341  71.770  1.00  0.00    -0.298 OA 
HETATM   21  H   UNL     1      -9.576  10.062  68.738  1.00  0.00     0.000 HD 
BRANCH  19  22
HETATM   22  C   UNL     1      -7.792   8.973  69.192  1.00  0.00    -0.093 C  
BRANCH  22  23
HETATM   23  C   UNL     1      -7.376   8.263  70.489  1.00  0.00    -0.056 C  
HETATM   24  O   UNL     1      -7.636   7.080  70.700  1.00  0.00    -0.090 OA 
BRANCH  23  25
HETATM   25  C   UNL     1      -6.620   9.034  71.518  1.00  0.00    -0.064 C  
HETATM   26  O   UNL     1      -5.844   8.244  72.433  1.00  0.00    -0.043 OA 
HETATM   27  C   UNL     1      -6.000  10.351  71.168  1.00  0.00     0.074 C  
HETATM   28  C   UNL     1      -7.041   8.824  72.965  1.00  0.00     0.179 C  
ENDBRANCH  23  25
ENDBRANCH  22  23
BRANCH  22  29
HETATM   29  C   UNL     1      -6.697   9.922  68.672  1.00  0.00    -0.050 C  
HETATM   30  C   UNL     1      -7.085  10.905  67.543  1.00  0.00    -0.090 C  
HETATM   31  C   UNL     1      -5.890  11.807  67.208  1.00  0.00    -0.119 C  
HETATM   32  C   UNL     1      -7.555  10.240  66.246  1.00  0.00    -0.117 C  
ENDBRANCH  22  29
ENDBRANCH  19  22
ENDBRANCH  10  18
ENDBRANCH   8  10
ENDBRANCH   5   6
BRANCH   5  33
HETATM   33  N   UNL     1     -10.933  13.603  68.242  1.00  0.00    -0.245 N  
HETATM   34  H   UNL     1     -10.070  13.156  68.552  1.00  0.00     0.000 HD 
HETATM   35  O   UNL     1     -11.934  15.611  67.754  1.00  0.00    -0.048 OA 
HETATM   36  C   UNL     1     -10.947  14.975  68.117  1.00  0.00    -0.279 C  
BRANCH  36  37
HETATM   37  C   UNL     1      -9.604  15.660  68.439  1.00  0.00    -0.199 C  
BRANCH  37  38
HETATM   38  N   UNL     1      -9.838  16.990  69.012  1.00  0.00    -0.261 N  
HETATM   39  O   UNL     1      -8.539  17.958  67.418  1.00  0.00    -0.235 OA 
HETATM   40  C   UNL     1      -9.259  18.083  68.418  1.00  0.00    -0.294 C  
HETATM   41  H   UNL     1     -10.422  17.100  69.841  1.00  0.00     0.000 HD 
BRANCH  40  42
HETATM   42  C   UNL     1      -9.560  19.478  68.976  1.00  0.00    -0.355 C  
BRANCH  42  43
HETATM   43  N   UNL     1      -9.080  20.631  68.176  1.00  0.00     0.148 NA 
HETATM   44  C   UNL     1      -7.839  19.501  66.217  1.00  0.00    -0.317 C  
HETATM   45  C   UNL     1     -10.090  20.946  67.124  1.00  0.00     0.140 C  
HETATM   46  O   UNL     1      -8.903  19.835  65.318  1.00  0.00     0.038 OA 
HETATM   47  C   UNL     1     -10.157  19.894  66.000  1.00  0.00    -0.487 C  
HETATM   48  C   UNL     1      -7.795  20.395  67.476  1.00  0.00    -0.297 C  
ENDBRANCH  42  43
ENDBRANCH  40  42
ENDBRANCH  37  38
BRANCH  37  49
HETATM   49  C   UNL     1      -8.795  14.748  69.366  1.00  0.00     0.038 C  
BRANCH  49  50
HETATM   50  C   UNL     1      -7.337  14.648  68.889  1.00  0.00    -0.128 C  
BRANCH  50  51
HETATM   51  C   UNL     1      -6.577  15.929  69.099  1.00  0.00    -0.158 A  
HETATM   52  C   UNL     1      -6.539  16.533  70.361  1.00  0.00     0.754 A  
HETATM   53  C   UNL     1      -5.831  17.719  70.552  1.00  0.00     0.044 A  
HETATM   54  C   UNL     1      -5.181  17.710  68.227  1.00  0.00    -0.148 A  
HETATM   55  C   UNL     1      -5.890  16.525  68.033  1.00  0.00    -0.126 A  
HETATM   56  C   UNL     1      -5.152  18.307  69.486  1.00  0.00    -0.182 A  
ENDBRANCH  50  51
ENDBRANCH  49  50
ENDBRANCH  37  49
ENDBRANCH  36  37
ENDBRANCH   5  33
ENDBRANCH   3   5
TORSDOF 18
ENDMDL
MODEL       71
REMARK 921   NORMALIZED FREE ENERGY PREDICTED BY IDOCK:    4.34 KCAL/MOL
REMARK 922        TOTAL FREE ENERGY PREDICTED BY IDOCK:    5.27 KCAL/MOL
REMARK 923 INTER-LIGAND FREE ENERGY PREDICTED BY IDOCK:    1.97 KCAL/MOL
REMARK 924 INTRA-LIGAND FREE ENERGY PREDICTED BY IDOCK:    3.30 KCAL/MOL
REMARK 927      BINDING AFFINITY PREDICTED BY RF-SCORE:    0.00 PKD
ROOT
HETATM    1  C   UNL     1      -8.366   9.141  66.937  1.00  0.00    -0.119 C  
HETATM    2  C   UNL     1      -7.514  10.116  67.752  1.00  0.00    -0.089 C  
HETATM    3  C   UNL     1      -7.895  11.602  67.574  1.00  0.00    -0.137 C  
HETATM    4  C   UNL     1      -6.036   9.894  67.409  1.00  0.00    -0.058 C  
ENDROOT
BRANCH   3   5
HETATM    5  C   UNL     1      -9.336  11.975  67.981  1.00  0.00    -0.196 C  
BRANCH   5   6
HETATM    6  C   UNL     1     -10.065  11.032  68.969  1.00  0.00    -0.180 C  
HETATM    7  H   UNL     1      -8.638   9.576  68.671  1.00  0.00     0.000 HD 
HETATM    8  N   UNL     1      -9.415   9.862  69.268  1.00  0.00    -0.196 N  
HETATM    9  O   UNL     1     -11.104  11.375  69.531  1.00  0.00    -0.245 OA 
BRANCH   8  10
HETATM   10  C   UNL     1      -9.776   9.000  70.398  1.00  0.00    -0.206 C  
BRANCH  10  11
HETATM   11  C   UNL     1     -11.183   8.365  70.321  1.00  0.00    -0.175 C  
BRANCH  11  12
HETATM   12  C   UNL     1     -11.437   7.413  71.465  1.00  0.00    -0.292 A  
HETATM   13  C   UNL     1     -10.784   7.588  72.693  1.00  0.00    -0.354 A  
HETATM   14  C   UNL     1     -12.223   5.251  72.211  1.00  0.00     0.560 A  
HETATM   15  C   UNL     1     -12.200   6.261  71.253  1.00  0.00    -0.014 A  
HETATM   16  C   UNL     1     -11.510   5.400  73.399  1.00  0.00    -0.071 A  
HETATM   17  C   UNL     1     -10.811   6.578  73.651  1.00  0.00    -0.151 A  
ENDBRANCH  11  12
ENDBRANCH  10  11
BRANCH  10  18
HETATM   18  C   UNL     1      -8.668   7.920  70.543  1.00  0.00    -0.136 C  
HETATM   19  N   UNL     1      -8.763   6.886  69.639  1.00  0.00    -0.140 N  
HETATM   20  O   UNL     1      -7.797   7.957  71.410  1.00  0.00    -0.082 OA 
HETATM   21  H   UNL     1      -9.492   6.940  68.927  1.00  0.00     0.000 HD 
BRANCH  19  22
HETATM   22  C   UNL     1      -7.886   5.716  69.633  1.00  0.00    -0.091 C  
BRANCH  22  23
HETATM   23  C   UNL     1      -8.209   4.970  68.330  1.00  0.00    -0.089 C  
HETATM   24  O   UNL     1      -9.334   4.978  67.833  1.00  0.00    -0.115 OA 
BRANCH  23  25
HETATM   25  C   UNL     1      -7.116   4.224  67.641  1.00  0.00    -0.064 C  
HETATM   26  O   UNL     1      -5.963   5.005  67.291  1.00  0.00    -0.024 OA 
HETATM   27  C   UNL     1      -6.805   2.813  68.030  1.00  0.00    -0.048 C  
HETATM   28  C   UNL     1      -6.820   4.633  66.205  1.00  0.00    -0.054 C  
ENDBRANCH  23  25
ENDBRANCH  22  23
BRANCH  22  29
HETATM   29  C   UNL     1      -8.055   4.818  70.873  1.00  0.00    -0.083 C  
HETATM   30  C   UNL     1      -7.361   5.271  72.179  1.00  0.00    -0.092 C  
HETATM   31  C   UNL     1      -7.698   4.292  73.312  1.00  0.00    -0.082 C  
HETATM   32  C   UNL     1      -5.837   5.387  72.090  1.00  0.00    -0.022 C  
ENDBRANCH  22  29
ENDBRANCH  19  22
ENDBRANCH  10  18
ENDBRANCH   8  10
ENDBRANCH   5   6
BRANCH   5  33
HETATM   33  N   UNL     1      -9.453  13.353  68.470  1.00  0.00    -0.356 N  
HETATM   34  H   UNL     1      -8.685  13.735  69.024  1.00  0.00     0.000 HD 
HETATM   35  O   UNL     1     -11.517  13.798  67.568  1.00  0.00    -0.297 OA 
HETATM   36  C   UNL     1     -10.541  14.161  68.222  1.00  0.00    -0.251 C  
BRANCH  36  37
HETATM   37  C   UNL     1     -10.428  15.583  68.805  1.00  0.00    -0.234 C  
BRANCH  37  38
HETATM   38  N   UNL     1      -9.048  16.068  68.696  1.00  0.00    -0.203 N  
HETATM   39  O   UNL     1      -9.624  18.059  69.630  1.00  0.00     0.306 OA 
HETATM   40  C   UNL     1      -8.747  17.329  69.147  1.00  0.00     0.035 C  
HETATM   41  H   UNL     1      -8.323  15.477  68.291  1.00  0.00     0.000 HD 
BRANCH  40  42
HETATM   42  C   UNL     1      -7.292  17.808  69.097  1.00  0.00    -0.114 C  
BRANCH  42  43
HETATM   43  N   UNL     1      -7.061  19.254  69.332  1.00  0.00    -0.291 NA 
HETATM   44  C   UNL     1      -7.237  19.460  71.898  1.00  0.00     2.764 C  
HETATM   45  C   UNL     1      -5.608  19.477  69.590  1.00  0.00    -0.217 C  
HETATM   46  O   UNL     1      -5.819  19.626  72.007  1.00  0.00    -0.302 OA 
HETATM   47  C   UNL     1      -5.136  18.940  70.955  1.00  0.00    -0.271 C  
HETATM   48  C   UNL     1      -7.791  19.807  70.498  1.00  0.00     1.291 C  
ENDBRANCH  42  43
ENDBRANCH  40  42
ENDBRANCH  37  38
BRANCH  37  49
HETATM   49  C   UNL     1     -11.434  16.490  68.089  1.00  0.00    -0.037 C  
BRANCH  49  50
HETATM   50  C   UNL     1     -12.746  16.577  68.886  1.00  0.00     2.338 C  
BRANCH  50  51
HETATM   51  C   UNL     1     -12.808  15.567  69.999  1.00  0.00    -0.047 A  
HETATM   52  C   UNL     1     -11.822  15.543  70.992  1.00  0.00    -0.427 A  
HETATM   53  C   UNL     1     -11.885  14.606  72.023  1.00  0.00    -0.234 A  
HETATM   54  C   UNL     1     -13.925  13.712  71.092  1.00  0.00     0.334 A  
HETATM   55  C   UNL     1     -13.863  14.646  70.058  1.00  0.00     1.653 A  
HETATM   56  C   UNL     1     -12.936  13.692  72.073  1.00  0.00    -0.427 A  
ENDBRANCH  50  51
ENDBRANCH  49  50
ENDBRANCH  37  49
ENDBRANCH  36  37
ENDBRANCH   5  33
ENDBRANCH   3   5
TORSDOF 18
ENDMDL
MODEL       72
REMARK 921   NORMALIZED FREE ENERGY PREDICTED BY IDOCK:    5.27 KCAL/MOL
REMARK 922        TOTAL FREE ENERGY PREDICTED BY IDOCK:    7.19 KCAL/MOL
REMARK 923 INTER-LIGAND FREE ENERGY PREDICTED BY IDOCK:   -2.09 KCAL/MOL
REMARK 924 INTRA-LIGAND FREE ENERGY PREDICTED BY IDOCK:    9.28 KCAL/MOL
REMARK 927      BINDING AFFINITY PREDICTED BY RF-SCORE:    0.00 PKD
ROOT
HETATM    1  C   UNL     1      -8.749   8.726  71.272  1.00  0.00    -0.273 C  
HETATM    2  C   UNL     1      -7.241   8.640  71.520  1.00  0.00    -0.112 C  
HETATM    3  C   UNL     1      -6.383   8.609  70.236  1.00  0.00    -0.038 C  
HETATM    4  C   UNL     1      -6.948   7.415  72.393  1.00  0.00    -0.063 C  
ENDROOT
BRANCH   3   5
HETATM    5  C   UNL     1      -6.515   9.840  69.315  1.00  0.00    -0.048 C  
BRANCH   5   6
HETATM    6  C   UNL     1      -6.379   9.608  67.789  1.00  0.00    -0.053 C  
HETATM    7  H   UNL     1      -4.717   8.428  68.092  1.00  0.00     0.000 HD 
HETATM    8  N   UNL     1      -5.419   8.706  67.406  1.00  0.00    -0.038 N  
HETATM    9  O   UNL     1      -7.165  10.118  66.993  1.00  0.00    -0.088 OA 
BRANCH   8  10
HETATM   10  C   UNL     1      -5.348   8.121  66.064  1.00  0.00    -0.028 C  
BRANCH  10  11
HETATM   11  C   UNL     1      -5.172   6.586  66.021  1.00  0.00    -0.017 C  
BRANCH  11  12
HETATM   12  C   UNL     1      -6.021   5.949  64.947  1.00  0.00    -0.025 A  
HETATM   13  C   UNL     1      -6.722   4.763  65.205  1.00  0.00    -0.048 A  
HETATM   14  C   UNL     1      -6.545   5.727  62.597  1.00  0.00    -0.032 A  
HETATM   15  C   UNL     1      -5.984   6.452  63.643  1.00  0.00    -0.023 A  
HETATM   16  C   UNL     1      -7.175   4.510  62.850  1.00  0.00    -0.040 A  
HETATM   17  C   UNL     1      -7.285   4.040  64.157  1.00  0.00    -0.051 A  
ENDBRANCH  11  12
ENDBRANCH  10  11
BRANCH  10  18
HETATM   18  C   UNL     1      -6.611   8.573  65.281  1.00  0.00    -0.063 C  
HETATM   19  N   UNL     1      -7.797   8.357  65.947  1.00  0.00    -0.092 N  
HETATM   20  O   UNL     1      -6.570   9.053  64.149  1.00  0.00    -0.082 OA 
HETATM   21  H   UNL     1      -7.751   7.987  66.896  1.00  0.00     0.000 HD 
BRANCH  19  22
HETATM   22  C   UNL     1      -9.118   8.625  65.379  1.00  0.00    -0.090 C  
BRANCH  22  23
HETATM   23  C   UNL     1      -9.749   7.244  65.145  1.00  0.00     1.789 C  
HETATM   24  O   UNL     1      -9.614   6.634  64.086  1.00  0.00     2.109 OA 
BRANCH  23  25
HETATM   25  C   UNL     1     -10.538   6.621  66.246  1.00  0.00     0.387 C  
HETATM   26  O   UNL     1      -9.925   5.486  66.878  1.00  0.00    -0.145 OA 
HETATM   27  C   UNL     1     -11.345   7.476  67.173  1.00  0.00     0.648 C  
HETATM   28  C   UNL     1     -11.026   5.199  66.008  1.00  0.00     0.047 C  
ENDBRANCH  23  25
ENDBRANCH  22  23
BRANCH  22  29
HETATM   29  C   UNL     1      -9.072   9.469  64.091  1.00  0.00    -0.203 C  
HETATM   30  C   UNL     1      -9.548  10.937  64.185  1.00  0.00    -0.321 C  
HETATM   31  C   UNL     1      -9.366  11.630  62.828  1.00  0.00    -0.065 C  
HETATM   32  C   UNL     1     -11.007  11.113  64.614  1.00  0.00    -0.238 C  
ENDBRANCH  22  29
ENDBRANCH  19  22
ENDBRANCH  10  18
ENDBRANCH   8  10
ENDBRANCH   5   6
BRANCH   5  33
HETATM   33  N   UNL     1      -7.735  10.614  69.568  1.00  0.00    -0.284 N  
HETATM   34  H   UNL     1      -7.642  11.614  69.749  1.00  0.00     0.000 HD 
HETATM   35  O   UNL     1      -9.218   8.872  69.371  1.00  0.00    -0.143 OA 
HETATM   36  C   UNL     1      -8.998  10.065  69.575  1.00  0.00    -0.205 C  
BRANCH  36  37
HETATM   37  C   UNL     1     -10.134  11.075  69.829  1.00  0.00     0.332 C  
BRANCH  37  38
HETATM   38  N   UNL     1      -9.952  12.265  68.990  1.00  0.00    -0.417 N  
HETATM   39  O   UNL     1     -11.387  13.458  70.287  1.00  0.00     0.000 OA 
HETATM   40  C   UNL     1     -10.625  13.416  69.311  1.00  0.00     0.092 C  
HETATM   41  H   UNL     1      -9.334  12.236  68.180  1.00  0.00     0.000 HD 
BRANCH  40  42
HETATM   42  C   UNL     1     -10.381  14.677  68.475  1.00  0.00    -0.238 C  
BRANCH  42  43
HETATM   43  N   UNL     1     -10.434  14.518  67.002  1.00  0.00    -0.267 NA 
HETATM   44  C   UNL     1     -10.214  16.943  66.148  1.00  0.00    -0.341 C  
HETATM   45  C   UNL     1      -9.042  14.394  66.477  1.00  0.00    -0.205 C  
HETATM   46  O   UNL     1      -8.869  16.697  65.723  1.00  0.00    -0.493 OA 
HETATM   47  C   UNL     1      -8.240  15.708  66.541  1.00  0.00    -0.192 C  
HETATM   48  C   UNL     1     -11.059  15.657  66.287  1.00  0.00    -0.127 C  
ENDBRANCH  42  43
ENDBRANCH  40  42
ENDBRANCH  37  38
BRANCH  37  49
HETATM   49  C   UNL     1     -11.476  10.378  69.588  1.00  0.00    -0.326 C  
BRANCH  49  50
HETATM   50  C   UNL     1     -12.307  10.342  70.881  1.00  0.00    -0.471 C  
BRANCH  50  51
HETATM   51  C   UNL     1     -12.603   8.937  71.332  1.00  0.00    -0.351 A  
HETATM   52  C   UNL     1     -11.569   8.099  71.766  1.00  0.00    -0.342 A  
HETATM   53  C   UNL     1     -11.848   6.798  72.186  1.00  0.00    -0.326 A  
HETATM   54  C   UNL     1     -14.196   7.158  71.755  1.00  0.00    -0.484 A  
HETATM   55  C   UNL     1     -13.920   8.459  71.333  1.00  0.00    -0.333 A  
HETATM   56  C   UNL     1     -13.161   6.329  72.181  1.00  0.00     0.326 A  
ENDBRANCH  50  51
ENDBRANCH  49  50
ENDBRANCH  37  49
ENDBRANCH  36  37
ENDBRANCH   5  33
ENDBRANCH   3   5
TORSDOF 18
ENDMDL
MODEL       73
REMARK 921   NORMALIZED FREE ENERGY PREDICTED BY IDOCK:    7.01 KCAL/MOL
REMARK 922        TOTAL FREE ENERGY PREDICTED BY IDOCK:   10.75 KCAL/MOL
REMARK 923 INTER-LIGAND FREE ENERGY PREDICTED BY IDOCK:   -3.74 KCAL/MOL
REMARK 924 INTRA-LIGAND FREE ENERGY PREDICTED BY IDOCK:   14.49 KCAL/MOL
REMARK 927      BINDING AFFINITY PREDICTED BY RF-SCORE:    0.00 PKD
ROOT
HETATM    1  C   UNL     1      -8.155   9.927  66.901  1.00  0.00    -0.113 C  
HETATM    2  C   UNL     1      -7.349  10.913  67.751  1.00  0.00    -0.093 C  
HETATM    3  C   UNL     1      -7.757  12.392  67.575  1.00  0.00    -0.161 C  
HETATM    4  C   UNL     1      -5.858  10.726  67.452  1.00  0.00    -0.045 C  
ENDROOT
BRANCH   3   5
HETATM    5  C   UNL     1      -9.218  12.730  67.941  1.00  0.00    -0.205 C  
BRANCH   5   6
HETATM    6  C   UNL     1      -9.957  11.761  68.896  1.00  0.00    -0.034 C  
HETATM    7  H   UNL     1      -8.483  10.344  68.638  1.00  0.00     0.000 HD 
HETATM    8  N   UNL     1      -9.287  10.605  69.208  1.00  0.00    -0.162 N  
HETATM    9  O   UNL     1     -11.024  12.072  69.423  1.00  0.00    -0.178 OA 
BRANCH   8  10
HETATM   10  C   UNL     1      -9.666   9.725  70.318  1.00  0.00    -0.223 C  
BRANCH  10  11
HETATM   11  C   UNL     1     -11.052   9.054  70.187  1.00  0.00    -0.228 C  
BRANCH  11  12
HETATM   12  C   UNL     1     -11.331   8.104  71.326  1.00  0.00    -0.300 A  
HETATM   13  C   UNL     1     -10.735   8.302  72.579  1.00  0.00    -0.411 A  
HETATM   14  C   UNL     1     -12.097   5.929  72.055  1.00  0.00    -0.058 A  
HETATM   15  C   UNL     1     -12.058   6.932  71.092  1.00  0.00    -0.428 A  
HETATM   16  C   UNL     1     -11.438   6.102  73.270  1.00  0.00     0.178 A  
HETATM   17  C   UNL     1     -10.778   7.298  73.542  1.00  0.00    -0.367 A  
ENDBRANCH  11  12
ENDBRANCH  10  11
BRANCH  10  18
HETATM   18  C   UNL     1      -8.537   8.672  70.495  1.00  0.00    -0.156 C  
HETATM   19  N   UNL     1      -8.573   7.643  69.580  1.00  0.00    -0.135 N  
HETATM   20  O   UNL     1      -7.698   8.724  71.393  1.00  0.00    -0.118 OA 
HETATM   21  H   UNL     1      -9.278   7.684  68.844  1.00  0.00     0.000 HD 
BRANCH  19  22
HETATM   22  C   UNL     1      -7.667   6.496  69.598  1.00  0.00    -0.103 C  
BRANCH  22  23
HETATM   23  C   UNL     1      -7.930   5.748  68.282  1.00  0.00    -0.104 C  
HETATM   24  O   UNL     1      -7.208   4.832  67.894  1.00  0.00    -0.064 OA 
BRANCH  23  25
HETATM   25  C   UNL     1      -9.110   6.141  67.458  1.00  0.00    -0.109 C  
HETATM   26  O   UNL     1     -10.379   6.075  68.128  1.00  0.00    -0.163 OA 
HETATM   27  C   UNL     1      -8.998   7.255  66.465  1.00  0.00    -0.175 C  
HETATM   28  C   UNL     1     -10.125   5.045  67.165  1.00  0.00    -0.199 C  
ENDBRANCH  23  25
ENDBRANCH  22  23
BRANCH  22  29
HETATM   29  C   UNL     1      -7.850   5.588  70.828  1.00  0.00    -0.092 C  
HETATM   30  C   UNL     1      -7.212   6.055  72.158  1.00  0.00    -0.089 C  
HETATM   31  C   UNL     1      -7.558   5.062  73.275  1.00  0.00    -0.089 C  
HETATM   32  C   UNL     1      -5.690   6.214  72.119  1.00  0.00    -0.036 C  
ENDBRANCH  22  29
ENDBRANCH  19  22
ENDBRANCH  10  18
ENDBRANCH   8  10
ENDBRANCH   5   6
BRANCH   5  33
HETATM   33  N   UNL     1      -9.379  14.100  68.441  1.00  0.00    -0.207 N  
HETATM   34  H   UNL     1      -8.639  14.489  69.026  1.00  0.00     0.000 HD 
HETATM   35  O   UNL     1     -11.419  14.515  67.472  1.00  0.00    -0.323 OA 
HETATM   36  C   UNL     1     -10.473  14.888  68.164  1.00  0.00    -0.242 C  
BRANCH  36  37
HETATM   37  C   UNL     1     -10.409  16.306  68.766  1.00  0.00    -0.261 C  
BRANCH  37  38
HETATM   38  N   UNL     1      -9.035  16.816  68.720  1.00  0.00    -0.257 N  
HETATM   39  O   UNL     1      -9.680  18.779  69.667  1.00  0.00     0.111 OA 
HETATM   40  C   UNL     1      -8.773  18.072  69.205  1.00  0.00     0.138 C  
HETATM   41  H   UNL     1      -8.285  16.244  68.332  1.00  0.00     0.000 HD 
BRANCH  40  42
HETATM   42  C   UNL     1      -7.326  18.576  69.219  1.00  0.00    -0.065 C  
BRANCH  42  43
HETATM   43  N   UNL     1      -7.128  20.020  69.495  1.00  0.00    -0.200 NA 
HETATM   44  C   UNL     1      -7.406  20.165  72.056  1.00  0.00     1.503 C  
HETATM   45  C   UNL     1      -5.690  20.261  69.814  1.00  0.00    -0.321 C  
HETATM   46  O   UNL     1      -5.996  20.351  72.223  1.00  0.00    -0.387 OA 
HETATM   47  C   UNL     1      -5.261  19.701  71.184  1.00  0.00    -0.275 C  
HETATM   48  C   UNL     1      -7.911  20.535  70.643  1.00  0.00     2.043 C  
ENDBRANCH  42  43
ENDBRANCH  40  42
ENDBRANCH  37  38
BRANCH  37  49
HETATM   49  C   UNL     1     -11.401  17.204  68.020  1.00  0.00     0.217 C  
BRANCH  49  50
HETATM   50  C   UNL     1     -10.835  17.614  66.651  1.00  0.00     0.030 C  
BRANCH  50  51
HETATM   51  C   UNL     1      -9.377  17.275  66.509  1.00  0.00    -0.283 A  
HETATM   52  C   UNL     1      -8.449  18.264  66.162  1.00  0.00    -0.143 A  
HETATM   53  C   UNL     1      -7.097  17.946  66.034  1.00  0.00    -0.340 A  
HETATM   54  C   UNL     1      -7.579  15.650  66.605  1.00  0.00     0.007 A  
HETATM   55  C   UNL     1      -8.932  15.965  66.733  1.00  0.00    -0.280 A  
HETATM   56  C   UNL     1      -6.662  16.640  66.256  1.00  0.00     0.254 A  
ENDBRANCH  50  51
ENDBRANCH  49  50
ENDBRANCH  37  49
ENDBRANCH  36  37
ENDBRANCH   5  33
ENDBRANCH   3   5
TORSDOF 18
ENDMDL
MODEL       74
REMARK 921   NORMALIZED FREE ENERGY PREDICTED BY IDOCK:   10.31 KCAL/MOL
REMARK 922        TOTAL FREE ENERGY PREDICTED BY IDOCK:   17.52 KCAL/MOL
REMARK 923 INTER-LIGAND FREE ENERGY PREDICTED BY IDOCK:    6.65 KCAL/MOL
REMARK 924 INTRA-LIGAND FREE ENERGY PREDICTED BY IDOCK:   10.87 KCAL/MOL
REMARK 927      BINDING AFFINITY PREDICTED BY RF-SCORE:    0.00 PKD
ROOT
HETATM    1  C   UNL     1     -12.082  12.825  70.987  1.00  0.00    -0.027 C  
HETATM    2  C   UNL     1     -12.854  11.504  70.936  1.00  0.00    -0.293 C  
HETATM    3  C   UNL     1     -12.589  10.657  69.672  1.00  0.00     0.003 C  
HETATM    4  C   UNL     1     -14.351  11.795  71.085  1.00  0.00     3.623 C  
ENDROOT
BRANCH   3   5
HETATM    5  C   UNL     1     -11.126  10.214  69.459  1.00  0.00    -0.250 C  
BRANCH   5   6
HETATM    6  C   UNL     1     -10.868   9.055  68.465  1.00  0.00    -0.013 C  
HETATM    7  H   UNL     1      -9.180  10.002  67.760  1.00  0.00     0.000 HD 
HETATM    8  N   UNL     1      -9.690   9.118  67.766  1.00  0.00    -0.149 N  
HETATM    9  O   UNL     1     -11.626   8.088  68.402  1.00  0.00     0.968 OA 
BRANCH   8  10
HETATM   10  C   UNL     1      -9.123   7.985  67.029  1.00  0.00    -0.144 C  
BRANCH  10  11
HETATM   11  C   UNL     1      -7.579   7.929  66.987  1.00  0.00    -0.100 C  
BRANCH  11  12
HETATM   12  C   UNL     1      -7.059   7.708  65.586  1.00  0.00    -0.061 A  
HETATM   13  C   UNL     1      -7.949   7.493  64.524  1.00  0.00    -0.122 A  
HETATM   14  C   UNL     1      -5.217   7.096  64.145  1.00  0.00    -0.029 A  
HETATM   15  C   UNL     1      -5.686   7.558  65.371  1.00  0.00    -0.037 A  
HETATM   16  C   UNL     1      -6.113   6.812  63.117  1.00  0.00    -0.039 A  
HETATM   17  C   UNL     1      -7.477   7.033  63.298  1.00  0.00    -0.092 A  
ENDBRANCH  11  12
ENDBRANCH  10  11
BRANCH  10  18
HETATM   18  C   UNL     1      -9.725   6.682  67.626  1.00  0.00    -0.124 C  
HETATM   19  N   UNL     1      -9.018   5.540  67.323  1.00  0.00    -0.112 N  
HETATM   20  O   UNL     1     -10.764   6.657  68.284  1.00  0.00    -0.216 OA 
HETATM   21  H   UNL     1      -8.148   5.643  66.801  1.00  0.00     0.000 HD 
BRANCH  19  22
HETATM   22  C   UNL     1      -9.434   4.191  67.703  1.00  0.00    -0.180 C  
BRANCH  22  23
HETATM   23  C   UNL     1      -8.250   3.605  68.486  1.00  0.00    -0.073 C  
HETATM   24  O   UNL     1      -8.367   2.613  69.204  1.00  0.00    -0.057 OA 
BRANCH  23  25
HETATM   25  C   UNL     1      -6.914   4.256  68.360  1.00  0.00    -0.051 C  
HETATM   26  O   UNL     1      -6.552   4.665  67.032  1.00  0.00    -0.047 OA 
HETATM   27  C   UNL     1      -6.412   5.163  69.439  1.00  0.00    -0.035 C  
HETATM   28  C   UNL     1      -5.874   3.509  67.537  1.00  0.00    -0.023 C  
ENDBRANCH  23  25
ENDBRANCH  22  23
BRANCH  22  29
HETATM   29  C   UNL     1      -9.829   3.311  66.502  1.00  0.00     0.251 C  
HETATM   30  C   UNL     1     -10.752   3.939  65.433  1.00  0.00     0.317 C  
HETATM   31  C   UNL     1     -10.978   2.940  64.290  1.00  0.00     0.457 C  
HETATM   32  C   UNL     1     -12.123   4.385  65.949  1.00  0.00     5.243 C  
ENDBRANCH  22  29
ENDBRANCH  19  22
ENDBRANCH  10  18
ENDBRANCH   8  10
ENDBRANCH   5   6
BRANCH   5  33
HETATM   33  N   UNL     1     -10.235  11.330  69.124  1.00  0.00    -0.388 N  
HETATM   34  H   UNL     1      -9.270  11.292  69.454  1.00  0.00     0.000 HD 
HETATM   35  O   UNL     1     -11.767  12.569  67.947  1.00  0.00    -0.332 OA 
HETATM   36  C   UNL     1     -10.629  12.426  68.389  1.00  0.00    -0.236 C  
BRANCH  36  37
HETATM   37  C   UNL     1      -9.514  13.458  68.130  1.00  0.00    -0.218 C  
BRANCH  37  38
HETATM   38  N   UNL     1      -9.925  14.781  68.609  1.00  0.00    -0.226 N  
HETATM   39  O   UNL     1      -9.048  15.776  66.763  1.00  0.00    -0.213 OA 
HETATM   40  C   UNL     1      -9.648  15.884  67.842  1.00  0.00    -0.215 C  
HETATM   41  H   UNL     1     -10.411  14.880  69.500  1.00  0.00     0.000 HD 
BRANCH  40  42
HETATM   42  C   UNL     1     -10.140  17.258  68.310  1.00  0.00    -0.321 C  
BRANCH  42  43
HETATM   43  N   UNL     1      -9.371  18.435  67.838  1.00  0.00    -0.274 NA 
HETATM   44  C   UNL     1      -9.472  18.202  65.270  1.00  0.00     1.717 C  
HETATM   45  C   UNL     1     -10.315  19.566  67.596  1.00  0.00    -0.451 C  
HETATM   46  O   UNL     1     -10.408  19.282  65.185  1.00  0.00    -0.071 OA 
HETATM   47  C   UNL     1     -11.214  19.364  66.362  1.00  0.00     0.223 C  
HETATM   48  C   UNL     1      -8.636  18.215  66.569  1.00  0.00    -0.263 C  
ENDBRANCH  42  43
ENDBRANCH  40  42
ENDBRANCH  37  38
BRANCH  37  49
HETATM   49  C   UNL     1      -8.222  12.963  68.788  1.00  0.00     0.116 C  
BRANCH  49  50
HETATM   50  C   UNL     1      -7.445  12.043  67.832  1.00  0.00    -0.114 C  
BRANCH  50  51
HETATM   51  C   UNL     1      -8.210  11.751  66.571  1.00  0.00    -0.066 A  
HETATM   52  C   UNL     1      -9.527  12.201  66.419  1.00  0.00    -0.238 A  
HETATM   53  C   UNL     1     -10.233  11.931  65.247  1.00  0.00    -0.309 A  
HETATM   54  C   UNL     1      -8.314  10.766  64.357  1.00  0.00     0.052 A  
HETATM   55  C   UNL     1      -7.607  11.033  65.529  1.00  0.00     0.177 A  
HETATM   56  C   UNL     1      -9.626  11.214  64.216  1.00  0.00    -0.288 A  
ENDBRANCH  50  51
ENDBRANCH  49  50
ENDBRANCH  37  49
ENDBRANCH  36  37
ENDBRANCH   5  33
ENDBRANCH   3   5
TORSDOF 18
ENDMDL
MODEL       75
REMARK 921   NORMALIZED FREE ENERGY PREDICTED BY IDOCK:   11.48 KCAL/MOL
REMARK 922        TOTAL FREE ENERGY PREDICTED BY IDOCK:   19.92 KCAL/MOL
REMARK 923 INTER-LIGAND FREE ENERGY PREDICTED BY IDOCK:   -0.39 KCAL/MOL
REMARK 924 INTRA-LIGAND FREE ENERGY PREDICTED BY IDOCK:   20.31 KCAL/MOL
REMARK 927      BINDING AFFINITY PREDICTED BY RF-SCORE:    0.00 PKD
ROOT
HETATM    1  C   UNL     1     -10.198  17.401  70.825  1.00  0.00     2.237 C  
HETATM    2  C   UNL     1     -10.714  15.980  71.067  1.00  0.00     0.242 C  
HETATM    3  C   UNL     1     -10.412  14.987  69.923  1.00  0.00    -0.175 C  
HETATM    4  C   UNL     1     -12.220  16.037  71.347  1.00  0.00    -0.439 C  
ENDROOT
BRANCH   3   5
HETATM    5  C   UNL     1      -8.917  14.766  69.608  1.00  0.00     0.222 C  
BRANCH   5   6
HETATM    6  C   UNL     1      -8.524  13.443  68.907  1.00  0.00     0.226 C  
HETATM    7  H   UNL     1      -7.445  14.483  67.493  1.00  0.00     0.000 HD 
HETATM    8  N   UNL     1      -7.620  13.556  67.880  1.00  0.00    -0.134 N  
HETATM    9  O   UNL     1      -8.915  12.356  69.329  1.00  0.00     0.555 OA 
BRANCH   8  10
HETATM   10  C   UNL     1      -6.894  12.417  67.311  1.00  0.00    -0.127 C  
BRANCH  10  11
HETATM   11  C   UNL     1      -6.022  11.624  68.311  1.00  0.00    -0.045 C  
BRANCH  11  12
HETATM   12  C   UNL     1      -6.844  10.669  69.144  1.00  0.00    -0.079 A  
HETATM   13  C   UNL     1      -6.497  10.410  70.477  1.00  0.00    -0.095 A  
HETATM   14  C   UNL     1      -8.439   8.854  69.225  1.00  0.00    -0.121 A  
HETATM   15  C   UNL     1      -7.857   9.917  68.542  1.00  0.00    -0.081 A  
HETATM   16  C   UNL     1      -8.036   8.555  70.525  1.00  0.00    -0.112 A  
HETATM   17  C   UNL     1      -7.083   9.348  71.160  1.00  0.00    -0.013 A  
ENDBRANCH  11  12
ENDBRANCH  10  11
BRANCH  10  18
HETATM   18  C   UNL     1      -7.929  11.500  66.603  1.00  0.00    -0.127 C  
HETATM   19  N   UNL     1      -9.042  12.161  66.131  1.00  0.00    -0.380 N  
HETATM   20  O   UNL     1      -7.794  10.282  66.497  1.00  0.00    -0.109 OA 
HETATM   21  H   UNL     1      -9.069  13.176  66.224  1.00  0.00     0.000 HD 
BRANCH  19  22
HETATM   22  C   UNL     1     -10.185  11.500  65.504  1.00  0.00    -0.258 C  
BRANCH  22  23
HETATM   23  C   UNL     1     -11.171  11.220  66.648  1.00  0.00    -0.177 C  
HETATM   24  O   UNL     1     -11.390  10.083  67.060  1.00  0.00    -0.062 OA 
BRANCH  23  25
HETATM   25  C   UNL     1     -11.875  12.371  67.285  1.00  0.00    -0.287 C  
HETATM   26  O   UNL     1     -11.087  13.141  68.207  1.00  0.00    -0.242 OA 
HETATM   27  C   UNL     1     -12.863  13.178  66.502  1.00  0.00     0.724 C  
HETATM   28  C   UNL     1     -12.079  12.289  68.791  1.00  0.00    -0.112 C  
ENDBRANCH  23  25
ENDBRANCH  22  23
BRANCH  22  29
HETATM   29  C   UNL     1      -9.808  10.219  64.737  1.00  0.00    -0.403 C  
HETATM   30  C   UNL     1      -8.512  10.251  63.893  1.00  0.00    -0.179 C  
HETATM   31  C   UNL     1      -8.269   8.873  63.262  1.00  0.00    -0.182 C  
HETATM   32  C   UNL     1      -8.502  11.293  62.772  1.00  0.00    -0.037 C  
ENDBRANCH  22  29
ENDBRANCH  19  22
ENDBRANCH  10  18
ENDBRANCH   8  10
ENDBRANCH   5   6
BRANCH   5  33
HETATM   33  N   UNL     1      -8.318  15.886  68.874  1.00  0.00    -0.210 N  
HETATM   34  H   UNL     1      -8.903  16.696  68.668  1.00  0.00     0.000 HD 
HETATM   35  O   UNL     1      -6.221  14.980  68.643  1.00  0.00    -0.082 OA 
HETATM   36  C   UNL     1      -7.008  15.904  68.448  1.00  0.00    -0.116 C  
BRANCH  36  37
HETATM   37  C   UNL     1      -6.587  17.200  67.728  1.00  0.00    -0.145 C  
BRANCH  37  38
HETATM   38  N   UNL     1      -7.772  17.973  67.340  1.00  0.00    -0.206 N  
HETATM   39  O   UNL     1      -7.844  16.940  65.317  1.00  0.00     0.779 OA 
HETATM   40  C   UNL     1      -8.332  17.762  66.106  1.00  0.00    -0.136 C  
HETATM   41  H   UNL     1      -8.173  18.658  67.980  1.00  0.00     0.000 HD 
BRANCH  40  42
HETATM   42  C   UNL     1      -9.610  18.520  65.730  1.00  0.00     0.326 C  
BRANCH  42  43
HETATM   43  N   UNL     1     -10.794  17.696  65.387  1.00  0.00    -0.480 NA 
HETATM   44  C   UNL     1      -9.823  15.309  65.265  1.00  0.00    -0.215 C  
HETATM   45  C   UNL     1     -11.414  17.190  66.647  1.00  0.00     1.134 C  
HETATM   46  O   UNL     1     -10.445  14.966  66.508  1.00  0.00    -0.284 OA 
HETATM   47  C   UNL     1     -10.574  16.109  67.355  1.00  0.00    -0.311 C  
HETATM   48  C   UNL     1     -10.489  16.508  64.555  1.00  0.00     0.991 C  
ENDBRANCH  42  43
ENDBRANCH  40  42
ENDBRANCH  37  38
BRANCH  37  49
HETATM   49  C   UNL     1      -5.638  17.984  68.639  1.00  0.00    -0.175 C  
BRANCH  49  50
HETATM   50  C   UNL     1      -6.427  18.935  69.553  1.00  0.00    -0.270 C  
BRANCH  50  51
HETATM   51  C   UNL     1      -7.519  19.662  68.817  1.00  0.00    -0.364 A  
HETATM   52  C   UNL     1      -7.205  20.670  67.898  1.00  0.00    -0.254 A  
HETATM   53  C   UNL     1      -8.220  21.341  67.215  1.00  0.00     0.360 A  
HETATM   54  C   UNL     1      -9.875  20.000  68.351  1.00  0.00    -0.436 A  
HETATM   55  C   UNL     1      -8.862  19.329  69.037  1.00  0.00    -0.265 A  
HETATM   56  C   UNL     1      -9.554  21.005  67.442  1.00  0.00    -0.261 A  
ENDBRANCH  50  51
ENDBRANCH  49  50
ENDBRANCH  37  49
ENDBRANCH  36  37
ENDBRANCH   5  33
ENDBRANCH   3   5
TORSDOF 18
ENDMDL
MODEL       76
REMARK 921   NORMALIZED FREE ENERGY PREDICTED BY IDOCK:   25.42 KCAL/MOL
REMARK 922        TOTAL FREE ENERGY PREDICTED BY IDOCK:   48.54 KCAL/MOL
REMARK 923 INTER-LIGAND FREE ENERGY PREDICTED BY IDOCK:   17.78 KCAL/MOL
REMARK 924 INTRA-LIGAND FREE ENERGY PREDICTED BY IDOCK:   30.76 KCAL/MOL
REMARK 927      BINDING AFFINITY PREDICTED BY RF-SCORE:    0.00 PKD
ROOT
HETATM    1  C   UNL     1     -10.800  10.570  65.316  1.00  0.00     0.129 C  
HETATM    2  C   UNL     1     -11.379  11.946  64.977  1.00  0.00    -0.333 C  
HETATM    3  C   UNL     1     -12.478  12.434  65.946  1.00  0.00     0.217 C  
HETATM    4  C   UNL     1     -11.901  11.926  63.536  1.00  0.00    -0.560 C  
ENDROOT
BRANCH   3   5
HETATM    5  C   UNL     1     -12.048  12.591  67.420  1.00  0.00    -0.051 C  
BRANCH   5   6
HETATM    6  C   UNL     1     -11.603  11.313  68.173  1.00  0.00    -0.289 C  
HETATM    7  H   UNL     1     -10.170  12.384  69.195  1.00  0.00     0.000 HD 
HETATM    8  N   UNL     1     -10.674  11.498  69.165  1.00  0.00    -0.200 N  
HETATM    9  O   UNL     1     -12.141  10.227  67.963  1.00  0.00     0.150 OA 
BRANCH   8  10
HETATM   10  C   UNL     1     -10.366  10.490  70.184  1.00  0.00     0.058 C  
BRANCH  10  11
HETATM   11  C   UNL     1     -11.320   9.274  70.220  1.00  0.00    -0.238 C  
BRANCH  11  12
HETATM   12  C   UNL     1     -10.572   7.974  70.398  1.00  0.00    -0.224 A  
HETATM   13  C   UNL     1      -9.296   7.961  70.976  1.00  0.00    -0.167 A  
HETATM   14  C   UNL     1     -10.290   5.657  69.765  1.00  0.00    -0.352 A  
HETATM   15  C   UNL     1     -11.083   6.798  69.841  1.00  0.00    -0.374 A  
HETATM   16  C   UNL     1      -8.993   5.675  70.275  1.00  0.00    -0.152 A  
HETATM   17  C   UNL     1      -8.505   6.819  70.903  1.00  0.00    -0.136 A  
ENDBRANCH  11  12
ENDBRANCH  10  11
BRANCH  10  18
HETATM   18  C   UNL     1      -8.888  10.051  69.986  1.00  0.00    -0.080 C  
HETATM   19  N   UNL     1      -8.441  10.135  68.687  1.00  0.00    -0.116 N  
HETATM   20  O   UNL     1      -8.180   9.630  70.899  1.00  0.00    -0.290 OA 
HETATM   21  H   UNL     1      -9.074  10.526  67.989  1.00  0.00     0.000 HD 
BRANCH  19  22
HETATM   22  C   UNL     1      -7.117   9.701  68.244  1.00  0.00    -0.078 C  
BRANCH  22  23
HETATM   23  C   UNL     1      -6.603   8.769  69.351  1.00  0.00    -0.045 C  
HETATM   24  O   UNL     1      -6.396   7.573  69.155  1.00  0.00    -0.034 OA 
BRANCH  23  25
HETATM   25  C   UNL     1      -6.333   9.340  70.702  1.00  0.00    -0.068 C  
HETATM   26  O   UNL     1      -6.340   8.395  71.783  1.00  0.00    -0.050 OA 
HETATM   27  C   UNL     1      -5.346  10.453  70.867  1.00  0.00    -0.082 C  
HETATM   28  C   UNL     1      -7.474   9.266  71.707  1.00  0.00     0.392 C  
ENDBRANCH  23  25
ENDBRANCH  22  23
BRANCH  22  29
HETATM   29  C   UNL     1      -6.150  10.868  67.970  1.00  0.00    -0.049 C  
HETATM   30  C   UNL     1      -6.261  11.578  66.601  1.00  0.00    -0.113 C  
HETATM   31  C   UNL     1      -5.269  12.747  66.541  1.00  0.00     1.385 C  
HETATM   32  C   UNL     1      -6.006  10.678  65.388  1.00  0.00    -0.105 C  
ENDBRANCH  22  29
ENDBRANCH  19  22
ENDBRANCH  10  18
ENDBRANCH   8  10
ENDBRANCH   5   6
BRANCH   5  33
HETATM   33  N   UNL     1     -11.029  13.629  67.609  1.00  0.00    -0.263 N  
HETATM   34  H   UNL     1     -10.054  13.385  67.438  1.00  0.00     0.000 HD 
HETATM   35  O   UNL     1     -12.459  15.312  68.240  1.00  0.00     0.195 OA 
HETATM   36  C   UNL     1     -11.318  14.916  68.006  1.00  0.00    -0.324 C  
BRANCH  36  37
HETATM   37  C   UNL     1     -10.093  15.846  68.105  1.00  0.00    -0.229 C  
BRANCH  37  38
HETATM   38  N   UNL     1     -10.092  16.550  69.391  1.00  0.00    -0.255 N  
HETATM   39  O   UNL     1      -8.631  18.100  68.596  1.00  0.00    -0.307 OA 
HETATM   40  C   UNL     1      -9.325  17.679  69.532  1.00  0.00     0.511 C  
HETATM   41  H   UNL     1     -10.654  16.205  70.169  1.00  0.00     0.000 HD 
BRANCH  40  42
HETATM   42  C   UNL     1      -9.380  18.453  70.854  1.00  0.00     4.705 C  
BRANCH  42  43
HETATM   43  N   UNL     1      -9.562  19.922  70.757  1.00  0.00     1.223 NA 
HETATM   44  C   UNL     1      -9.429  20.355  68.217  1.00  0.00     0.030 C  
HETATM   45  C   UNL     1     -11.010  20.219  70.554  1.00  0.00     2.926 C  
HETATM   46  O   UNL     1     -10.842  20.580  68.156  1.00  0.00     0.121 OA 
HETATM   47  C   UNL     1     -11.529  19.826  69.157  1.00  0.00     3.304 C  
HETATM   48  C   UNL     1      -8.835  20.553  69.629  1.00  0.00     1.468 C  
ENDBRANCH  42  43
ENDBRANCH  40  42
ENDBRANCH  37  38
BRANCH  37  49
HETATM   49  C   UNL     1      -8.825  15.015  67.882  1.00  0.00    -0.171 C  
BRANCH  49  50
HETATM   50  C   UNL     1      -8.225  15.304  66.496  1.00  0.00    -0.034 C  
BRANCH  50  51
HETATM   51  C   UNL     1      -8.109  16.777  66.218  1.00  0.00    -0.365 A  
HETATM   52  C   UNL     1      -7.546  17.636  67.170  1.00  0.00    -0.227 A  
HETATM   53  C   UNL     1      -7.437  19.002  66.907  1.00  0.00    -0.230 A  
HETATM   54  C   UNL     1      -8.440  18.669  64.737  1.00  0.00     4.210 A  
HETATM   55  C   UNL     1      -8.553  17.303  64.997  1.00  0.00     3.369 A  
HETATM   56  C   UNL     1      -7.883  19.517  65.691  1.00  0.00    -0.024 A  
ENDBRANCH  50  51
ENDBRANCH  49  50
ENDBRANCH  37  49
ENDBRANCH  36  37
ENDBRANCH   5  33
ENDBRANCH   3   5
TORSDOF 18
ENDMDL
