MODEL        1
REMARK 921   NORMALIZED FREE ENERGY PREDICTED BY IDOCK:   -5.74 KCAL/MOL
REMARK 922        TOTAL FREE ENERGY PREDICTED BY IDOCK:   -6.92 KCAL/MOL
REMARK 923 INTER-LIGAND FREE ENERGY PREDICTED BY IDOCK:   -7.08 KCAL/MOL
REMARK 924 INTRA-LIGAND FREE ENERGY PREDICTED BY IDOCK:    0.16 KCAL/MOL
REMARK 927      BINDING AFFINITY PREDICTED BY RF-SCORE:    0.00 PKD
ROOT
HETATM    1  N   UNK A   0     -10.994  11.244  63.102  1.00  0.00    -0.838 N  
HETATM    2  C   UNK A   0     -11.879  12.198  63.470  1.00  0.00    -0.505 C  
HETATM    3  H2  UNK A   0     -11.347  10.363  62.728  1.00  0.00     0.000 HD 
HETATM    4  H1  UNK A   0      -9.985  11.375  63.185  1.00  0.00     0.000 HD 
HETATM    5  O   UNK A   0     -13.087  12.041  63.371  1.00  0.00    -0.747 OA 
ENDROOT
BRANCH   2   6
ATOM      6  N   GLU A   1     -11.280  13.322  63.939  1.00  0.00    -0.560 N  
ATOM      7  H   GLU A   1     -10.268  13.419  63.859  1.00  0.00     0.000 HD 
BRANCH   6   8
ATOM      8  CA  GLU A   1     -12.053  14.392  64.555  1.00  0.00    -0.481 C  
ATOM      9  O   GLU A   1     -11.718  16.730  64.027  1.00  0.00    -1.120 OA 
ATOM     10  C   GLU A   1     -11.166  15.636  64.598  1.00  0.00    -0.369 C  
ATOM     11  OXT GLU A   1     -10.062  15.661  65.127  1.00  0.00    -0.375 OA 
BRANCH   8  12
ATOM     12  CB  GLU A   1     -12.494  14.008  65.973  1.00  0.00    -0.489 C  
BRANCH  12  13
ATOM     13  CG  GLU A   1     -11.310  13.635  66.864  1.00  0.00    -0.345 C  
ATOM     14  CD  GLU A   1     -11.686  12.639  67.930  1.00  0.00    -0.358 C  
ATOM     15  OE2 GLU A   1     -11.647  12.883  69.126  1.00  0.00    -0.285 OA 
ATOM     16  OE1 GLU A   1     -12.035  11.428  67.446  1.00  0.00    -0.606 OA 
ENDBRANCH  12  13
ENDBRANCH   8  12
ENDBRANCH   6   8
ENDBRANCH   2   6
TORSDOF 4
ENDMDL
MODEL        2
REMARK 921   NORMALIZED FREE ENERGY PREDICTED BY IDOCK:   -5.67 KCAL/MOL
REMARK 922        TOTAL FREE ENERGY PREDICTED BY IDOCK:   -6.84 KCAL/MOL
REMARK 923 INTER-LIGAND FREE ENERGY PREDICTED BY IDOCK:   -6.49 KCAL/MOL
REMARK 924 INTRA-LIGAND FREE ENERGY PREDICTED BY IDOCK:   -0.35 KCAL/MOL
REMARK 927      BINDING AFFINITY PREDICTED BY RF-SCORE:    0.00 PKD
ROOT
HETATM    1  N   UNK A   0     -10.050  10.612  62.350  1.00  0.00    -0.744 N  
HETATM    2  C   UNK A   0     -10.008  10.972  63.653  1.00  0.00    -0.361 C  
HETATM    3  H2  UNK A   0     -10.166   9.625  62.115  1.00  0.00     0.000 HD 
HETATM    4  H1  UNK A   0      -9.970  11.292  61.594  1.00  0.00     0.000 HD 
HETATM    5  O   UNK A   0     -10.103  10.157  64.559  1.00  0.00    -0.304 OA 
ENDROOT
BRANCH   2   6
ATOM      6  N   GLU A   1      -9.861  12.310  63.827  1.00  0.00    -0.596 N  
ATOM      7  H   GLU A   1      -9.137  12.804  63.307  1.00  0.00     0.000 HD 
BRANCH   6   8
ATOM      8  CA  GLU A   1     -10.720  13.054  64.740  1.00  0.00    -0.352 C  
ATOM      9  O   GLU A   1     -13.099  12.655  64.930  1.00  0.00    -0.850 OA 
ATOM     10  C   GLU A   1     -12.115  13.107  64.119  1.00  0.00    -0.430 C  
ATOM     11  OXT GLU A   1     -12.342  13.546  62.999  1.00  0.00    -0.661 OA 
BRANCH   8  12
ATOM     12  CB  GLU A   1     -10.185  14.475  64.963  1.00  0.00    -0.398 C  
BRANCH  12  13
ATOM     13  CG  GLU A   1     -11.096  15.296  65.873  1.00  0.00    -0.287 C  
ATOM     14  CD  GLU A   1     -10.778  16.768  65.823  1.00  0.00    -0.180 C  
ATOM     15  OE2 GLU A   1     -10.368  17.403  66.782  1.00  0.00    -0.313 OA 
ATOM     16  OE1 GLU A   1     -11.029  17.340  64.626  1.00  0.00    -1.013 OA 
ENDBRANCH  12  13
ENDBRANCH   8  12
ENDBRANCH   6   8
ENDBRANCH   2   6
TORSDOF 4
ENDMDL
MODEL        3
REMARK 921   NORMALIZED FREE ENERGY PREDICTED BY IDOCK:   -5.66 KCAL/MOL
REMARK 922        TOTAL FREE ENERGY PREDICTED BY IDOCK:   -6.82 KCAL/MOL
REMARK 923 INTER-LIGAND FREE ENERGY PREDICTED BY IDOCK:   -6.11 KCAL/MOL
REMARK 924 INTRA-LIGAND FREE ENERGY PREDICTED BY IDOCK:   -0.72 KCAL/MOL
REMARK 927      BINDING AFFINITY PREDICTED BY RF-SCORE:    0.00 PKD
ROOT
HETATM    1  N   UNK A   0     -12.423  14.075  63.253  1.00  0.00    -1.112 N  
HETATM    2  C   UNK A   0     -12.371  13.417  64.433  1.00  0.00    -0.341 C  
HETATM    3  H2  UNK A   0     -12.950  13.663  62.482  1.00  0.00     0.000 HD 
HETATM    4  H1  UNK A   0     -11.955  14.969  63.107  1.00  0.00     0.000 HD 
HETATM    5  O   UNK A   0     -12.932  12.345  64.608  1.00  0.00    -0.793 OA 
ENDROOT
BRANCH   2   6
ATOM      6  N   GLU A   1     -11.650  14.076  65.375  1.00  0.00    -0.319 N  
ATOM      7  H   GLU A   1     -12.126  14.717  66.009  1.00  0.00     0.000 HD 
BRANCH   6   8
ATOM      8  CA  GLU A   1     -10.211  13.887  65.498  1.00  0.00    -0.331 C  
ATOM      9  O   GLU A   1      -9.205  11.755  66.050  1.00  0.00    -0.223 OA 
ATOM     10  C   GLU A   1      -9.979  12.765  66.510  1.00  0.00    -0.253 C  
ATOM     11  OXT GLU A   1     -10.423  12.780  67.651  1.00  0.00    -0.216 OA 
BRANCH   8  12
ATOM     12  CB  GLU A   1      -9.524  15.175  65.970  1.00  0.00    -0.358 C  
BRANCH  12  13
ATOM     13  CG  GLU A   1     -10.531  16.237  66.410  1.00  0.00    -0.297 C  
ATOM     14  CD  GLU A   1     -10.718  17.313  65.372  1.00  0.00    -0.066 C  
ATOM     15  OE2 GLU A   1     -10.419  18.483  65.552  1.00  0.00    -0.597 OA 
ATOM     16  OE1 GLU A   1     -11.290  16.875  64.230  1.00  0.00    -1.202 OA 
ENDBRANCH  12  13
ENDBRANCH   8  12
ENDBRANCH   6   8
ENDBRANCH   2   6
TORSDOF 4
ENDMDL
MODEL        4
REMARK 921   NORMALIZED FREE ENERGY PREDICTED BY IDOCK:   -5.57 KCAL/MOL
REMARK 922        TOTAL FREE ENERGY PREDICTED BY IDOCK:   -6.71 KCAL/MOL
REMARK 923 INTER-LIGAND FREE ENERGY PREDICTED BY IDOCK:   -6.38 KCAL/MOL
REMARK 924 INTRA-LIGAND FREE ENERGY PREDICTED BY IDOCK:   -0.33 KCAL/MOL
REMARK 927      BINDING AFFINITY PREDICTED BY RF-SCORE:    0.00 PKD
ROOT
HETATM    1  N   UNK A   0     -12.045  11.565  63.095  1.00  0.00    -0.933 N  
HETATM    2  C   UNK A   0     -12.399  12.720  63.703  1.00  0.00    -0.463 C  
HETATM    3  H2  UNK A   0     -12.058  11.521  62.076  1.00  0.00     0.000 HD 
HETATM    4  H1  UNK A   0     -11.766  10.736  63.621  1.00  0.00     0.000 HD 
HETATM    5  O   UNK A   0     -12.733  13.713  63.074  1.00  0.00    -0.681 OA 
ENDROOT
BRANCH   2   6
ATOM      6  N   GLU A   1     -12.328  12.648  65.056  1.00  0.00    -0.491 N  
ATOM      7  H   GLU A   1     -13.190  12.634  65.601  1.00  0.00     0.000 HD 
BRANCH   6   8
ATOM      8  CA  GLU A   1     -11.046  12.589  65.746  1.00  0.00    -0.308 C  
ATOM      9  O   GLU A   1     -10.255  10.608  66.890  1.00  0.00    -0.205 OA 
ATOM     10  C   GLU A   1     -11.186  11.589  66.894  1.00  0.00    -0.298 C  
ATOM     11  OXT GLU A   1     -12.043  11.674  67.765  1.00  0.00    -0.613 OA 
BRANCH   8  12
ATOM     12  CB  GLU A   1     -10.651  13.968  66.292  1.00  0.00    -0.281 C  
BRANCH  12  13
ATOM     13  CG  GLU A   1     -10.042  14.862  65.214  1.00  0.00    -0.380 C  
ATOM     14  CD  GLU A   1     -10.766  16.177  65.084  1.00  0.00    -0.371 C  
ATOM     15  OE2 GLU A   1     -11.370  16.518  64.079  1.00  0.00    -1.064 OA 
ATOM     16  OE1 GLU A   1     -10.653  16.971  66.170  1.00  0.00    -0.290 OA 
ENDBRANCH  12  13
ENDBRANCH   8  12
ENDBRANCH   6   8
ENDBRANCH   2   6
TORSDOF 4
ENDMDL
MODEL        5
REMARK 921   NORMALIZED FREE ENERGY PREDICTED BY IDOCK:   -5.54 KCAL/MOL
REMARK 922        TOTAL FREE ENERGY PREDICTED BY IDOCK:   -6.68 KCAL/MOL
REMARK 923 INTER-LIGAND FREE ENERGY PREDICTED BY IDOCK:   -6.10 KCAL/MOL
REMARK 924 INTRA-LIGAND FREE ENERGY PREDICTED BY IDOCK:   -0.58 KCAL/MOL
REMARK 927      BINDING AFFINITY PREDICTED BY RF-SCORE:    0.00 PKD
ROOT
HETATM    1  N   UNK A   0     -12.368  15.149  63.598  1.00  0.00    -0.920 N  
HETATM    2  C   UNK A   0     -11.417  15.838  64.270  1.00  0.00    -0.198 C  
HETATM    3  H2  UNK A   0     -13.016  15.662  62.999  1.00  0.00     0.000 HD 
HETATM    4  H1  UNK A   0     -12.460  14.136  63.670  1.00  0.00     0.000 HD 
HETATM    5  O   UNK A   0     -11.307  17.052  64.184  1.00  0.00    -1.164 OA 
ENDROOT
BRANCH   2   6
ATOM      6  N   GLU A   1     -10.617  15.038  65.019  1.00  0.00    -0.410 N  
ATOM      7  H   GLU A   1      -9.679  14.816  64.685  1.00  0.00     0.000 HD 
BRANCH   6   8
ATOM      8  CA  GLU A   1     -11.070  14.492  66.292  1.00  0.00    -0.332 C  
ATOM      9  O   GLU A   1     -11.655  15.879  68.187  1.00  0.00    -0.329 OA 
ATOM     10  C   GLU A   1     -10.643  15.467  67.390  1.00  0.00    -0.289 C  
ATOM     11  OXT GLU A   1      -9.486  15.828  67.562  1.00  0.00    -0.216 OA 
BRANCH   8  12
ATOM     12  CB  GLU A   1     -10.457  13.109  66.547  1.00  0.00    -0.283 C  
BRANCH  12  13
ATOM     13  CG  GLU A   1     -11.406  11.977  66.156  1.00  0.00    -0.407 C  
ATOM     14  CD  GLU A   1     -12.064  12.218  64.822  1.00  0.00    -0.365 C  
ATOM     15  OE2 GLU A   1     -13.267  12.373  64.680  1.00  0.00    -0.822 OA 
ATOM     16  OE1 GLU A   1     -11.205  12.203  63.780  1.00  0.00    -0.361 OA 
ENDBRANCH  12  13
ENDBRANCH   8  12
ENDBRANCH   6   8
ENDBRANCH   2   6
TORSDOF 4
ENDMDL
MODEL        6
REMARK 921   NORMALIZED FREE ENERGY PREDICTED BY IDOCK:   -5.50 KCAL/MOL
REMARK 922        TOTAL FREE ENERGY PREDICTED BY IDOCK:   -6.63 KCAL/MOL
REMARK 923 INTER-LIGAND FREE ENERGY PREDICTED BY IDOCK:   -6.26 KCAL/MOL
REMARK 924 INTRA-LIGAND FREE ENERGY PREDICTED BY IDOCK:   -0.37 KCAL/MOL
REMARK 927      BINDING AFFINITY PREDICTED BY RF-SCORE:    0.00 PKD
ROOT
HETATM    1  N   UNK A   0     -11.206  12.869  69.635  1.00  0.00    -0.475 N  
HETATM    2  C   UNK A   0     -11.456  14.169  69.361  1.00  0.00    -0.288 C  
HETATM    3  H2  UNK A   0     -10.553  12.640  70.384  1.00  0.00     0.000 HD 
HETATM    4  H1  UNK A   0     -11.649  12.109  69.118  1.00  0.00     0.000 HD 
HETATM    5  O   UNK A   0     -10.926  15.080  69.980  1.00  0.00    -0.254 OA 
ENDROOT
BRANCH   2   6
ATOM      6  N   GLU A   1     -12.349  14.335  68.353  1.00  0.00    -0.577 N  
ATOM      7  H   GLU A   1     -13.347  14.320  68.562  1.00  0.00     0.000 HD 
BRANCH   6   8
ATOM      8  CA  GLU A   1     -11.910  14.535  66.978  1.00  0.00    -0.385 C  
ATOM      9  O   GLU A   1     -13.018  13.519  65.080  1.00  0.00    -0.721 OA 
ATOM     10  C   GLU A   1     -12.280  13.279  66.189  1.00  0.00    -0.405 C  
ATOM     11  OXT GLU A   1     -11.923  12.151  66.504  1.00  0.00    -0.618 OA 
BRANCH   8  12
ATOM     12  CB  GLU A   1     -10.395  14.772  66.912  1.00  0.00    -0.267 C  
BRANCH  12  13
ATOM     13  CG  GLU A   1      -9.950  15.278  65.541  1.00  0.00    -0.383 C  
ATOM     14  CD  GLU A   1     -10.661  16.545  65.140  1.00  0.00    -0.244 C  
ATOM     15  OE2 GLU A   1     -11.412  16.623  64.181  1.00  0.00    -1.131 OA 
ATOM     16  OE1 GLU A   1     -10.360  17.608  65.916  1.00  0.00    -0.508 OA 
ENDBRANCH  12  13
ENDBRANCH   8  12
ENDBRANCH   6   8
ENDBRANCH   2   6
TORSDOF 4
ENDMDL
MODEL        7
REMARK 921   NORMALIZED FREE ENERGY PREDICTED BY IDOCK:   -5.44 KCAL/MOL
REMARK 922        TOTAL FREE ENERGY PREDICTED BY IDOCK:   -6.56 KCAL/MOL
REMARK 923 INTER-LIGAND FREE ENERGY PREDICTED BY IDOCK:   -6.16 KCAL/MOL
REMARK 924 INTRA-LIGAND FREE ENERGY PREDICTED BY IDOCK:   -0.39 KCAL/MOL
REMARK 927      BINDING AFFINITY PREDICTED BY RF-SCORE:    0.00 PKD
ROOT
HETATM    1  N   UNK A   0     -12.369  13.909  63.262  1.00  0.00    -1.148 N  
HETATM    2  C   UNK A   0     -11.476  13.021  63.753  1.00  0.00    -0.429 C  
HETATM    3  H2  UNK A   0     -13.161  13.563  62.719  1.00  0.00     0.000 HD 
HETATM    4  H1  UNK A   0     -12.278  14.914  63.416  1.00  0.00     0.000 HD 
HETATM    5  O   UNK A   0     -11.584  11.817  63.569  1.00  0.00    -0.434 OA 
ENDROOT
BRANCH   2   6
ATOM      6  N   GLU A   1     -10.480  13.609  64.463  1.00  0.00    -0.527 N  
ATOM      7  H   GLU A   1      -9.818  14.219  63.984  1.00  0.00     0.000 HD 
BRANCH   6   8
ATOM      8  CA  GLU A   1     -10.340  13.389  65.897  1.00  0.00    -0.290 C  
ATOM      9  O   GLU A   1     -11.952  12.142  67.203  1.00  0.00    -0.580 OA 
ATOM     10  C   GLU A   1     -11.745  13.270  66.485  1.00  0.00    -0.377 C  
ATOM     11  OXT GLU A   1     -12.610  14.127  66.351  1.00  0.00    -0.427 OA 
BRANCH   8  12
ATOM     12  CB  GLU A   1      -9.585  14.549  66.561  1.00  0.00    -0.311 C  
BRANCH  12  13
ATOM     13  CG  GLU A   1      -9.314  15.693  65.586  1.00  0.00    -0.207 C  
ATOM     14  CD  GLU A   1     -10.499  16.612  65.438  1.00  0.00    -0.233 C  
ATOM     15  OE2 GLU A   1     -11.113  16.759  64.393  1.00  0.00    -1.072 OA 
ATOM     16  OE1 GLU A   1     -10.800  17.298  66.561  1.00  0.00    -0.127 OA 
ENDBRANCH  12  13
ENDBRANCH   8  12
ENDBRANCH   6   8
ENDBRANCH   2   6
TORSDOF 4
ENDMDL
MODEL        8
REMARK 921   NORMALIZED FREE ENERGY PREDICTED BY IDOCK:   -5.42 KCAL/MOL
REMARK 922        TOTAL FREE ENERGY PREDICTED BY IDOCK:   -6.54 KCAL/MOL
REMARK 923 INTER-LIGAND FREE ENERGY PREDICTED BY IDOCK:   -6.01 KCAL/MOL
REMARK 924 INTRA-LIGAND FREE ENERGY PREDICTED BY IDOCK:   -0.53 KCAL/MOL
REMARK 927      BINDING AFFINITY PREDICTED BY RF-SCORE:    0.00 PKD
ROOT
HETATM    1  N   UNK A   0     -12.377  14.375  63.540  1.00  0.00    -1.114 N  
HETATM    2  C   UNK A   0     -12.544  13.642  64.665  1.00  0.00    -0.242 C  
HETATM    3  H2  UNK A   0     -12.701  13.993  62.651  1.00  0.00     0.000 HD 
HETATM    4  H1  UNK A   0     -11.939  15.296  63.550  1.00  0.00     0.000 HD 
HETATM    5  O   UNK A   0     -13.069  12.539  64.652  1.00  0.00    -0.845 OA 
ENDROOT
BRANCH   2   6
ATOM      6  N   GLU A   1     -12.081  14.267  65.776  1.00  0.00    -0.407 N  
ATOM      7  H   GLU A   1     -12.578  15.083  66.134  1.00  0.00     0.000 HD 
BRANCH   6   8
ATOM      8  CA  GLU A   1     -10.888  13.797  66.468  1.00  0.00    -0.287 C  
ATOM      9  O   GLU A   1     -10.795  11.684  67.645  1.00  0.00    -0.203 OA 
ATOM     10  C   GLU A   1     -11.347  12.918  67.632  1.00  0.00    -0.303 C  
ATOM     11  OXT GLU A   1     -12.124  13.296  68.500  1.00  0.00    -0.341 OA 
BRANCH   8  12
ATOM     12  CB  GLU A   1     -10.055  14.974  66.993  1.00  0.00    -0.244 C  
BRANCH  12  13
ATOM     13  CG  GLU A   1      -9.562  15.879  65.865  1.00  0.00    -0.378 C  
ATOM     14  CD  GLU A   1     -10.500  17.029  65.602  1.00  0.00    -0.216 C  
ATOM     15  OE2 GLU A   1     -11.106  17.179  64.552  1.00  0.00    -1.105 OA 
ATOM     16  OE1 GLU A   1     -10.581  17.911  66.621  1.00  0.00    -0.324 OA 
ENDBRANCH  12  13
ENDBRANCH   8  12
ENDBRANCH   6   8
ENDBRANCH   2   6
TORSDOF 4
ENDMDL
MODEL        9
REMARK 921   NORMALIZED FREE ENERGY PREDICTED BY IDOCK:   -5.42 KCAL/MOL
REMARK 922        TOTAL FREE ENERGY PREDICTED BY IDOCK:   -6.53 KCAL/MOL
REMARK 923 INTER-LIGAND FREE ENERGY PREDICTED BY IDOCK:   -5.77 KCAL/MOL
REMARK 924 INTRA-LIGAND FREE ENERGY PREDICTED BY IDOCK:   -0.76 KCAL/MOL
REMARK 927      BINDING AFFINITY PREDICTED BY RF-SCORE:    0.00 PKD
ROOT
HETATM    1  N   UNK A   0     -12.176  14.160  63.355  1.00  0.00    -1.099 N  
HETATM    2  C   UNK A   0     -12.392  13.043  64.087  1.00  0.00    -0.358 C  
HETATM    3  H2  UNK A   0     -12.354  14.132  62.351  1.00  0.00     0.000 HD 
HETATM    4  H1  UNK A   0     -11.842  15.028  63.773  1.00  0.00     0.000 HD 
HETATM    5  O   UNK A   0     -12.793  12.003  63.587  1.00  0.00    -0.713 OA 
ENDROOT
BRANCH   2   6
ATOM      6  N   GLU A   1     -12.128  13.217  65.407  1.00  0.00    -0.395 N  
ATOM      7  H   GLU A   1     -12.824  13.668  66.000  1.00  0.00     0.000 HD 
BRANCH   6   8
ATOM      8  CA  GLU A   1     -10.870  12.773  65.992  1.00  0.00    -0.276 C  
ATOM      9  O   GLU A   1     -10.486  10.497  66.718  1.00  0.00    -0.239 OA 
ATOM     10  C   GLU A   1     -11.188  11.628  66.953  1.00  0.00    -0.313 C  
ATOM     11  OXT GLU A   1     -11.985  11.722  67.878  1.00  0.00    -0.575 OA 
BRANCH   8  12
ATOM     12  CB  GLU A   1     -10.179  13.918  66.745  1.00  0.00    -0.268 C  
BRANCH  12  13
ATOM     13  CG  GLU A   1     -11.090  15.133  66.910  1.00  0.00    -0.314 C  
ATOM     14  CD  GLU A   1     -10.614  16.318  66.110  1.00  0.00    -0.267 C  
ATOM     15  OE2 GLU A   1     -10.245  17.368  66.614  1.00  0.00    -0.305 OA 
ATOM     16  OE1 GLU A   1     -10.672  16.133  64.774  1.00  0.00    -0.648 OA 
ENDBRANCH  12  13
ENDBRANCH   8  12
ENDBRANCH   6   8
ENDBRANCH   2   6
TORSDOF 4
ENDMDL
MODEL       10
REMARK 921   NORMALIZED FREE ENERGY PREDICTED BY IDOCK:   -5.39 KCAL/MOL
REMARK 922        TOTAL FREE ENERGY PREDICTED BY IDOCK:   -6.49 KCAL/MOL
REMARK 923 INTER-LIGAND FREE ENERGY PREDICTED BY IDOCK:   -6.08 KCAL/MOL
REMARK 924 INTRA-LIGAND FREE ENERGY PREDICTED BY IDOCK:   -0.41 KCAL/MOL
REMARK 927      BINDING AFFINITY PREDICTED BY RF-SCORE:    0.00 PKD
ROOT
HETATM    1  N   UNK A   0     -10.049  15.532  65.355  1.00  0.00    -0.361 N  
HETATM    2  C   UNK A   0     -11.136  15.768  64.585  1.00  0.00    -0.361 C  
HETATM    3  H2  UNK A   0      -9.425  16.309  65.577  1.00  0.00     0.000 HD 
HETATM    4  H1  UNK A   0      -9.832  14.605  65.721  1.00  0.00     0.000 HD 
HETATM    5  O   UNK A   0     -11.397  16.878  64.147  1.00  0.00    -1.208 OA 
ENDROOT
BRANCH   2   6
ATOM      6  N   GLU A   1     -11.885  14.656  64.374  1.00  0.00    -0.608 N  
ATOM      7  H   GLU A   1     -12.777  14.740  63.887  1.00  0.00     0.000 HD 
BRANCH   6   8
ATOM      8  CA  GLU A   1     -11.440  13.346  64.830  1.00  0.00    -0.336 C  
ATOM      9  O   GLU A   1     -10.739  11.593  63.315  1.00  0.00    -0.373 OA 
ATOM     10  C   GLU A   1     -11.788  12.336  63.736  1.00  0.00    -0.498 C  
ATOM     11  OXT GLU A   1     -12.918  12.181  63.292  1.00  0.00    -0.735 OA 
BRANCH   8  12
ATOM     12  CB  GLU A   1     -12.128  12.957  66.145  1.00  0.00    -0.458 C  
BRANCH  12  13
ATOM     13  CG  GLU A   1     -11.128  12.760  67.283  1.00  0.00    -0.314 C  
ATOM     14  CD  GLU A   1     -11.130  13.914  68.252  1.00  0.00    -0.258 C  
ATOM     15  OE2 GLU A   1     -10.169  14.647  68.431  1.00  0.00    -0.224 OA 
ATOM     16  OE1 GLU A   1     -12.282  14.043  68.944  1.00  0.00    -0.345 OA 
ENDBRANCH  12  13
ENDBRANCH   8  12
ENDBRANCH   6   8
ENDBRANCH   2   6
TORSDOF 4
ENDMDL
MODEL       11
REMARK 921   NORMALIZED FREE ENERGY PREDICTED BY IDOCK:   -5.37 KCAL/MOL
REMARK 922        TOTAL FREE ENERGY PREDICTED BY IDOCK:   -6.46 KCAL/MOL
REMARK 923 INTER-LIGAND FREE ENERGY PREDICTED BY IDOCK:   -6.20 KCAL/MOL
REMARK 924 INTRA-LIGAND FREE ENERGY PREDICTED BY IDOCK:   -0.26 KCAL/MOL
REMARK 927      BINDING AFFINITY PREDICTED BY RF-SCORE:    0.00 PKD
ROOT
HETATM    1  N   UNK A   0     -10.149  15.686  65.500  1.00  0.00    -0.360 N  
HETATM    2  C   UNK A   0     -11.207  15.793  64.664  1.00  0.00    -0.363 C  
HETATM    3  H2  UNK A   0      -9.498  16.468  65.572  1.00  0.00     0.000 HD 
HETATM    4  H1  UNK A   0      -9.981  14.851  66.061  1.00  0.00     0.000 HD 
HETATM    5  O   UNK A   0     -11.409  16.794  63.992  1.00  0.00    -1.153 OA 
ENDROOT
BRANCH   2   6
ATOM      6  N   GLU A   1     -11.999  14.691  64.670  1.00  0.00    -0.452 N  
ATOM      7  H   GLU A   1     -12.997  14.793  64.490  1.00  0.00     0.000 HD 
BRANCH   6   8
ATOM      8  CA  GLU A   1     -11.451  13.366  64.928  1.00  0.00    -0.325 C  
ATOM      9  O   GLU A   1     -10.604  11.927  63.176  1.00  0.00    -0.373 OA 
ATOM     10  C   GLU A   1     -11.711  12.511  63.688  1.00  0.00    -0.515 C  
ATOM     11  OXT GLU A   1     -12.824  12.336  63.207  1.00  0.00    -0.719 OA 
BRANCH   8  12
ATOM     12  CB  GLU A   1     -12.110  12.728  66.158  1.00  0.00    -0.429 C  
BRANCH  12  13
ATOM     13  CG  GLU A   1     -11.184  12.727  67.372  1.00  0.00    -0.337 C  
ATOM     14  CD  GLU A   1     -11.885  12.274  68.627  1.00  0.00    -0.305 C  
ATOM     15  OE2 GLU A   1     -12.058  12.991  69.600  1.00  0.00    -0.297 OA 
ATOM     16  OE1 GLU A   1     -12.273  10.981  68.599  1.00  0.00    -0.571 OA 
ENDBRANCH  12  13
ENDBRANCH   8  12
ENDBRANCH   6   8
ENDBRANCH   2   6
TORSDOF 4
ENDMDL
MODEL       12
REMARK 921   NORMALIZED FREE ENERGY PREDICTED BY IDOCK:   -5.23 KCAL/MOL
REMARK 922        TOTAL FREE ENERGY PREDICTED BY IDOCK:   -6.30 KCAL/MOL
REMARK 923 INTER-LIGAND FREE ENERGY PREDICTED BY IDOCK:   -5.55 KCAL/MOL
REMARK 924 INTRA-LIGAND FREE ENERGY PREDICTED BY IDOCK:   -0.75 KCAL/MOL
REMARK 927      BINDING AFFINITY PREDICTED BY RF-SCORE:    0.00 PKD
ROOT
HETATM    1  N   UNK A   0     -12.399  13.927  63.511  1.00  0.00    -1.087 N  
HETATM    2  C   UNK A   0     -11.848  15.045  64.038  1.00  0.00    -0.009 C  
HETATM    3  H2  UNK A   0     -13.168  14.023  62.848  1.00  0.00     0.000 HD 
HETATM    4  H1  UNK A   0     -12.071  12.992  63.754  1.00  0.00     0.000 HD 
HETATM    5  O   UNK A   0     -12.241  16.165  63.746  1.00  0.00    -0.934 OA 
ENDROOT
BRANCH   2   6
ATOM      6  N   GLU A   1     -10.830  14.779  64.894  1.00  0.00    -0.463 N  
ATOM      7  H   GLU A   1     -10.053  14.197  64.582  1.00  0.00     0.000 HD 
BRANCH   6   8
ATOM      8  CA  GLU A   1     -10.825  15.310  66.252  1.00  0.00    -0.312 C  
ATOM      9  O   GLU A   1     -10.231  17.599  66.769  1.00  0.00    -0.312 OA 
ATOM     10  C   GLU A   1      -9.769  16.413  66.311  1.00  0.00    -0.308 C  
ATOM     11  OXT GLU A   1      -8.596  16.245  66.002  1.00  0.00    -0.332 OA 
BRANCH   8  12
ATOM     12  CB  GLU A   1     -10.497  14.210  67.271  1.00  0.00    -0.272 C  
BRANCH  12  13
ATOM     13  CG  GLU A   1     -10.165  12.880  66.597  1.00  0.00    -0.251 C  
ATOM     14  CD  GLU A   1     -11.298  11.892  66.691  1.00  0.00    -0.337 C  
ATOM     15  OE2 GLU A   1     -11.224  10.835  67.298  1.00  0.00    -0.324 OA 
ATOM     16  OE1 GLU A   1     -12.400  12.260  66.003  1.00  0.00    -0.609 OA 
ENDBRANCH  12  13
ENDBRANCH   8  12
ENDBRANCH   6   8
ENDBRANCH   2   6
TORSDOF 4
ENDMDL
MODEL       13
REMARK 921   NORMALIZED FREE ENERGY PREDICTED BY IDOCK:   -5.22 KCAL/MOL
REMARK 922        TOTAL FREE ENERGY PREDICTED BY IDOCK:   -6.28 KCAL/MOL
REMARK 923 INTER-LIGAND FREE ENERGY PREDICTED BY IDOCK:   -5.90 KCAL/MOL
REMARK 924 INTRA-LIGAND FREE ENERGY PREDICTED BY IDOCK:   -0.38 KCAL/MOL
REMARK 927      BINDING AFFINITY PREDICTED BY RF-SCORE:    0.00 PKD
ROOT
HETATM    1  N   UNK A   0     -12.336  13.811  63.081  1.00  0.00    -1.106 N  
HETATM    2  C   UNK A   0     -12.228  14.152  64.385  1.00  0.00    -0.439 C  
HETATM    3  H2  UNK A   0     -13.233  13.473  62.733  1.00  0.00     0.000 HD 
HETATM    4  H1  UNK A   0     -11.550  13.880  62.434  1.00  0.00     0.000 HD 
HETATM    5  O   UNK A   0     -13.169  14.070  65.161  1.00  0.00    -0.768 OA 
ENDROOT
BRANCH   2   6
ATOM      6  N   GLU A   1     -10.989  14.595  64.715  1.00  0.00    -0.518 N  
ATOM      7  H   GLU A   1     -10.337  14.854  63.974  1.00  0.00     0.000 HD 
BRANCH   6   8
ATOM      8  CA  GLU A   1     -10.570  14.707  66.106  1.00  0.00    -0.312 C  
ATOM      9  O   GLU A   1     -10.417  16.824  67.270  1.00  0.00    -0.317 OA 
ATOM     10  C   GLU A   1      -9.896  16.068  66.276  1.00  0.00    -0.308 C  
ATOM     11  OXT GLU A   1      -8.947  16.443  65.599  1.00  0.00    -0.427 OA 
BRANCH   8  12
ATOM     12  CB  GLU A   1      -9.592  13.584  66.479  1.00  0.00    -0.284 C  
BRANCH  12  13
ATOM     13  CG  GLU A   1      -9.879  13.007  67.864  1.00  0.00    -0.224 C  
ATOM     14  CD  GLU A   1     -11.356  12.878  68.136  1.00  0.00    -0.289 C  
ATOM     15  OE2 GLU A   1     -11.938  13.499  69.011  1.00  0.00    -0.327 OA 
ATOM     16  OE1 GLU A   1     -11.978  11.975  67.348  1.00  0.00    -0.583 OA 
ENDBRANCH  12  13
ENDBRANCH   8  12
ENDBRANCH   6   8
ENDBRANCH   2   6
TORSDOF 4
ENDMDL
MODEL       14
REMARK 921   NORMALIZED FREE ENERGY PREDICTED BY IDOCK:   -5.19 KCAL/MOL
REMARK 922        TOTAL FREE ENERGY PREDICTED BY IDOCK:   -6.24 KCAL/MOL
REMARK 923 INTER-LIGAND FREE ENERGY PREDICTED BY IDOCK:   -5.89 KCAL/MOL
REMARK 924 INTRA-LIGAND FREE ENERGY PREDICTED BY IDOCK:   -0.35 KCAL/MOL
REMARK 927      BINDING AFFINITY PREDICTED BY RF-SCORE:    0.00 PKD
ROOT
HETATM    1  N   UNK A   0     -10.688  15.651  65.646  1.00  0.00    -0.352 N  
HETATM    2  C   UNK A   0     -11.481  15.699  64.552  1.00  0.00    -0.300 C  
HETATM    3  H2  UNK A   0     -10.153  16.481  65.903  1.00  0.00     0.000 HD 
HETATM    4  H1  UNK A   0     -10.606  14.814  66.223  1.00  0.00     0.000 HD 
HETATM    5  O   UNK A   0     -11.580  16.702  63.861  1.00  0.00    -1.204 OA 
ENDROOT
BRANCH   2   6
ATOM      6  N   GLU A   1     -12.143  14.536  64.328  1.00  0.00    -0.625 N  
ATOM      7  H   GLU A   1     -13.041  14.558  63.844  1.00  0.00     0.000 HD 
BRANCH   6   8
ATOM      8  CA  GLU A   1     -11.598  13.257  64.764  1.00  0.00    -0.332 C  
ATOM      9  O   GLU A   1     -10.940  11.511  63.222  1.00  0.00    -0.351 OA 
ATOM     10  C   GLU A   1     -11.985  12.211  63.720  1.00  0.00    -0.513 C  
ATOM     11  OXT GLU A   1     -13.140  11.993  63.376  1.00  0.00    -0.747 OA 
BRANCH   8  12
ATOM     12  CB  GLU A   1     -12.152  12.862  66.139  1.00  0.00    -0.458 C  
BRANCH  12  13
ATOM     13  CG  GLU A   1     -11.229  11.893  66.876  1.00  0.00    -0.382 C  
ATOM     14  CD  GLU A   1      -9.859  12.475  67.109  1.00  0.00    -0.210 C  
ATOM     15  OE2 GLU A   1      -8.839  12.018  66.617  1.00  0.00    -0.198 OA 
ATOM     16  OE1 GLU A   1      -9.850  13.529  67.953  1.00  0.00    -0.221 OA 
ENDBRANCH  12  13
ENDBRANCH   8  12
ENDBRANCH   6   8
ENDBRANCH   2   6
TORSDOF 4
ENDMDL
MODEL       15
REMARK 921   NORMALIZED FREE ENERGY PREDICTED BY IDOCK:   -5.18 KCAL/MOL
REMARK 922        TOTAL FREE ENERGY PREDICTED BY IDOCK:   -6.23 KCAL/MOL
REMARK 923 INTER-LIGAND FREE ENERGY PREDICTED BY IDOCK:   -5.96 KCAL/MOL
REMARK 924 INTRA-LIGAND FREE ENERGY PREDICTED BY IDOCK:   -0.27 KCAL/MOL
REMARK 927      BINDING AFFINITY PREDICTED BY RF-SCORE:    0.00 PKD
ROOT
HETATM    1  N   UNK A   0     -12.358  13.971  63.277  1.00  0.00    -1.145 N  
HETATM    2  C   UNK A   0     -12.200  14.933  64.215  1.00  0.00    -0.344 C  
HETATM    3  H2  UNK A   0     -12.424  14.245  62.297  1.00  0.00     0.000 HD 
HETATM    4  H1  UNK A   0     -12.412  12.981  63.517  1.00  0.00     0.000 HD 
HETATM    5  O   UNK A   0     -12.136  16.120  63.927  1.00  0.00    -0.956 OA 
ENDROOT
BRANCH   2   6
ATOM      6  N   GLU A   1     -12.115  14.436  65.474  1.00  0.00    -0.372 N  
ATOM      7  H   GLU A   1     -12.927  14.488  66.088  1.00  0.00     0.000 HD 
BRANCH   6   8
ATOM      8  CA  GLU A   1     -10.886  13.826  65.966  1.00  0.00    -0.282 C  
ATOM      9  O   GLU A   1     -10.304  11.514  65.550  1.00  0.00    -0.253 OA 
ATOM     10  C   GLU A   1     -11.165  12.340  66.187  1.00  0.00    -0.328 C  
ATOM     11  OXT GLU A   1     -12.068  11.919  66.899  1.00  0.00    -0.599 OA 
BRANCH   8  12
ATOM     12  CB  GLU A   1     -10.435  14.480  67.279  1.00  0.00    -0.266 C  
BRANCH  12  13
ATOM     13  CG  GLU A   1     -11.596  15.135  68.025  1.00  0.00    -0.345 C  
ATOM     14  CD  GLU A   1     -11.143  16.271  68.905  1.00  0.00    -0.345 C  
ATOM     15  OE2 GLU A   1     -11.243  16.264  70.122  1.00  0.00    -0.358 OA 
ATOM     16  OE1 GLU A   1     -10.649  17.326  68.222  1.00  0.00    -0.366 OA 
ENDBRANCH  12  13
ENDBRANCH   8  12
ENDBRANCH   6   8
ENDBRANCH   2   6
TORSDOF 4
ENDMDL
MODEL       16
REMARK 921   NORMALIZED FREE ENERGY PREDICTED BY IDOCK:   -5.14 KCAL/MOL
REMARK 922        TOTAL FREE ENERGY PREDICTED BY IDOCK:   -6.19 KCAL/MOL
REMARK 923 INTER-LIGAND FREE ENERGY PREDICTED BY IDOCK:   -5.83 KCAL/MOL
REMARK 924 INTRA-LIGAND FREE ENERGY PREDICTED BY IDOCK:   -0.35 KCAL/MOL
REMARK 927      BINDING AFFINITY PREDICTED BY RF-SCORE:    0.00 PKD
ROOT
HETATM    1  N   UNK A   0     -12.500  15.027  63.735  1.00  0.00    -1.049 N  
HETATM    2  C   UNK A   0     -11.397  15.619  64.249  1.00  0.00    -0.171 C  
HETATM    3  H2  UNK A   0     -13.199  15.608  63.270  1.00  0.00     0.000 HD 
HETATM    4  H1  UNK A   0     -12.656  14.021  63.795  1.00  0.00     0.000 HD 
HETATM    5  O   UNK A   0     -11.210  16.824  64.177  1.00  0.00    -1.155 OA 
ENDROOT
BRANCH   2   6
ATOM      6  N   GLU A   1     -10.546  14.736  64.829  1.00  0.00    -0.563 N  
ATOM      7  H   GLU A   1      -9.637  14.563  64.399  1.00  0.00     0.000 HD 
BRANCH   6   8
ATOM      8  CA  GLU A   1     -10.903  14.030  66.053  1.00  0.00    -0.295 C  
ATOM      9  O   GLU A   1     -11.881  15.134  67.972  1.00  0.00    -0.331 OA 
ATOM     10  C   GLU A   1     -10.769  15.019  67.210  1.00  0.00    -0.298 C  
ATOM     11  OXT GLU A   1      -9.742  15.638  67.456  1.00  0.00    -0.220 OA 
BRANCH   8  12
ATOM     12  CB  GLU A   1      -9.983  12.823  66.281  1.00  0.00    -0.269 C  
BRANCH  12  13
ATOM     13  CG  GLU A   1     -10.681  11.500  65.969  1.00  0.00    -0.332 C  
ATOM     14  CD  GLU A   1     -11.071  10.751  67.217  1.00  0.00    -0.270 C  
ATOM     15  OE2 GLU A   1     -10.608   9.663  67.522  1.00  0.00    -0.253 OA 
ATOM     16  OE1 GLU A   1     -12.016  11.372  67.953  1.00  0.00    -0.626 OA 
ENDBRANCH  12  13
ENDBRANCH   8  12
ENDBRANCH   6   8
ENDBRANCH   2   6
TORSDOF 4
ENDMDL
MODEL       17
REMARK 921   NORMALIZED FREE ENERGY PREDICTED BY IDOCK:   -5.12 KCAL/MOL
REMARK 922        TOTAL FREE ENERGY PREDICTED BY IDOCK:   -6.16 KCAL/MOL
REMARK 923 INTER-LIGAND FREE ENERGY PREDICTED BY IDOCK:   -5.88 KCAL/MOL
REMARK 924 INTRA-LIGAND FREE ENERGY PREDICTED BY IDOCK:   -0.28 KCAL/MOL
REMARK 927      BINDING AFFINITY PREDICTED BY RF-SCORE:    0.00 PKD
ROOT
HETATM    1  N   UNK A   0     -11.703  11.555  63.191  1.00  0.00    -0.890 N  
HETATM    2  C   UNK A   0     -12.300  12.666  63.680  1.00  0.00    -0.492 C  
HETATM    3  H2  UNK A   0     -11.496  11.506  62.194  1.00  0.00     0.000 HD 
HETATM    4  H1  UNK A   0     -11.452  10.765  63.786  1.00  0.00     0.000 HD 
HETATM    5  O   UNK A   0     -12.601  13.612  62.968  1.00  0.00    -0.729 OA 
ENDROOT
BRANCH   2   6
ATOM      6  N   GLU A   1     -12.509  12.607  65.020  1.00  0.00    -0.509 N  
ATOM      7  H   GLU A   1     -13.389  12.231  65.372  1.00  0.00     0.000 HD 
BRANCH   6   8
ATOM      8  CA  GLU A   1     -11.502  13.071  65.965  1.00  0.00    -0.335 C  
ATOM      9  O   GLU A   1      -9.923  11.586  67.042  1.00  0.00    -0.197 OA 
ATOM     10  C   GLU A   1     -11.227  11.930  66.943  1.00  0.00    -0.325 C  
ATOM     11  OXT GLU A   1     -12.099  11.384  67.608  1.00  0.00    -0.630 OA 
BRANCH   8  12
ATOM     12  CB  GLU A   1     -11.989  14.312  66.724  1.00  0.00    -0.462 C  
BRANCH  12  13
ATOM     13  CG  GLU A   1     -10.866  14.985  67.511  1.00  0.00    -0.297 C  
ATOM     14  CD  GLU A   1     -11.383  16.024  68.472  1.00  0.00    -0.382 C  
ATOM     15  OE2 GLU A   1     -11.124  17.214  68.383  1.00  0.00    -0.291 OA 
ATOM     16  OE1 GLU A   1     -12.129  15.515  69.475  1.00  0.00    -0.344 OA 
ENDBRANCH  12  13
ENDBRANCH   8  12
ENDBRANCH   6   8
ENDBRANCH   2   6
TORSDOF 4
ENDMDL
MODEL       18
REMARK 921   NORMALIZED FREE ENERGY PREDICTED BY IDOCK:   -5.07 KCAL/MOL
REMARK 922        TOTAL FREE ENERGY PREDICTED BY IDOCK:   -6.09 KCAL/MOL
REMARK 923 INTER-LIGAND FREE ENERGY PREDICTED BY IDOCK:   -6.00 KCAL/MOL
REMARK 924 INTRA-LIGAND FREE ENERGY PREDICTED BY IDOCK:   -0.09 KCAL/MOL
REMARK 927      BINDING AFFINITY PREDICTED BY RF-SCORE:    0.00 PKD
ROOT
HETATM    1  N   UNK A   0     -11.655  11.417  63.184  1.00  0.00    -0.873 N  
HETATM    2  C   UNK A   0     -10.364  11.410  63.586  1.00  0.00    -0.410 C  
HETATM    3  H2  UNK A   0     -11.861  11.501  62.189  1.00  0.00     0.000 HD 
HETATM    4  H1  UNK A   0     -12.431  11.342  63.843  1.00  0.00     0.000 HD 
HETATM    5  O   UNK A   0      -9.435  11.501  62.798  1.00  0.00    -0.373 OA 
ENDROOT
BRANCH   2   6
ATOM      6  N   GLU A   1     -10.229  11.283  64.931  1.00  0.00    -0.267 N  
ATOM      7  H   GLU A   1     -10.099  10.355  65.334  1.00  0.00     0.000 HD 
BRANCH   6   8
ATOM      8  CA  GLU A   1     -10.267  12.445  65.809  1.00  0.00    -0.260 C  
ATOM      9  O   GLU A   1     -11.540  12.499  67.867  1.00  0.00    -0.305 OA 
ATOM     10  C   GLU A   1     -11.621  12.442  66.518  1.00  0.00    -0.387 C  
ATOM     11  OXT GLU A   1     -12.694  12.421  65.928  1.00  0.00    -0.310 OA 
BRANCH   8  12
ATOM     12  CB  GLU A   1     -10.090  13.744  65.012  1.00  0.00    -0.310 C  
BRANCH  12  13
ATOM     13  CG  GLU A   1     -11.101  14.814  65.422  1.00  0.00    -0.359 C  
ATOM     14  CD  GLU A   1     -11.843  15.383  64.240  1.00  0.00    -0.199 C  
ATOM     15  OE2 GLU A   1     -11.760  16.550  63.890  1.00  0.00    -1.148 OA 
ATOM     16  OE1 GLU A   1     -12.648  14.493  63.622  1.00  0.00    -0.798 OA 
ENDBRANCH  12  13
ENDBRANCH   8  12
ENDBRANCH   6   8
ENDBRANCH   2   6
TORSDOF 4
ENDMDL
MODEL       19
REMARK 921   NORMALIZED FREE ENERGY PREDICTED BY IDOCK:   -5.05 KCAL/MOL
REMARK 922        TOTAL FREE ENERGY PREDICTED BY IDOCK:   -6.07 KCAL/MOL
REMARK 923 INTER-LIGAND FREE ENERGY PREDICTED BY IDOCK:   -5.88 KCAL/MOL
REMARK 924 INTRA-LIGAND FREE ENERGY PREDICTED BY IDOCK:   -0.19 KCAL/MOL
REMARK 927      BINDING AFFINITY PREDICTED BY RF-SCORE:    0.00 PKD
ROOT
HETATM    1  N   UNK A   0     -10.831  10.977  62.937  1.00  0.00    -0.768 N  
HETATM    2  C   UNK A   0      -9.758  11.783  63.101  1.00  0.00    -0.293 C  
HETATM    3  H2  UNK A   0     -10.755  10.175  62.311  1.00  0.00     0.000 HD 
HETATM    4  H1  UNK A   0     -11.715  11.142  63.420  1.00  0.00     0.000 HD 
HETATM    5  O   UNK A   0      -8.699  11.585  62.523  1.00  0.00    -0.292 OA 
ENDROOT
BRANCH   2   6
ATOM      6  N   GLU A   1      -9.988  12.802  63.967  1.00  0.00    -0.603 N  
ATOM      7  H   GLU A   1      -9.444  13.660  63.884  1.00  0.00     0.000 HD 
BRANCH   6   8
ATOM      8  CA  GLU A   1     -10.998  12.694  65.011  1.00  0.00    -0.289 C  
ATOM      9  O   GLU A   1     -13.312  12.147  64.556  1.00  0.00    -0.691 OA 
ATOM     10  C   GLU A   1     -12.343  13.077  64.394  1.00  0.00    -0.376 C  
ATOM     11  OXT GLU A   1     -12.548  14.142  63.825  1.00  0.00    -0.804 OA 
BRANCH   8  12
ATOM     12  CB  GLU A   1     -10.674  13.623  66.189  1.00  0.00    -0.286 C  
BRANCH  12  13
ATOM     13  CG  GLU A   1     -11.598  13.386  67.382  1.00  0.00    -0.394 C  
ATOM     14  CD  GLU A   1     -11.410  12.020  67.989  1.00  0.00    -0.296 C  
ATOM     15  OE2 GLU A   1     -12.278  11.161  68.001  1.00  0.00    -0.584 OA 
ATOM     16  OE1 GLU A   1     -10.201  11.839  68.561  1.00  0.00    -0.203 OA 
ENDBRANCH  12  13
ENDBRANCH   8  12
ENDBRANCH   6   8
ENDBRANCH   2   6
TORSDOF 4
ENDMDL
MODEL       20
REMARK 921   NORMALIZED FREE ENERGY PREDICTED BY IDOCK:   -5.04 KCAL/MOL
REMARK 922        TOTAL FREE ENERGY PREDICTED BY IDOCK:   -6.06 KCAL/MOL
REMARK 923 INTER-LIGAND FREE ENERGY PREDICTED BY IDOCK:   -5.87 KCAL/MOL
REMARK 924 INTRA-LIGAND FREE ENERGY PREDICTED BY IDOCK:   -0.18 KCAL/MOL
REMARK 927      BINDING AFFINITY PREDICTED BY RF-SCORE:    0.00 PKD
ROOT
HETATM    1  N   UNK A   0     -12.046  11.611  63.070  1.00  0.00    -0.927 N  
HETATM    2  C   UNK A   0     -10.753  11.707  63.456  1.00  0.00    -0.428 C  
HETATM    3  H2  UNK A   0     -12.420  10.694  62.824  1.00  0.00     0.000 HD 
HETATM    4  H1  UNK A   0     -12.660  12.424  63.016  1.00  0.00     0.000 HD 
HETATM    5  O   UNK A   0     -10.018  10.733  63.521  1.00  0.00    -0.323 OA 
ENDROOT
BRANCH   2   6
ATOM      6  N   GLU A   1     -10.387  12.977  63.765  1.00  0.00    -0.527 N  
ATOM      7  H   GLU A   1      -9.726  13.466  63.163  1.00  0.00     0.000 HD 
BRANCH   6   8
ATOM      8  CA  GLU A   1     -10.920  13.654  64.940  1.00  0.00    -0.367 C  
ATOM      9  O   GLU A   1     -13.284  13.739  65.453  1.00  0.00    -0.722 OA 
ATOM     10  C   GLU A   1     -12.324  14.146  64.591  1.00  0.00    -0.410 C  
ATOM     11  OXT GLU A   1     -12.570  14.869  63.634  1.00  0.00    -0.724 OA 
BRANCH   8  12
ATOM     12  CB  GLU A   1     -10.031  14.839  65.342  1.00  0.00    -0.369 C  
BRANCH  12  13
ATOM     13  CG  GLU A   1     -10.621  15.633  66.507  1.00  0.00    -0.307 C  
ATOM     14  CD  GLU A   1     -10.671  14.828  67.780  1.00  0.00    -0.268 C  
ATOM     15  OE2 GLU A   1     -11.710  14.518  68.342  1.00  0.00    -0.308 OA 
ATOM     16  OE1 GLU A   1      -9.455  14.514  68.274  1.00  0.00    -0.195 OA 
ENDBRANCH  12  13
ENDBRANCH   8  12
ENDBRANCH   6   8
ENDBRANCH   2   6
TORSDOF 4
ENDMDL
MODEL       21
REMARK 921   NORMALIZED FREE ENERGY PREDICTED BY IDOCK:   -5.02 KCAL/MOL
REMARK 922        TOTAL FREE ENERGY PREDICTED BY IDOCK:   -6.03 KCAL/MOL
REMARK 923 INTER-LIGAND FREE ENERGY PREDICTED BY IDOCK:   -5.75 KCAL/MOL
REMARK 924 INTRA-LIGAND FREE ENERGY PREDICTED BY IDOCK:   -0.28 KCAL/MOL
REMARK 927      BINDING AFFINITY PREDICTED BY RF-SCORE:    0.00 PKD
ROOT
HETATM    1  N   UNK A   0     -13.245  15.547  70.371  1.00  0.00    -0.757 N  
HETATM    2  C   UNK A   0     -11.941  15.471  70.022  1.00  0.00    -0.364 C  
HETATM    3  H2  UNK A   0     -13.635  16.455  70.626  1.00  0.00     0.000 HD 
HETATM    4  H1  UNK A   0     -13.853  14.728  70.388  1.00  0.00     0.000 HD 
HETATM    5  O   UNK A   0     -11.213  16.453  70.001  1.00  0.00    -0.348 OA 
ENDROOT
BRANCH   2   6
ATOM      6  N   GLU A   1     -11.553  14.213  69.696  1.00  0.00    -0.277 N  
ATOM      7  H   GLU A   1     -10.868  13.734  70.280  1.00  0.00     0.000 HD 
BRANCH   6   8
ATOM      8  CA  GLU A   1     -12.097  13.531  68.528  1.00  0.00    -0.268 C  
ATOM      9  O   GLU A   1     -12.270  11.122  68.371  1.00  0.00    -0.610 OA 
ATOM     10  C   GLU A   1     -11.414  12.167  68.432  1.00  0.00    -0.304 C  
ATOM     11  OXT GLU A   1     -10.199  12.020  68.382  1.00  0.00    -0.201 OA 
BRANCH   8  12
ATOM     12  CB  GLU A   1     -11.842  14.341  67.250  1.00  0.00    -0.444 C  
BRANCH  12  13
ATOM     13  CG  GLU A   1     -12.532  13.729  66.033  1.00  0.00    -0.491 C  
ATOM     14  CD  GLU A   1     -11.982  14.261  64.735  1.00  0.00    -0.440 C  
ATOM     15  OE2 GLU A   1     -12.640  14.915  63.940  1.00  0.00    -0.831 OA 
ATOM     16  OE1 GLU A   1     -10.698  13.913  64.503  1.00  0.00    -0.412 OA 
ENDBRANCH  12  13
ENDBRANCH   8  12
ENDBRANCH   6   8
ENDBRANCH   2   6
TORSDOF 4
ENDMDL
MODEL       22
REMARK 921   NORMALIZED FREE ENERGY PREDICTED BY IDOCK:   -5.01 KCAL/MOL
REMARK 922        TOTAL FREE ENERGY PREDICTED BY IDOCK:   -6.03 KCAL/MOL
REMARK 923 INTER-LIGAND FREE ENERGY PREDICTED BY IDOCK:   -5.67 KCAL/MOL
REMARK 924 INTRA-LIGAND FREE ENERGY PREDICTED BY IDOCK:   -0.36 KCAL/MOL
REMARK 927      BINDING AFFINITY PREDICTED BY RF-SCORE:    0.00 PKD
ROOT
HETATM    1  N   UNK A   0     -12.430  13.919  63.335  1.00  0.00    -1.110 N  
HETATM    2  C   UNK A   0     -12.273  14.950  64.197  1.00  0.00    -0.255 C  
HETATM    3  H2  UNK A   0     -12.524  14.120  62.339  1.00  0.00     0.000 HD 
HETATM    4  H1  UNK A   0     -12.458  12.948  63.647  1.00  0.00     0.000 HD 
HETATM    5  O   UNK A   0     -12.239  16.113  63.823  1.00  0.00    -0.934 OA 
ENDROOT
BRANCH   2   6
ATOM      6  N   GLU A   1     -12.149  14.546  65.486  1.00  0.00    -0.334 N  
ATOM      7  H   GLU A   1     -12.987  14.319  66.021  1.00  0.00     0.000 HD 
BRANCH   6   8
ATOM      8  CA  GLU A   1     -10.843  14.431  66.122  1.00  0.00    -0.309 C  
ATOM      9  O   GLU A   1      -9.683  12.322  66.376  1.00  0.00    -0.224 OA 
ATOM     10  C   GLU A   1     -10.761  13.044  66.758  1.00  0.00    -0.262 C  
ATOM     11  OXT GLU A   1     -11.578  12.621  67.567  1.00  0.00    -0.317 OA 
BRANCH   8  12
ATOM     12  CB  GLU A   1     -10.654  15.515  67.192  1.00  0.00    -0.300 C  
BRANCH  12  13
ATOM     13  CG  GLU A   1      -9.637  16.572  66.768  1.00  0.00    -0.268 C  
ATOM     14  CD  GLU A   1     -10.269  17.925  66.566  1.00  0.00    -0.379 C  
ATOM     15  OE2 GLU A   1     -10.309  18.497  65.488  1.00  0.00    -0.555 OA 
ATOM     16  OE1 GLU A   1     -10.753  18.476  67.700  1.00  0.00    -0.423 OA 
ENDBRANCH  12  13
ENDBRANCH   8  12
ENDBRANCH   6   8
ENDBRANCH   2   6
TORSDOF 4
ENDMDL
MODEL       23
REMARK 921   NORMALIZED FREE ENERGY PREDICTED BY IDOCK:   -5.01 KCAL/MOL
REMARK 922        TOTAL FREE ENERGY PREDICTED BY IDOCK:   -6.02 KCAL/MOL
REMARK 923 INTER-LIGAND FREE ENERGY PREDICTED BY IDOCK:   -5.84 KCAL/MOL
REMARK 924 INTRA-LIGAND FREE ENERGY PREDICTED BY IDOCK:   -0.18 KCAL/MOL
REMARK 927      BINDING AFFINITY PREDICTED BY RF-SCORE:    0.00 PKD
ROOT
HETATM    1  N   UNK A   0      -9.731  10.433  68.064  1.00  0.00    -0.149 N  
HETATM    2  C   UNK A   0     -10.807  10.916  67.401  1.00  0.00    -0.279 C  
HETATM    3  H2  UNK A   0      -9.868  10.007  68.981  1.00  0.00     0.000 HD 
HETATM    4  H1  UNK A   0      -8.788  10.480  67.679  1.00  0.00     0.000 HD 
HETATM    5  O   UNK A   0     -11.937  10.859  67.863  1.00  0.00    -0.585 OA 
ENDROOT
BRANCH   2   6
ATOM      6  N   GLU A   1     -10.489  11.444  66.193  1.00  0.00    -0.248 N  
ATOM      7  H   GLU A   1      -9.688  11.075  65.682  1.00  0.00     0.000 HD 
BRANCH   6   8
ATOM      8  CA  GLU A   1     -11.271  12.527  65.611  1.00  0.00    -0.317 C  
ATOM      9  O   GLU A   1     -13.322  12.158  64.380  1.00  0.00    -0.740 OA 
ATOM     10  C   GLU A   1     -11.983  11.971  64.378  1.00  0.00    -0.300 C  
ATOM     11  OXT GLU A   1     -11.400  11.428  63.448  1.00  0.00    -0.337 OA 
BRANCH   8  12
ATOM     12  CB  GLU A   1     -10.370  13.705  65.214  1.00  0.00    -0.362 C  
BRANCH  12  13
ATOM     13  CG  GLU A   1     -10.944  15.047  65.665  1.00  0.00    -0.357 C  
ATOM     14  CD  GLU A   1     -11.615  15.790  64.539  1.00  0.00    -0.247 C  
ATOM     15  OE2 GLU A   1     -11.221  16.863  64.110  1.00  0.00    -1.176 OA 
ATOM     16  OE1 GLU A   1     -12.724  15.181  64.070  1.00  0.00    -0.746 OA 
ENDBRANCH  12  13
ENDBRANCH   8  12
ENDBRANCH   6   8
ENDBRANCH   2   6
TORSDOF 4
ENDMDL
MODEL       24
REMARK 921   NORMALIZED FREE ENERGY PREDICTED BY IDOCK:   -5.00 KCAL/MOL
REMARK 922        TOTAL FREE ENERGY PREDICTED BY IDOCK:   -6.01 KCAL/MOL
REMARK 923 INTER-LIGAND FREE ENERGY PREDICTED BY IDOCK:   -5.32 KCAL/MOL
REMARK 924 INTRA-LIGAND FREE ENERGY PREDICTED BY IDOCK:   -0.68 KCAL/MOL
REMARK 927      BINDING AFFINITY PREDICTED BY RF-SCORE:    0.00 PKD
ROOT
HETATM    1  N   UNK A   0     -12.144  14.486  68.985  1.00  0.00    -0.506 N  
HETATM    2  C   UNK A   0     -11.896  13.471  68.125  1.00  0.00    -0.365 C  
HETATM    3  H2  UNK A   0     -12.609  14.280  69.869  1.00  0.00     0.000 HD 
HETATM    4  H1  UNK A   0     -11.882  15.450  68.779  1.00  0.00     0.000 HD 
HETATM    5  O   UNK A   0     -12.209  12.316  68.372  1.00  0.00    -0.282 OA 
ENDROOT
BRANCH   2   6
ATOM      6  N   GLU A   1     -11.265  13.879  66.995  1.00  0.00    -0.304 N  
ATOM      7  H   GLU A   1     -10.251  13.981  66.998  1.00  0.00     0.000 HD 
BRANCH   6   8
ATOM      8  CA  GLU A   1     -12.009  14.172  65.777  1.00  0.00    -0.402 C  
ATOM      9  O   GLU A   1     -13.403  12.540  64.658  1.00  0.00    -0.804 OA 
ATOM     10  C   GLU A   1     -12.133  12.869  64.987  1.00  0.00    -0.435 C  
ATOM     11  OXT GLU A   1     -11.173  12.188  64.650  1.00  0.00    -0.305 OA 
BRANCH   8  12
ATOM     12  CB  GLU A   1     -11.288  15.233  64.934  1.00  0.00    -0.387 C  
BRANCH  12  13
ATOM     13  CG  GLU A   1      -9.912  15.580  65.499  1.00  0.00    -0.377 C  
ATOM     14  CD  GLU A   1      -9.913  16.889  66.246  1.00  0.00    -0.309 C  
ATOM     15  OE2 GLU A   1      -9.274  17.868  65.894  1.00  0.00    -0.519 OA 
ATOM     16  OE1 GLU A   1     -10.656  16.872  67.373  1.00  0.00    -0.329 OA 
ENDBRANCH  12  13
ENDBRANCH   8  12
ENDBRANCH   6   8
ENDBRANCH   2   6
TORSDOF 4
ENDMDL
MODEL       25
REMARK 921   NORMALIZED FREE ENERGY PREDICTED BY IDOCK:   -4.99 KCAL/MOL
REMARK 922        TOTAL FREE ENERGY PREDICTED BY IDOCK:   -6.00 KCAL/MOL
REMARK 923 INTER-LIGAND FREE ENERGY PREDICTED BY IDOCK:   -6.16 KCAL/MOL
REMARK 924 INTRA-LIGAND FREE ENERGY PREDICTED BY IDOCK:    0.16 KCAL/MOL
REMARK 927      BINDING AFFINITY PREDICTED BY RF-SCORE:    0.00 PKD
ROOT
HETATM    1  N   UNK A   0     -12.640  15.212  63.844  1.00  0.00    -0.932 N  
HETATM    2  C   UNK A   0     -11.413  15.623  64.241  1.00  0.00    -0.193 C  
HETATM    3  H2  UNK A   0     -13.324  15.912  63.557  1.00  0.00     0.000 HD 
HETATM    4  H1  UNK A   0     -12.903  14.227  63.821  1.00  0.00     0.000 HD 
HETATM    5  O   UNK A   0     -11.098  16.803  64.268  1.00  0.00    -1.106 OA 
ENDROOT
BRANCH   2   6
ATOM      6  N   GLU A   1     -10.598  14.594  64.584  1.00  0.00    -0.596 N  
ATOM      7  H   GLU A   1      -9.694  14.795  65.012  1.00  0.00     0.000 HD 
BRANCH   6   8
ATOM      8  CA  GLU A   1     -10.987  13.209  64.355  1.00  0.00    -0.390 C  
ATOM      9  O   GLU A   1     -13.267  12.427  64.578  1.00  0.00    -0.834 OA 
ATOM     10  C   GLU A   1     -12.196  12.917  65.243  1.00  0.00    -0.476 C  
ATOM     11  OXT GLU A   1     -12.199  13.079  66.457  1.00  0.00    -0.382 OA 
BRANCH   8  12
ATOM     12  CB  GLU A   1      -9.838  12.250  64.695  1.00  0.00    -0.126 C  
BRANCH  12  13
ATOM     13  CG  GLU A   1     -10.171  10.803  64.339  1.00  0.00    -0.432 C  
ATOM     14  CD  GLU A   1      -9.553   9.821  65.301  1.00  0.00    -0.300 C  
ATOM     15  OE2 GLU A   1      -8.708   9.000  64.978  1.00  0.00    -0.180 OA 
ATOM     16  OE1 GLU A   1     -10.051   9.898  66.553  1.00  0.00    -0.214 OA 
ENDBRANCH  12  13
ENDBRANCH   8  12
ENDBRANCH   6   8
ENDBRANCH   2   6
TORSDOF 4
ENDMDL
MODEL       26
REMARK 921   NORMALIZED FREE ENERGY PREDICTED BY IDOCK:   -4.99 KCAL/MOL
REMARK 922        TOTAL FREE ENERGY PREDICTED BY IDOCK:   -6.00 KCAL/MOL
REMARK 923 INTER-LIGAND FREE ENERGY PREDICTED BY IDOCK:   -5.73 KCAL/MOL
REMARK 924 INTRA-LIGAND FREE ENERGY PREDICTED BY IDOCK:   -0.28 KCAL/MOL
REMARK 927      BINDING AFFINITY PREDICTED BY RF-SCORE:    0.00 PKD
ROOT
HETATM    1  N   UNK A   0     -12.316  14.018  63.167  1.00  0.00    -1.094 N  
HETATM    2  C   UNK A   0     -12.117  13.423  64.366  1.00  0.00    -0.416 C  
HETATM    3  H2  UNK A   0     -13.062  13.671  62.563  1.00  0.00     0.000 HD 
HETATM    4  H1  UNK A   0     -11.746  14.801  62.847  1.00  0.00     0.000 HD 
HETATM    5  O   UNK A   0     -12.800  12.485  64.750  1.00  0.00    -0.755 OA 
ENDROOT
BRANCH   2   6
ATOM      6  N   GLU A   1     -11.105  13.985  65.073  1.00  0.00    -0.345 N  
ATOM      7  H   GLU A   1     -10.171  13.580  65.015  1.00  0.00     0.000 HD 
BRANCH   6   8
ATOM      8  CA  GLU A   1     -11.326  15.155  65.913  1.00  0.00    -0.225 C  
ATOM      9  O   GLU A   1     -10.492  17.356  65.351  1.00  0.00    -0.648 OA 
ATOM     10  C   GLU A   1     -10.142  16.099  65.707  1.00  0.00    -0.363 C  
ATOM     11  OXT GLU A   1      -8.975  15.769  65.876  1.00  0.00    -0.321 OA 
BRANCH   8  12
ATOM     12  CB  GLU A   1     -11.435  14.758  67.392  1.00  0.00    -0.376 C  
BRANCH  12  13
ATOM     13  CG  GLU A   1     -11.609  15.972  68.302  1.00  0.00    -0.232 C  
ATOM     14  CD  GLU A   1     -11.239  15.673  69.732  1.00  0.00    -0.321 C  
ATOM     15  OE2 GLU A   1     -12.037  15.706  70.656  1.00  0.00    -0.352 OA 
ATOM     16  OE1 GLU A   1      -9.929  15.404  69.912  1.00  0.00    -0.277 OA 
ENDBRANCH  12  13
ENDBRANCH   8  12
ENDBRANCH   6   8
ENDBRANCH   2   6
TORSDOF 4
ENDMDL
MODEL       27
REMARK 921   NORMALIZED FREE ENERGY PREDICTED BY IDOCK:   -4.95 KCAL/MOL
REMARK 922        TOTAL FREE ENERGY PREDICTED BY IDOCK:   -5.95 KCAL/MOL
REMARK 923 INTER-LIGAND FREE ENERGY PREDICTED BY IDOCK:   -5.59 KCAL/MOL
REMARK 924 INTRA-LIGAND FREE ENERGY PREDICTED BY IDOCK:   -0.36 KCAL/MOL
REMARK 927      BINDING AFFINITY PREDICTED BY RF-SCORE:    0.00 PKD
ROOT
HETATM    1  N   UNK A   0     -12.437  14.803  63.786  1.00  0.00    -1.063 N  
HETATM    2  C   UNK A   0     -11.445  15.618  64.209  1.00  0.00    -0.193 C  
HETATM    3  H2  UNK A   0     -13.241  15.211  63.308  1.00  0.00     0.000 HD 
HETATM    4  H1  UNK A   0     -12.409  13.793  63.928  1.00  0.00     0.000 HD 
HETATM    5  O   UNK A   0     -11.478  16.828  64.039  1.00  0.00    -1.198 OA 
ENDROOT
BRANCH   2   6
ATOM      6  N   GLU A   1     -10.433  14.949  64.817  1.00  0.00    -0.544 N  
ATOM      7  H   GLU A   1      -9.915  14.244  64.293  1.00  0.00     0.000 HD 
BRANCH   6   8
ATOM      8  CA  GLU A   1     -10.073  15.217  66.203  1.00  0.00    -0.296 C  
ATOM      9  O   GLU A   1      -7.997  14.464  67.194  1.00  0.00    -0.192 OA 
ATOM     10  C   GLU A   1      -9.183  14.069  66.679  1.00  0.00    -0.244 C  
ATOM     11  OXT GLU A   1      -9.515  12.891  66.630  1.00  0.00    -0.244 OA 
BRANCH   8  12
ATOM     12  CB  GLU A   1     -11.323  15.318  67.088  1.00  0.00    -0.247 C  
BRANCH  12  13
ATOM     13  CG  GLU A   1     -11.063  16.116  68.364  1.00  0.00    -0.359 C  
ATOM     14  CD  GLU A   1     -10.253  17.360  68.105  1.00  0.00    -0.350 C  
ATOM     15  OE2 GLU A   1      -9.136  17.545  68.562  1.00  0.00    -0.268 OA 
ATOM     16  OE1 GLU A   1     -10.891  18.280  67.352  1.00  0.00    -0.389 OA 
ENDBRANCH  12  13
ENDBRANCH   8  12
ENDBRANCH   6   8
ENDBRANCH   2   6
TORSDOF 4
ENDMDL
MODEL       28
REMARK 921   NORMALIZED FREE ENERGY PREDICTED BY IDOCK:   -4.95 KCAL/MOL
REMARK 922        TOTAL FREE ENERGY PREDICTED BY IDOCK:   -5.95 KCAL/MOL
REMARK 923 INTER-LIGAND FREE ENERGY PREDICTED BY IDOCK:   -5.55 KCAL/MOL
REMARK 924 INTRA-LIGAND FREE ENERGY PREDICTED BY IDOCK:   -0.40 KCAL/MOL
REMARK 927      BINDING AFFINITY PREDICTED BY RF-SCORE:    0.00 PKD
ROOT
HETATM    1  N   UNK A   0     -10.647  17.706  65.804  1.00  0.00    -0.280 N  
HETATM    2  C   UNK A   0     -10.864  16.617  65.031  1.00  0.00    -0.176 C  
HETATM    3  H2  UNK A   0     -11.081  18.591  65.541  1.00  0.00     0.000 HD 
HETATM    4  H1  UNK A   0     -10.066  17.672  66.641  1.00  0.00     0.000 HD 
HETATM    5  O   UNK A   0     -11.561  16.658  64.028  1.00  0.00    -1.197 OA 
ENDROOT
BRANCH   2   6
ATOM      6  N   GLU A   1     -10.240  15.506  65.497  1.00  0.00    -0.367 N  
ATOM      7  H   GLU A   1      -9.340  15.599  65.968  1.00  0.00     0.000 HD 
BRANCH   6   8
ATOM      8  CA  GLU A   1     -10.830  14.184  65.338  1.00  0.00    -0.337 C  
ATOM      9  O   GLU A   1     -13.208  13.770  65.524  1.00  0.00    -0.662 OA 
ATOM     10  C   GLU A   1     -12.093  14.136  66.197  1.00  0.00    -0.435 C  
ATOM     11  OXT GLU A   1     -12.104  14.376  67.398  1.00  0.00    -0.397 OA 
BRANCH   8  12
ATOM     12  CB  GLU A   1      -9.850  13.087  65.777  1.00  0.00    -0.217 C  
BRANCH  12  13
ATOM     13  CG  GLU A   1     -10.263  11.707  65.268  1.00  0.00    -0.316 C  
ATOM     14  CD  GLU A   1     -10.707  11.738  63.829  1.00  0.00    -0.419 C  
ATOM     15  OE2 GLU A   1     -11.843  11.472  63.467  1.00  0.00    -0.364 OA 
ATOM     16  OE1 GLU A   1      -9.721  12.047  62.960  1.00  0.00    -0.383 OA 
ENDBRANCH  12  13
ENDBRANCH   8  12
ENDBRANCH   6   8
ENDBRANCH   2   6
TORSDOF 4
ENDMDL
MODEL       29
REMARK 921   NORMALIZED FREE ENERGY PREDICTED BY IDOCK:   -4.91 KCAL/MOL
REMARK 922        TOTAL FREE ENERGY PREDICTED BY IDOCK:   -5.90 KCAL/MOL
REMARK 923 INTER-LIGAND FREE ENERGY PREDICTED BY IDOCK:   -5.49 KCAL/MOL
REMARK 924 INTRA-LIGAND FREE ENERGY PREDICTED BY IDOCK:   -0.41 KCAL/MOL
REMARK 927      BINDING AFFINITY PREDICTED BY RF-SCORE:    0.00 PKD
ROOT
HETATM    1  N   UNK A   0     -13.456  15.412  70.645  1.00  0.00    -0.792 N  
HETATM    2  C   UNK A   0     -12.524  14.604  70.089  1.00  0.00    -0.317 C  
HETATM    3  H2  UNK A   0     -13.679  15.300  71.634  1.00  0.00     0.000 HD 
HETATM    4  H1  UNK A   0     -13.943  16.131  70.108  1.00  0.00     0.000 HD 
HETATM    5  O   UNK A   0     -11.941  13.744  70.732  1.00  0.00    -0.317 OA 
ENDROOT
BRANCH   2   6
ATOM      6  N   GLU A   1     -12.315  14.865  68.775  1.00  0.00    -0.594 N  
ATOM      7  H   GLU A   1     -13.115  15.035  68.166  1.00  0.00     0.000 HD 
BRANCH   6   8
ATOM      8  CA  GLU A   1     -10.970  14.906  68.215  1.00  0.00    -0.264 C  
ATOM      9  O   GLU A   1      -9.172  16.193  69.202  1.00  0.00    -0.241 OA 
ATOM     10  C   GLU A   1     -10.366  16.265  68.569  1.00  0.00    -0.261 C  
ATOM     11  OXT GLU A   1     -10.891  17.334  68.284  1.00  0.00    -0.365 OA 
BRANCH   8  12
ATOM     12  CB  GLU A   1     -11.001  14.722  66.692  1.00  0.00    -0.326 C  
BRANCH  12  13
ATOM     13  CG  GLU A   1     -12.401  14.388  66.181  1.00  0.00    -0.335 C  
ATOM     14  CD  GLU A   1     -12.442  13.076  65.441  1.00  0.00    -0.476 C  
ATOM     15  OE2 GLU A   1     -12.714  12.978  64.254  1.00  0.00    -0.653 OA 
ATOM     16  OE1 GLU A   1     -12.191  12.003  66.220  1.00  0.00    -0.548 OA 
ENDBRANCH  12  13
ENDBRANCH   8  12
ENDBRANCH   6   8
ENDBRANCH   2   6
TORSDOF 4
ENDMDL
MODEL       30
REMARK 921   NORMALIZED FREE ENERGY PREDICTED BY IDOCK:   -4.90 KCAL/MOL
REMARK 922        TOTAL FREE ENERGY PREDICTED BY IDOCK:   -5.89 KCAL/MOL
REMARK 923 INTER-LIGAND FREE ENERGY PREDICTED BY IDOCK:   -5.62 KCAL/MOL
REMARK 924 INTRA-LIGAND FREE ENERGY PREDICTED BY IDOCK:   -0.27 KCAL/MOL
REMARK 927      BINDING AFFINITY PREDICTED BY RF-SCORE:    0.00 PKD
ROOT
HETATM    1  N   UNK A   0     -10.098  15.260  69.934  1.00  0.00    -0.436 N  
HETATM    2  C   UNK A   0     -11.422  15.090  70.156  1.00  0.00    -0.277 C  
HETATM    3  H2  UNK A   0      -9.797  15.985  69.283  1.00  0.00     0.000 HD 
HETATM    4  H1  UNK A   0      -9.391  14.688  70.397  1.00  0.00     0.000 HD 
HETATM    5  O   UNK A   0     -12.269  15.775  69.602  1.00  0.00    -0.336 OA 
ENDROOT
BRANCH   2   6
ATOM      6  N   GLU A   1     -11.686  14.104  71.050  1.00  0.00    -0.512 N  
ATOM      7  H   GLU A   1     -10.934  13.478  71.339  1.00  0.00     0.000 HD 
BRANCH   6   8
ATOM      8  CA  GLU A   1     -13.020  13.923  71.606  1.00  0.00    -0.352 C  
ATOM      9  O   GLU A   1     -14.276  15.719  72.633  1.00  0.00    -0.554 OA 
ATOM     10  C   GLU A   1     -13.185  14.926  72.746  1.00  0.00    -0.472 C  
ATOM     11  OXT GLU A   1     -12.422  14.998  73.701  1.00  0.00    -0.499 OA 
BRANCH   8  12
ATOM     12  CB  GLU A   1     -13.209  12.492  72.129  1.00  0.00    -0.508 C  
BRANCH  12  13
ATOM     13  CG  GLU A   1     -12.761  11.443  71.113  1.00  0.00    -0.479 C  
ATOM     14  CD  GLU A   1     -12.686  10.062  71.712  1.00  0.00    -0.428 C  
ATOM     15  OE2 GLU A   1     -11.648   9.429  71.819  1.00  0.00    -0.377 OA 
ATOM     16  OE1 GLU A   1     -13.884   9.564  72.084  1.00  0.00    -0.390 OA 
ENDBRANCH  12  13
ENDBRANCH   8  12
ENDBRANCH   6   8
ENDBRANCH   2   6
TORSDOF 4
ENDMDL
MODEL       31
REMARK 921   NORMALIZED FREE ENERGY PREDICTED BY IDOCK:   -4.89 KCAL/MOL
REMARK 922        TOTAL FREE ENERGY PREDICTED BY IDOCK:   -5.88 KCAL/MOL
REMARK 923 INTER-LIGAND FREE ENERGY PREDICTED BY IDOCK:   -5.47 KCAL/MOL
REMARK 924 INTRA-LIGAND FREE ENERGY PREDICTED BY IDOCK:   -0.40 KCAL/MOL
REMARK 927      BINDING AFFINITY PREDICTED BY RF-SCORE:    0.00 PKD
ROOT
HETATM    1  N   UNK A   0     -12.338  11.702  62.978  1.00  0.00    -0.956 N  
HETATM    2  C   UNK A   0     -12.011  12.950  63.384  1.00  0.00    -0.537 C  
HETATM    3  H2  UNK A   0     -13.249  11.548  62.544  1.00  0.00     0.000 HD 
HETATM    4  H1  UNK A   0     -11.706  10.910  63.091  1.00  0.00     0.000 HD 
HETATM    5  O   UNK A   0     -12.769  13.900  63.249  1.00  0.00    -0.775 OA 
ENDROOT
BRANCH   2   6
ATOM      6  N   GLU A   1     -10.773  13.020  63.934  1.00  0.00    -0.509 N  
ATOM      7  H   GLU A   1      -9.973  13.228  63.337  1.00  0.00     0.000 HD 
BRANCH   6   8
ATOM      8  CA  GLU A   1     -10.563  12.803  65.359  1.00  0.00    -0.287 C  
ATOM      9  O   GLU A   1      -8.738  11.478  66.236  1.00  0.00    -0.185 OA 
ATOM     10  C   GLU A   1      -9.887  11.442  65.524  1.00  0.00    -0.231 C  
ATOM     11  OXT GLU A   1     -10.349  10.399  65.081  1.00  0.00    -0.295 OA 
BRANCH   8  12
ATOM     12  CB  GLU A   1     -11.895  12.827  66.121  1.00  0.00    -0.484 C  
BRANCH  12  13
ATOM     13  CG  GLU A   1     -11.693  12.917  67.633  1.00  0.00    -0.422 C  
ATOM     14  CD  GLU A   1     -10.810  14.074  68.023  1.00  0.00    -0.246 C  
ATOM     15  OE2 GLU A   1      -9.722  13.941  68.561  1.00  0.00    -0.221 OA 
ATOM     16  OE1 GLU A   1     -11.350  15.284  67.764  1.00  0.00    -0.326 OA 
ENDBRANCH  12  13
ENDBRANCH   8  12
ENDBRANCH   6   8
ENDBRANCH   2   6
TORSDOF 4
ENDMDL
MODEL       32
REMARK 921   NORMALIZED FREE ENERGY PREDICTED BY IDOCK:   -4.87 KCAL/MOL
REMARK 922        TOTAL FREE ENERGY PREDICTED BY IDOCK:   -5.85 KCAL/MOL
REMARK 923 INTER-LIGAND FREE ENERGY PREDICTED BY IDOCK:   -5.27 KCAL/MOL
REMARK 924 INTRA-LIGAND FREE ENERGY PREDICTED BY IDOCK:   -0.58 KCAL/MOL
REMARK 927      BINDING AFFINITY PREDICTED BY RF-SCORE:    0.00 PKD
ROOT
HETATM    1  N   UNK A   0     -13.917   8.991  72.927  1.00  0.00    -0.896 N  
HETATM    2  C   UNK A   0     -13.853   8.480  71.677  1.00  0.00    -0.389 C  
HETATM    3  H2  UNK A   0     -14.211   8.384  73.693  1.00  0.00     0.000 HD 
HETATM    4  H1  UNK A   0     -13.681   9.963  73.131  1.00  0.00     0.000 HD 
HETATM    5  O   UNK A   0     -14.135   7.316  71.432  1.00  0.00    -0.413 OA 
ENDROOT
BRANCH   2   6
ATOM      6  N   GLU A   1     -13.438   9.386  70.756  1.00  0.00    -0.567 N  
ATOM      7  H   GLU A   1     -14.041   9.605  69.963  1.00  0.00     0.000 HD 
BRANCH   6   8
ATOM      8  CA  GLU A   1     -12.149  10.055  70.878  1.00  0.00    -0.355 C  
ATOM      9  O   GLU A   1     -11.838  12.411  70.418  1.00  0.00    -0.299 OA 
ATOM     10  C   GLU A   1     -12.131  11.207  69.874  1.00  0.00    -0.344 C  
ATOM     11  OXT GLU A   1     -12.333  11.064  68.675  1.00  0.00    -0.539 OA 
BRANCH   8  12
ATOM     12  CB  GLU A   1     -10.996   9.084  70.588  1.00  0.00    -0.308 C  
BRANCH  12  13
ATOM     13  CG  GLU A   1     -10.171   8.780  71.838  1.00  0.00    -0.415 C  
ATOM     14  CD  GLU A   1     -10.613   7.512  72.521  1.00  0.00    -0.270 C  
ATOM     15  OE2 GLU A   1     -11.090   7.481  73.645  1.00  0.00    -0.280 OA 
ATOM     16  OE1 GLU A   1     -10.396   6.396  71.792  1.00  0.00    -0.200 OA 
ENDBRANCH  12  13
ENDBRANCH   8  12
ENDBRANCH   6   8
ENDBRANCH   2   6
TORSDOF 4
ENDMDL
MODEL       33
REMARK 921   NORMALIZED FREE ENERGY PREDICTED BY IDOCK:   -4.87 KCAL/MOL
REMARK 922        TOTAL FREE ENERGY PREDICTED BY IDOCK:   -5.85 KCAL/MOL
REMARK 923 INTER-LIGAND FREE ENERGY PREDICTED BY IDOCK:   -5.43 KCAL/MOL
REMARK 924 INTRA-LIGAND FREE ENERGY PREDICTED BY IDOCK:   -0.42 KCAL/MOL
REMARK 927      BINDING AFFINITY PREDICTED BY RF-SCORE:    0.00 PKD
ROOT
HETATM    1  N   UNK A   0     -11.254  14.142  70.109  1.00  0.00    -0.481 N  
HETATM    2  C   UNK A   0     -11.819  13.372  69.151  1.00  0.00    -0.336 C  
HETATM    3  H2  UNK A   0     -10.848  13.690  70.928  1.00  0.00     0.000 HD 
HETATM    4  H1  UNK A   0     -11.221  15.159  70.041  1.00  0.00     0.000 HD 
HETATM    5  O   UNK A   0     -11.859  12.154  69.233  1.00  0.00    -0.304 OA 
ENDROOT
BRANCH   2   6
ATOM      6  N   GLU A   1     -12.311  14.096  68.114  1.00  0.00    -0.538 N  
ATOM      7  H   GLU A   1     -13.091  14.732  68.274  1.00  0.00     0.000 HD 
BRANCH   6   8
ATOM      8  CA  GLU A   1     -11.745  13.982  66.776  1.00  0.00    -0.407 C  
ATOM      9  O   GLU A   1      -9.462  14.593  66.253  1.00  0.00    -0.286 OA 
ATOM     10  C   GLU A   1     -10.672  15.061  66.635  1.00  0.00    -0.312 C  
ATOM     11  OXT GLU A   1     -10.883  16.253  66.821  1.00  0.00    -0.253 OA 
BRANCH   8  12
ATOM     12  CB  GLU A   1     -12.827  14.171  65.703  1.00  0.00    -0.402 C  
BRANCH  12  13
ATOM     13  CG  GLU A   1     -12.235  14.272  64.299  1.00  0.00    -0.451 C  
ATOM     14  CD  GLU A   1     -11.810  12.931  63.758  1.00  0.00    -0.504 C  
ATOM     15  OE2 GLU A   1     -10.652  12.644  63.499  1.00  0.00    -0.403 OA 
ATOM     16  OE1 GLU A   1     -12.836  12.081  63.543  1.00  0.00    -0.749 OA 
ENDBRANCH  12  13
ENDBRANCH   8  12
ENDBRANCH   6   8
ENDBRANCH   2   6
TORSDOF 4
ENDMDL
MODEL       34
REMARK 921   NORMALIZED FREE ENERGY PREDICTED BY IDOCK:   -4.86 KCAL/MOL
REMARK 922        TOTAL FREE ENERGY PREDICTED BY IDOCK:   -5.84 KCAL/MOL
REMARK 923 INTER-LIGAND FREE ENERGY PREDICTED BY IDOCK:   -5.45 KCAL/MOL
REMARK 924 INTRA-LIGAND FREE ENERGY PREDICTED BY IDOCK:   -0.39 KCAL/MOL
REMARK 927      BINDING AFFINITY PREDICTED BY RF-SCORE:    0.00 PKD
ROOT
HETATM    1  N   UNK A   0     -11.984  10.623  69.277  1.00  0.00    -0.510 N  
HETATM    2  C   UNK A   0     -12.173  11.532  70.261  1.00  0.00    -0.332 C  
HETATM    3  H2  UNK A   0     -12.445   9.716  69.349  1.00  0.00     0.000 HD 
HETATM    4  H1  UNK A   0     -11.397  10.815  68.465  1.00  0.00     0.000 HD 
HETATM    5  O   UNK A   0     -12.876  11.303  71.234  1.00  0.00    -0.393 OA 
ENDROOT
BRANCH   2   6
ATOM      6  N   GLU A   1     -11.515  12.697  70.038  1.00  0.00    -0.529 N  
ATOM      7  H   GLU A   1     -10.550  12.794  70.353  1.00  0.00     0.000 HD 
BRANCH   6   8
ATOM      8  CA  GLU A   1     -12.159  13.812  69.356  1.00  0.00    -0.328 C  
ATOM      9  O   GLU A   1     -12.266  13.997  66.945  1.00  0.00    -0.436 OA 
ATOM     10  C   GLU A   1     -11.444  14.010  68.019  1.00  0.00    -0.311 C  
ATOM     11  OXT GLU A   1     -10.238  14.193  67.917  1.00  0.00    -0.229 OA 
BRANCH   8  12
ATOM     12  CB  GLU A   1     -12.073  15.094  70.195  1.00  0.00    -0.384 C  
BRANCH  12  13
ATOM     13  CG  GLU A   1     -13.289  15.270  71.104  1.00  0.00    -0.568 C  
ATOM     14  CD  GLU A   1     -13.030  14.781  72.505  1.00  0.00    -0.392 C  
ATOM     15  OE2 GLU A   1     -13.626  13.844  73.014  1.00  0.00    -0.628 OA 
ATOM     16  OE1 GLU A   1     -12.104  15.502  73.173  1.00  0.00    -0.410 OA 
ENDBRANCH  12  13
ENDBRANCH   8  12
ENDBRANCH   6   8
ENDBRANCH   2   6
TORSDOF 4
ENDMDL
MODEL       35
REMARK 921   NORMALIZED FREE ENERGY PREDICTED BY IDOCK:   -4.84 KCAL/MOL
REMARK 922        TOTAL FREE ENERGY PREDICTED BY IDOCK:   -5.81 KCAL/MOL
REMARK 923 INTER-LIGAND FREE ENERGY PREDICTED BY IDOCK:   -5.61 KCAL/MOL
REMARK 924 INTRA-LIGAND FREE ENERGY PREDICTED BY IDOCK:   -0.19 KCAL/MOL
REMARK 927      BINDING AFFINITY PREDICTED BY RF-SCORE:    0.00 PKD
ROOT
HETATM    1  N   UNK A   0      -8.994  16.799  66.450  1.00  0.00    -0.271 N  
HETATM    2  C   UNK A   0     -10.216  16.492  65.958  1.00  0.00    -0.356 C  
HETATM    3  H2  UNK A   0      -8.431  17.501  65.968  1.00  0.00     0.000 HD 
HETATM    4  H1  UNK A   0      -8.616  16.354  67.286  1.00  0.00     0.000 HD 
HETATM    5  O   UNK A   0     -10.669  17.026  64.956  1.00  0.00    -0.713 OA 
ENDROOT
BRANCH   2   6
ATOM      6  N   GLU A   1     -10.862  15.555  66.696  1.00  0.00    -0.307 N  
ATOM      7  H   GLU A   1     -11.106  15.763  67.664  1.00  0.00     0.000 HD 
BRANCH   6   8
ATOM      8  CA  GLU A   1     -11.215  14.258  66.133  1.00  0.00    -0.331 C  
ATOM      9  O   GLU A   1     -11.950  12.391  67.486  1.00  0.00    -0.482 OA 
ATOM     10  C   GLU A   1     -10.906  13.198  67.190  1.00  0.00    -0.257 C  
ATOM     11  OXT GLU A   1      -9.806  13.061  67.710  1.00  0.00    -0.212 OA 
BRANCH   8  12
ATOM     12  CB  GLU A   1     -10.415  13.977  64.854  1.00  0.00    -0.453 C  
BRANCH  12  13
ATOM     13  CG  GLU A   1     -10.916  12.733  64.123  1.00  0.00    -0.435 C  
ATOM     14  CD  GLU A   1     -12.371  12.836  63.748  1.00  0.00    -0.446 C  
ATOM     15  OE2 GLU A   1     -13.238  12.102  64.196  1.00  0.00    -0.740 OA 
ATOM     16  OE1 GLU A   1     -12.632  13.794  62.832  1.00  0.00    -0.611 OA 
ENDBRANCH  12  13
ENDBRANCH   8  12
ENDBRANCH   6   8
ENDBRANCH   2   6
TORSDOF 4
ENDMDL
MODEL       36
REMARK 921   NORMALIZED FREE ENERGY PREDICTED BY IDOCK:   -4.83 KCAL/MOL
REMARK 922        TOTAL FREE ENERGY PREDICTED BY IDOCK:   -5.81 KCAL/MOL
REMARK 923 INTER-LIGAND FREE ENERGY PREDICTED BY IDOCK:   -5.29 KCAL/MOL
REMARK 924 INTRA-LIGAND FREE ENERGY PREDICTED BY IDOCK:   -0.52 KCAL/MOL
REMARK 927      BINDING AFFINITY PREDICTED BY RF-SCORE:    0.00 PKD
ROOT
HETATM    1  N   UNK A   0      -9.745  11.959  63.440  1.00  0.00    -0.561 N  
HETATM    2  C   UNK A   0      -9.823  11.378  64.660  1.00  0.00    -0.259 C  
HETATM    3  H2  UNK A   0     -10.060  11.434  62.624  1.00  0.00     0.000 HD 
HETATM    4  H1  UNK A   0      -9.382  12.903  63.309  1.00  0.00     0.000 HD 
HETATM    5  O   UNK A   0     -10.258  10.247  64.817  1.00  0.00    -0.329 OA 
ENDROOT
BRANCH   2   6
ATOM      6  N   GLU A   1      -9.383  12.185  65.658  1.00  0.00    -0.423 N  
ATOM      7  H   GLU A   1      -8.576  11.898  66.212  1.00  0.00     0.000 HD 
BRANCH   6   8
ATOM      8  CA  GLU A   1     -10.039  13.451  65.954  1.00  0.00    -0.293 C  
ATOM      9  O   GLU A   1      -8.832  15.534  66.203  1.00  0.00    -0.320 OA 
ATOM     10  C   GLU A   1      -9.049  14.312  66.738  1.00  0.00    -0.249 C  
ATOM     11  OXT GLU A   1      -8.514  13.949  67.778  1.00  0.00    -0.158 OA 
BRANCH   8  12
ATOM     12  CB  GLU A   1     -11.315  13.231  66.778  1.00  0.00    -0.359 C  
BRANCH  12  13
ATOM     13  CG  GLU A   1     -12.511  13.987  66.202  1.00  0.00    -0.467 C  
ATOM     14  CD  GLU A   1     -12.734  13.679  64.744  1.00  0.00    -0.219 C  
ATOM     15  OE2 GLU A   1     -12.634  14.511  63.855  1.00  0.00    -0.827 OA 
ATOM     16  OE1 GLU A   1     -13.100  12.402  64.506  1.00  0.00    -0.823 OA 
ENDBRANCH  12  13
ENDBRANCH   8  12
ENDBRANCH   6   8
ENDBRANCH   2   6
TORSDOF 4
ENDMDL
MODEL       37
REMARK 921   NORMALIZED FREE ENERGY PREDICTED BY IDOCK:   -4.78 KCAL/MOL
REMARK 922        TOTAL FREE ENERGY PREDICTED BY IDOCK:   -5.75 KCAL/MOL
REMARK 923 INTER-LIGAND FREE ENERGY PREDICTED BY IDOCK:   -5.28 KCAL/MOL
REMARK 924 INTRA-LIGAND FREE ENERGY PREDICTED BY IDOCK:   -0.47 KCAL/MOL
REMARK 927      BINDING AFFINITY PREDICTED BY RF-SCORE:    0.00 PKD
ROOT
HETATM    1  N   UNK A   0     -10.407  14.505  69.138  1.00  0.00    -0.333 N  
HETATM    2  C   UNK A   0     -10.953  15.509  68.415  1.00  0.00    -0.297 C  
HETATM    3  H2  UNK A   0     -10.258  14.643  70.138  1.00  0.00     0.000 HD 
HETATM    4  H1  UNK A   0     -10.139  13.615  68.719  1.00  0.00     0.000 HD 
HETATM    5  O   UNK A   0     -11.274  16.576  68.918  1.00  0.00    -0.319 OA 
ENDROOT
BRANCH   2   6
ATOM      6  N   GLU A   1     -11.106  15.193  67.104  1.00  0.00    -0.335 N  
ATOM      7  H   GLU A   1     -12.045  15.056  66.730  1.00  0.00     0.000 HD 
BRANCH   6   8
ATOM      8  CA  GLU A   1      -9.957  15.047  66.221  1.00  0.00    -0.281 C  
ATOM      9  O   GLU A   1      -8.145  16.650  66.139  1.00  0.00    -0.319 OA 
ATOM     10  C   GLU A   1      -9.457  16.450  65.878  1.00  0.00    -0.254 C  
ATOM     11  OXT GLU A   1     -10.165  17.318  65.383  1.00  0.00    -0.604 OA 
BRANCH   8  12
ATOM     12  CB  GLU A   1     -10.340  14.295  64.939  1.00  0.00    -0.429 C  
BRANCH  12  13
ATOM     13  CG  GLU A   1     -11.851  14.272  64.714  1.00  0.00    -0.436 C  
ATOM     14  CD  GLU A   1     -12.468  12.955  65.106  1.00  0.00    -0.501 C  
ATOM     15  OE2 GLU A   1     -13.015  12.203  64.314  1.00  0.00    -0.650 OA 
ATOM     16  OE1 GLU A   1     -12.402  12.693  66.429  1.00  0.00    -0.521 OA 
ENDBRANCH  12  13
ENDBRANCH   8  12
ENDBRANCH   6   8
ENDBRANCH   2   6
TORSDOF 4
ENDMDL
MODEL       38
REMARK 921   NORMALIZED FREE ENERGY PREDICTED BY IDOCK:   -4.78 KCAL/MOL
REMARK 922        TOTAL FREE ENERGY PREDICTED BY IDOCK:   -5.74 KCAL/MOL
REMARK 923 INTER-LIGAND FREE ENERGY PREDICTED BY IDOCK:   -5.36 KCAL/MOL
REMARK 924 INTRA-LIGAND FREE ENERGY PREDICTED BY IDOCK:   -0.38 KCAL/MOL
REMARK 927      BINDING AFFINITY PREDICTED BY RF-SCORE:    0.00 PKD
ROOT
HETATM    1  N   UNK A   0     -12.416  13.910  63.043  1.00  0.00    -1.009 N  
HETATM    2  C   UNK A   0     -12.270  12.664  63.550  1.00  0.00    -0.547 C  
HETATM    3  H2  UNK A   0     -13.228  14.112  62.460  1.00  0.00     0.000 HD 
HETATM    4  H1  UNK A   0     -11.742  14.653  63.225  1.00  0.00     0.000 HD 
HETATM    5  O   UNK A   0     -13.078  11.773  63.332  1.00  0.00    -0.622 OA 
ENDROOT
BRANCH   2   6
ATOM      6  N   GLU A   1     -11.157  12.531  64.315  1.00  0.00    -0.330 N  
ATOM      7  H   GLU A   1     -10.256  12.375  63.862  1.00  0.00     0.000 HD 
BRANCH   6   8
ATOM      8  CA  GLU A   1     -11.223  12.608  65.768  1.00  0.00    -0.312 C  
ATOM      9  O   GLU A   1     -12.490  14.304  66.941  1.00  0.00    -0.338 OA 
ATOM     10  C   GLU A   1     -11.423  14.076  66.143  1.00  0.00    -0.346 C  
ATOM     11  OXT GLU A   1     -10.672  14.975  65.784  1.00  0.00    -0.311 OA 
BRANCH   8  12
ATOM     12  CB  GLU A   1      -9.935  12.070  66.407  1.00  0.00    -0.240 C  
BRANCH  12  13
ATOM     13  CG  GLU A   1     -10.099  11.812  67.904  1.00  0.00    -0.195 C  
ATOM     14  CD  GLU A   1     -11.167  10.790  68.195  1.00  0.00    -0.302 C  
ATOM     15  OE2 GLU A   1     -12.193  11.041  68.808  1.00  0.00    -0.546 OA 
ATOM     16  OE1 GLU A   1     -10.869   9.550  67.752  1.00  0.00    -0.269 OA 
ENDBRANCH  12  13
ENDBRANCH   8  12
ENDBRANCH   6   8
ENDBRANCH   2   6
TORSDOF 4
ENDMDL
MODEL       39
REMARK 921   NORMALIZED FREE ENERGY PREDICTED BY IDOCK:   -4.78 KCAL/MOL
REMARK 922        TOTAL FREE ENERGY PREDICTED BY IDOCK:   -5.74 KCAL/MOL
REMARK 923 INTER-LIGAND FREE ENERGY PREDICTED BY IDOCK:   -5.31 KCAL/MOL
REMARK 924 INTRA-LIGAND FREE ENERGY PREDICTED BY IDOCK:   -0.43 KCAL/MOL
REMARK 927      BINDING AFFINITY PREDICTED BY RF-SCORE:    0.00 PKD
ROOT
HETATM    1  N   UNK A   0      -8.574  12.877  66.800  1.00  0.00    -0.401 N  
HETATM    2  C   UNK A   0      -8.741  14.200  67.032  1.00  0.00    -0.204 C  
HETATM    3  H2  UNK A   0      -8.296  12.273  67.574  1.00  0.00     0.000 HD 
HETATM    4  H1  UNK A   0      -8.718  12.464  65.879  1.00  0.00     0.000 HD 
HETATM    5  O   UNK A   0      -8.569  14.695  68.136  1.00  0.00    -0.153 OA 
ENDROOT
BRANCH   2   6
ATOM      6  N   GLU A   1      -9.121  14.886  65.925  1.00  0.00    -0.477 N  
ATOM      7  H   GLU A   1      -8.407  15.270  65.306  1.00  0.00     0.000 HD 
BRANCH   6   8
ATOM      8  CA  GLU A   1     -10.528  15.085  65.603  1.00  0.00    -0.350 C  
ATOM      9  O   GLU A   1     -11.297  16.776  64.051  1.00  0.00    -1.153 OA 
ATOM     10  C   GLU A   1     -10.716  16.561  65.253  1.00  0.00    -0.254 C  
ATOM     11  OXT GLU A   1     -10.400  17.479  65.999  1.00  0.00    -0.419 OA 
BRANCH   8  12
ATOM     12  CB  GLU A   1     -11.423  14.705  66.790  1.00  0.00    -0.371 C  
BRANCH  12  13
ATOM     13  CG  GLU A   1     -12.548  13.756  66.382  1.00  0.00    -0.309 C  
ATOM     14  CD  GLU A   1     -12.054  12.615  65.531  1.00  0.00    -0.458 C  
ATOM     15  OE2 GLU A   1     -12.394  12.441  64.371  1.00  0.00    -0.437 OA 
ATOM     16  OE1 GLU A   1     -11.228  11.768  66.180  1.00  0.00    -0.320 OA 
ENDBRANCH  12  13
ENDBRANCH   8  12
ENDBRANCH   6   8
ENDBRANCH   2   6
TORSDOF 4
ENDMDL
MODEL       40
REMARK 921   NORMALIZED FREE ENERGY PREDICTED BY IDOCK:   -4.76 KCAL/MOL
REMARK 922        TOTAL FREE ENERGY PREDICTED BY IDOCK:   -5.71 KCAL/MOL
REMARK 923 INTER-LIGAND FREE ENERGY PREDICTED BY IDOCK:   -5.06 KCAL/MOL
REMARK 924 INTRA-LIGAND FREE ENERGY PREDICTED BY IDOCK:   -0.66 KCAL/MOL
REMARK 927      BINDING AFFINITY PREDICTED BY RF-SCORE:    0.00 PKD
ROOT
HETATM    1  N   UNK A   0     -10.791  14.770  65.288  1.00  0.00    -0.356 N  
HETATM    2  C   UNK A   0     -10.732  16.120  65.209  1.00  0.00    -0.368 C  
HETATM    3  H2  UNK A   0     -11.232  14.252  64.528  1.00  0.00     0.000 HD 
HETATM    4  H1  UNK A   0     -10.410  14.254  66.081  1.00  0.00     0.000 HD 
HETATM    5  O   UNK A   0     -11.189  16.738  64.259  1.00  0.00    -1.163 OA 
ENDROOT
BRANCH   2   6
ATOM      6  N   GLU A   1     -10.114  16.685  66.276  1.00  0.00    -0.313 N  
ATOM      7  H   GLU A   1      -9.283  16.239  66.665  1.00  0.00     0.000 HD 
BRANCH   6   8
ATOM      8  CA  GLU A   1     -10.612  17.915  66.877  1.00  0.00    -0.265 C  
ATOM      9  O   GLU A   1     -10.385  20.082  65.823  1.00  0.00    -0.479 OA 
ATOM     10  C   GLU A   1      -9.716  19.057  66.399  1.00  0.00    -0.367 C  
ATOM     11  OXT GLU A   1      -8.500  19.070  66.545  1.00  0.00    -0.293 OA 
BRANCH   8  12
ATOM     12  CB  GLU A   1     -10.587  17.829  68.409  1.00  0.00    -0.297 C  
BRANCH  12  13
ATOM     13  CG  GLU A   1      -9.961  16.526  68.903  1.00  0.00    -0.262 C  
ATOM     14  CD  GLU A   1     -10.991  15.556  69.419  1.00  0.00    -0.276 C  
ATOM     15  OE2 GLU A   1     -11.047  15.186  70.581  1.00  0.00    -0.288 OA 
ATOM     16  OE1 GLU A   1     -11.829  15.093  68.467  1.00  0.00    -0.329 OA 
ENDBRANCH  12  13
ENDBRANCH   8  12
ENDBRANCH   6   8
ENDBRANCH   2   6
TORSDOF 4
ENDMDL
MODEL       41
REMARK 921   NORMALIZED FREE ENERGY PREDICTED BY IDOCK:   -4.76 KCAL/MOL
REMARK 922        TOTAL FREE ENERGY PREDICTED BY IDOCK:   -5.71 KCAL/MOL
REMARK 923 INTER-LIGAND FREE ENERGY PREDICTED BY IDOCK:   -5.45 KCAL/MOL
REMARK 924 INTRA-LIGAND FREE ENERGY PREDICTED BY IDOCK:   -0.26 KCAL/MOL
REMARK 927      BINDING AFFINITY PREDICTED BY RF-SCORE:    0.00 PKD
ROOT
HETATM    1  N   UNK A   0     -12.324  13.960  63.153  1.00  0.00    -1.106 N  
HETATM    2  C   UNK A   0     -12.562  12.758  63.726  1.00  0.00    -0.293 C  
HETATM    3  H2  UNK A   0     -12.151  14.001  62.148  1.00  0.00     0.000 HD 
HETATM    4  H1  UNK A   0     -12.313  14.827  63.691  1.00  0.00     0.000 HD 
HETATM    5  O   UNK A   0     -12.576  11.720  63.082  1.00  0.00    -0.514 OA 
ENDROOT
BRANCH   2   6
ATOM      6  N   GLU A   1     -12.787  12.845  65.061  1.00  0.00    -0.697 N  
ATOM      7  H   GLU A   1     -13.706  13.137  65.395  1.00  0.00     0.000 HD 
BRANCH   6   8
ATOM      8  CA  GLU A   1     -11.744  12.528  66.028  1.00  0.00    -0.417 C  
ATOM      9  O   GLU A   1     -12.054  12.742  68.419  1.00  0.00    -0.276 OA 
ATOM     10  C   GLU A   1     -11.963  13.418  67.251  1.00  0.00    -0.347 C  
ATOM     11  OXT GLU A   1     -12.024  14.640  67.196  1.00  0.00    -0.391 OA 
BRANCH   8  12
ATOM     12  CB  GLU A   1     -10.351  12.778  65.435  1.00  0.00    -0.310 C  
BRANCH  12  13
ATOM     13  CG  GLU A   1      -9.360  11.677  65.809  1.00  0.00    -0.220 C  
ATOM     14  CD  GLU A   1      -9.806  10.320  65.330  1.00  0.00    -0.296 C  
ATOM     15  OE2 GLU A   1     -10.083   9.397  66.081  1.00  0.00    -0.292 OA 
ATOM     16  OE1 GLU A   1      -9.831  10.196  63.986  1.00  0.00    -0.290 OA 
ENDBRANCH  12  13
ENDBRANCH   8  12
ENDBRANCH   6   8
ENDBRANCH   2   6
TORSDOF 4
ENDMDL
MODEL       42
REMARK 921   NORMALIZED FREE ENERGY PREDICTED BY IDOCK:   -4.75 KCAL/MOL
REMARK 922        TOTAL FREE ENERGY PREDICTED BY IDOCK:   -5.71 KCAL/MOL
REMARK 923 INTER-LIGAND FREE ENERGY PREDICTED BY IDOCK:   -5.29 KCAL/MOL
REMARK 924 INTRA-LIGAND FREE ENERGY PREDICTED BY IDOCK:   -0.42 KCAL/MOL
REMARK 927      BINDING AFFINITY PREDICTED BY RF-SCORE:    0.00 PKD
ROOT
HETATM    1  N   UNK A   0     -11.225  15.291  64.565  1.00  0.00    -0.667 N  
HETATM    2  C   UNK A   0     -12.169  14.321  64.575  1.00  0.00    -0.455 C  
HETATM    3  H2  UNK A   0     -10.875  15.629  63.669  1.00  0.00     0.000 HD 
HETATM    4  H1  UNK A   0     -10.853  15.696  65.424  1.00  0.00     0.000 HD 
HETATM    5  O   UNK A   0     -12.615  13.836  63.546  1.00  0.00    -0.814 OA 
ENDROOT
BRANCH   2   6
ATOM      6  N   GLU A   1     -12.555  13.972  65.827  1.00  0.00    -0.503 N  
ATOM      7  H   GLU A   1     -13.538  13.770  66.009  1.00  0.00     0.000 HD 
BRANCH   6   8
ATOM      8  CA  GLU A   1     -11.593  13.878  66.918  1.00  0.00    -0.378 C  
ATOM      9  O   GLU A   1      -9.861  12.189  67.006  1.00  0.00    -0.200 OA 
ATOM     10  C   GLU A   1     -11.195  12.409  67.056  1.00  0.00    -0.303 C  
ATOM     11  OXT GLU A   1     -12.001  11.503  67.228  1.00  0.00    -0.605 OA 
BRANCH   8  12
ATOM     12  CB  GLU A   1     -12.200  14.387  68.232  1.00  0.00    -0.160 C  
BRANCH  12  13
ATOM     13  CG  GLU A   1     -11.203  14.326  69.389  1.00  0.00    -0.313 C  
ATOM     14  CD  GLU A   1     -11.835  13.832  70.664  1.00  0.00    -0.185 C  
ATOM     15  OE2 GLU A   1     -11.940  14.512  71.673  1.00  0.00    -0.341 OA 
ATOM     16  OE1 GLU A   1     -12.242  12.546  70.608  1.00  0.00    -0.369 OA 
ENDBRANCH  12  13
ENDBRANCH   8  12
ENDBRANCH   6   8
ENDBRANCH   2   6
TORSDOF 4
ENDMDL
MODEL       43
REMARK 921   NORMALIZED FREE ENERGY PREDICTED BY IDOCK:   -4.73 KCAL/MOL
REMARK 922        TOTAL FREE ENERGY PREDICTED BY IDOCK:   -5.68 KCAL/MOL
REMARK 923 INTER-LIGAND FREE ENERGY PREDICTED BY IDOCK:   -5.33 KCAL/MOL
REMARK 924 INTRA-LIGAND FREE ENERGY PREDICTED BY IDOCK:   -0.35 KCAL/MOL
REMARK 927      BINDING AFFINITY PREDICTED BY RF-SCORE:    0.00 PKD
ROOT
HETATM    1  N   UNK A   0     -12.918  12.376  63.840  1.00  0.00    -0.776 N  
HETATM    2  C   UNK A   0     -11.641  12.784  63.659  1.00  0.00    -0.506 C  
HETATM    3  H2  UNK A   0     -13.175  11.427  63.568  1.00  0.00     0.000 HD 
HETATM    4  H1  UNK A   0     -13.633  12.985  64.238  1.00  0.00     0.000 HD 
HETATM    5  O   UNK A   0     -10.785  12.054  63.182  1.00  0.00    -0.368 OA 
ENDROOT
BRANCH   2   6
ATOM      6  N   GLU A   1     -11.431  14.060  64.070  1.00  0.00    -0.614 N  
ATOM      7  H   GLU A   1     -11.904  14.824  63.588  1.00  0.00     0.000 HD 
BRANCH   6   8
ATOM      8  CA  GLU A   1     -10.544  14.359  65.186  1.00  0.00    -0.410 C  
ATOM      9  O   GLU A   1     -10.232  12.860  67.061  1.00  0.00    -0.239 OA 
ATOM     10  C   GLU A   1     -11.111  13.667  66.425  1.00  0.00    -0.303 C  
ATOM     11  OXT GLU A   1     -12.252  13.842  66.835  1.00  0.00    -0.410 OA 
BRANCH   8  12
ATOM     12  CB  GLU A   1     -10.449  15.873  65.423  1.00  0.00    -0.429 C  
BRANCH  12  13
ATOM     13  CG  GLU A   1      -9.613  16.212  66.656  1.00  0.00    -0.263 C  
ATOM     14  CD  GLU A   1      -8.195  16.580  66.303  1.00  0.00    -0.325 C  
ATOM     15  OE2 GLU A   1      -7.222  15.929  66.650  1.00  0.00    -0.168 OA 
ATOM     16  OE1 GLU A   1      -8.090  17.727  65.598  1.00  0.00    -0.518 OA 
ENDBRANCH  12  13
ENDBRANCH   8  12
ENDBRANCH   6   8
ENDBRANCH   2   6
TORSDOF 4
ENDMDL
MODEL       44
REMARK 921   NORMALIZED FREE ENERGY PREDICTED BY IDOCK:   -4.73 KCAL/MOL
REMARK 922        TOTAL FREE ENERGY PREDICTED BY IDOCK:   -5.68 KCAL/MOL
REMARK 923 INTER-LIGAND FREE ENERGY PREDICTED BY IDOCK:   -5.13 KCAL/MOL
REMARK 924 INTRA-LIGAND FREE ENERGY PREDICTED BY IDOCK:   -0.55 KCAL/MOL
REMARK 927      BINDING AFFINITY PREDICTED BY RF-SCORE:    0.00 PKD
ROOT
HETATM    1  N   UNK A   0     -10.316  11.377  66.165  1.00  0.00    -0.241 N  
HETATM    2  C   UNK A   0     -11.230  11.394  67.161  1.00  0.00    -0.296 C  
HETATM    3  H2  UNK A   0      -9.878  10.491  65.914  1.00  0.00     0.000 HD 
HETATM    4  H1  UNK A   0     -10.050  12.220  65.656  1.00  0.00     0.000 HD 
HETATM    5  O   UNK A   0     -11.550  10.384  67.771  1.00  0.00    -0.405 OA 
ENDROOT
BRANCH   2   6
ATOM      6  N   GLU A   1     -11.743  12.630  67.387  1.00  0.00    -0.364 N  
ATOM      7  H   GLU A   1     -12.359  12.777  68.187  1.00  0.00     0.000 HD 
BRANCH   6   8
ATOM      8  CA  GLU A   1     -11.430  13.752  66.512  1.00  0.00    -0.348 C  
ATOM      9  O   GLU A   1      -9.856  15.491  67.110  1.00  0.00    -0.231 OA 
ATOM     10  C   GLU A   1     -11.056  14.939  67.399  1.00  0.00    -0.325 C  
ATOM     11  OXT GLU A   1     -11.783  15.381  68.279  1.00  0.00    -0.360 OA 
BRANCH   8  12
ATOM     12  CB  GLU A   1     -12.631  14.111  65.627  1.00  0.00    -0.495 C  
BRANCH  12  13
ATOM     13  CG  GLU A   1     -12.266  14.136  64.143  1.00  0.00    -0.423 C  
ATOM     14  CD  GLU A   1     -12.048  12.753  63.585  1.00  0.00    -0.543 C  
ATOM     15  OE2 GLU A   1     -10.975  12.361  63.154  1.00  0.00    -0.374 OA 
ATOM     16  OE1 GLU A   1     -13.162  11.992  63.563  1.00  0.00    -0.724 OA 
ENDBRANCH  12  13
ENDBRANCH   8  12
ENDBRANCH   6   8
ENDBRANCH   2   6
TORSDOF 4
ENDMDL
MODEL       45
REMARK 921   NORMALIZED FREE ENERGY PREDICTED BY IDOCK:   -4.73 KCAL/MOL
REMARK 922        TOTAL FREE ENERGY PREDICTED BY IDOCK:   -5.67 KCAL/MOL
REMARK 923 INTER-LIGAND FREE ENERGY PREDICTED BY IDOCK:   -5.36 KCAL/MOL
REMARK 924 INTRA-LIGAND FREE ENERGY PREDICTED BY IDOCK:   -0.31 KCAL/MOL
REMARK 927      BINDING AFFINITY PREDICTED BY RF-SCORE:    0.00 PKD
ROOT
HETATM    1  N   UNK A   0     -12.425  14.176  63.217  1.00  0.00    -1.098 N  
HETATM    2  C   UNK A   0     -12.211  12.907  63.632  1.00  0.00    -0.499 C  
HETATM    3  H2  UNK A   0     -13.287  14.391  62.714  1.00  0.00     0.000 HD 
HETATM    4  H1  UNK A   0     -11.755  14.925  63.389  1.00  0.00     0.000 HD 
HETATM    5  O   UNK A   0     -13.014  12.008  63.426  1.00  0.00    -0.772 OA 
ENDROOT
BRANCH   2   6
ATOM      6  N   GLU A   1     -11.037  12.759  64.295  1.00  0.00    -0.346 N  
ATOM      7  H   GLU A   1     -10.242  13.344  64.039  1.00  0.00     0.000 HD 
BRANCH   6   8
ATOM      8  CA  GLU A   1     -10.889  11.781  65.366  1.00  0.00    -0.295 C  
ATOM      9  O   GLU A   1     -12.148  11.888  67.430  1.00  0.00    -0.577 OA 
ATOM     10  C   GLU A   1     -11.195  12.492  66.684  1.00  0.00    -0.307 C  
ATOM     11  OXT GLU A   1     -10.615  13.503  67.058  1.00  0.00    -0.266 OA 
BRANCH   8  12
ATOM     12  CB  GLU A   1      -9.466  11.206  65.394  1.00  0.00    -0.253 C  
BRANCH  12  13
ATOM     13  CG  GLU A   1      -9.419   9.761  64.900  1.00  0.00    -0.331 C  
ATOM     14  CD  GLU A   1      -9.343   8.772  66.034  1.00  0.00    -0.232 C  
ATOM     15  OE2 GLU A   1      -8.389   8.032  66.221  1.00  0.00    -0.109 OA 
ATOM     16  OE1 GLU A   1     -10.448   8.742  66.808  1.00  0.00    -0.275 OA 
ENDBRANCH  12  13
ENDBRANCH   8  12
ENDBRANCH   6   8
ENDBRANCH   2   6
TORSDOF 4
ENDMDL
MODEL       46
REMARK 921   NORMALIZED FREE ENERGY PREDICTED BY IDOCK:   -4.69 KCAL/MOL
REMARK 922        TOTAL FREE ENERGY PREDICTED BY IDOCK:   -5.63 KCAL/MOL
REMARK 923 INTER-LIGAND FREE ENERGY PREDICTED BY IDOCK:   -5.41 KCAL/MOL
REMARK 924 INTRA-LIGAND FREE ENERGY PREDICTED BY IDOCK:   -0.22 KCAL/MOL
REMARK 927      BINDING AFFINITY PREDICTED BY RF-SCORE:    0.00 PKD
ROOT
HETATM    1  N   UNK A   0     -10.838  17.219  65.226  1.00  0.00    -0.153 N  
HETATM    2  C   UNK A   0      -9.994  16.296  65.742  1.00  0.00    -0.323 C  
HETATM    3  H2  UNK A   0     -10.468  18.133  64.964  1.00  0.00     0.000 HD 
HETATM    4  H1  UNK A   0     -11.831  17.032  65.090  1.00  0.00     0.000 HD 
HETATM    5  O   UNK A   0      -8.803  16.519  65.905  1.00  0.00    -0.464 OA 
ENDROOT
BRANCH   2   6
ATOM      6  N   GLU A   1     -10.610  15.124  66.037  1.00  0.00    -0.308 N  
ATOM      7  H   GLU A   1     -10.971  14.973  66.979  1.00  0.00     0.000 HD 
BRANCH   6   8
ATOM      8  CA  GLU A   1     -10.765  14.076  65.037  1.00  0.00    -0.396 C  
ATOM      9  O   GLU A   1     -12.439  14.159  63.291  1.00  0.00    -0.758 OA 
ATOM     10  C   GLU A   1     -12.236  14.047  64.624  1.00  0.00    -0.435 C  
ATOM     11  OXT GLU A   1     -13.159  13.906  65.416  1.00  0.00    -0.752 OA 
BRANCH   8  12
ATOM     12  CB  GLU A   1     -10.347  12.711  65.600  1.00  0.00    -0.293 C  
BRANCH  12  13
ATOM     13  CG  GLU A   1     -10.241  12.724  67.123  1.00  0.00    -0.235 C  
ATOM     14  CD  GLU A   1     -11.579  12.543  67.792  1.00  0.00    -0.343 C  
ATOM     15  OE2 GLU A   1     -12.105  13.394  68.491  1.00  0.00    -0.352 OA 
ATOM     16  OE1 GLU A   1     -12.133  11.329  67.584  1.00  0.00    -0.600 OA 
ENDBRANCH  12  13
ENDBRANCH   8  12
ENDBRANCH   6   8
ENDBRANCH   2   6
TORSDOF 4
ENDMDL
MODEL       47
REMARK 921   NORMALIZED FREE ENERGY PREDICTED BY IDOCK:   -4.69 KCAL/MOL
REMARK 922        TOTAL FREE ENERGY PREDICTED BY IDOCK:   -5.63 KCAL/MOL
REMARK 923 INTER-LIGAND FREE ENERGY PREDICTED BY IDOCK:   -5.37 KCAL/MOL
REMARK 924 INTRA-LIGAND FREE ENERGY PREDICTED BY IDOCK:   -0.26 KCAL/MOL
REMARK 927      BINDING AFFINITY PREDICTED BY RF-SCORE:    0.00 PKD
ROOT
HETATM    1  N   UNK A   0     -12.874  14.405  65.006  1.00  0.00    -0.615 N  
HETATM    2  C   UNK A   0     -12.457  13.529  65.950  1.00  0.00    -0.429 C  
HETATM    3  H2  UNK A   0     -13.116  14.052  64.080  1.00  0.00     0.000 HD 
HETATM    4  H1  UNK A   0     -12.954  15.405  65.189  1.00  0.00     0.000 HD 
HETATM    5  O   UNK A   0     -12.361  12.331  65.731  1.00  0.00    -0.622 OA 
ENDROOT
BRANCH   2   6
ATOM      6  N   GLU A   1     -12.178  14.125  67.136  1.00  0.00    -0.570 N  
ATOM      7  H   GLU A   1     -12.622  13.777  67.986  1.00  0.00     0.000 HD 
BRANCH   6   8
ATOM      8  CA  GLU A   1     -11.258  15.251  67.221  1.00  0.00    -0.306 C  
ATOM      9  O   GLU A   1      -9.256  15.421  65.871  1.00  0.00    -0.327 OA 
ATOM     10  C   GLU A   1      -9.864  14.735  66.865  1.00  0.00    -0.243 C  
ATOM     11  OXT GLU A   1      -9.320  13.801  67.442  1.00  0.00    -0.210 OA 
BRANCH   8  12
ATOM     12  CB  GLU A   1     -11.254  15.854  68.632  1.00  0.00    -0.360 C  
BRANCH  12  13
ATOM     13  CG  GLU A   1     -11.449  14.793  69.713  1.00  0.00    -0.330 C  
ATOM     14  CD  GLU A   1     -12.034  15.365  70.978  1.00  0.00    -0.359 C  
ATOM     15  OE2 GLU A   1     -11.444  15.383  72.047  1.00  0.00    -0.424 OA 
ATOM     16  OE1 GLU A   1     -13.297  15.823  70.837  1.00  0.00    -0.576 OA 
ENDBRANCH  12  13
ENDBRANCH   8  12
ENDBRANCH   6   8
ENDBRANCH   2   6
TORSDOF 4
ENDMDL
MODEL       48
REMARK 921   NORMALIZED FREE ENERGY PREDICTED BY IDOCK:   -4.64 KCAL/MOL
REMARK 922        TOTAL FREE ENERGY PREDICTED BY IDOCK:   -5.56 KCAL/MOL
REMARK 923 INTER-LIGAND FREE ENERGY PREDICTED BY IDOCK:   -5.15 KCAL/MOL
REMARK 924 INTRA-LIGAND FREE ENERGY PREDICTED BY IDOCK:   -0.42 KCAL/MOL
REMARK 927      BINDING AFFINITY PREDICTED BY RF-SCORE:    0.00 PKD
ROOT
HETATM    1  N   UNK A   0     -10.354  10.265  67.293  1.00  0.00    -0.218 N  
HETATM    2  C   UNK A   0     -11.312  11.220  67.305  1.00  0.00    -0.255 C  
HETATM    3  H2  UNK A   0     -10.415   9.498  67.963  1.00  0.00     0.000 HD 
HETATM    4  H1  UNK A   0      -9.572  10.286  66.638  1.00  0.00     0.000 HD 
HETATM    5  O   UNK A   0     -12.248  11.195  68.090  1.00  0.00    -0.612 OA 
ENDROOT
BRANCH   2   6
ATOM      6  N   GLU A   1     -11.119  12.174  66.360  1.00  0.00    -0.299 N  
ATOM      7  H   GLU A   1     -10.168  12.463  66.129  1.00  0.00     0.000 HD 
BRANCH   6   8
ATOM      8  CA  GLU A   1     -12.241  12.795  65.669  1.00  0.00    -0.444 C  
ATOM      9  O   GLU A   1     -12.991  12.091  63.478  1.00  0.00    -0.774 OA 
ATOM     10  C   GLU A   1     -11.983  12.672  64.167  1.00  0.00    -0.426 C  
ATOM     11  OXT GLU A   1     -10.969  13.085  63.619  1.00  0.00    -0.359 OA 
BRANCH   8  12
ATOM     12  CB  GLU A   1     -12.381  14.272  66.061  1.00  0.00    -0.416 C  
BRANCH  12  13
ATOM     13  CG  GLU A   1     -11.119  14.812  66.732  1.00  0.00    -0.338 C  
ATOM     14  CD  GLU A   1     -11.398  15.389  68.096  1.00  0.00    -0.348 C  
ATOM     15  OE2 GLU A   1     -11.242  16.568  68.374  1.00  0.00    -0.359 OA 
ATOM     16  OE1 GLU A   1     -11.800  14.474  69.003  1.00  0.00    -0.299 OA 
ENDBRANCH  12  13
ENDBRANCH   8  12
ENDBRANCH   6   8
ENDBRANCH   2   6
TORSDOF 4
ENDMDL
MODEL       49
REMARK 921   NORMALIZED FREE ENERGY PREDICTED BY IDOCK:   -4.64 KCAL/MOL
REMARK 922        TOTAL FREE ENERGY PREDICTED BY IDOCK:   -5.56 KCAL/MOL
REMARK 923 INTER-LIGAND FREE ENERGY PREDICTED BY IDOCK:   -4.99 KCAL/MOL
REMARK 924 INTRA-LIGAND FREE ENERGY PREDICTED BY IDOCK:   -0.58 KCAL/MOL
REMARK 927      BINDING AFFINITY PREDICTED BY RF-SCORE:    0.00 PKD
ROOT
HETATM    1  N   UNK A   0     -13.501   9.631  72.431  1.00  0.00    -0.625 N  
HETATM    2  C   UNK A   0     -13.198  10.692  71.649  1.00  0.00    -0.392 C  
HETATM    3  H2  UNK A   0     -13.837   9.798  73.380  1.00  0.00     0.000 HD 
HETATM    4  H1  UNK A   0     -13.405   8.669  72.105  1.00  0.00     0.000 HD 
HETATM    5  O   UNK A   0     -13.313  11.844  72.040  1.00  0.00    -0.487 OA 
ENDROOT
BRANCH   2   6
ATOM      6  N   GLU A   1     -12.775  10.332  70.411  1.00  0.00    -0.525 N  
ATOM      7  H   GLU A   1     -13.433   9.897  69.765  1.00  0.00     0.000 HD 
BRANCH   6   8
ATOM      8  CA  GLU A   1     -11.399  10.556  69.987  1.00  0.00    -0.318 C  
ATOM      9  O   GLU A   1     -10.645  12.635  69.003  1.00  0.00    -0.164 OA 
ATOM     10  C   GLU A   1     -11.430  11.549  68.825  1.00  0.00    -0.287 C  
ATOM     11  OXT GLU A   1     -12.082  11.374  67.803  1.00  0.00    -0.637 OA 
BRANCH   8  12
ATOM     12  CB  GLU A   1     -10.739   9.244  69.543  1.00  0.00    -0.236 C  
BRANCH  12  13
ATOM     13  CG  GLU A   1     -10.588   8.255  70.697  1.00  0.00    -0.235 C  
ATOM     14  CD  GLU A   1     -11.567   7.113  70.604  1.00  0.00    -0.314 C  
ATOM     15  OE2 GLU A   1     -12.445   6.908  71.428  1.00  0.00    -0.357 OA 
ATOM     16  OE1 GLU A   1     -11.361   6.303  69.544  1.00  0.00    -0.409 OA 
ENDBRANCH  12  13
ENDBRANCH   8  12
ENDBRANCH   6   8
ENDBRANCH   2   6
TORSDOF 4
ENDMDL
MODEL       50
REMARK 921   NORMALIZED FREE ENERGY PREDICTED BY IDOCK:   -4.63 KCAL/MOL
REMARK 922        TOTAL FREE ENERGY PREDICTED BY IDOCK:   -5.56 KCAL/MOL
REMARK 923 INTER-LIGAND FREE ENERGY PREDICTED BY IDOCK:   -5.10 KCAL/MOL
REMARK 924 INTRA-LIGAND FREE ENERGY PREDICTED BY IDOCK:   -0.46 KCAL/MOL
REMARK 927      BINDING AFFINITY PREDICTED BY RF-SCORE:    0.00 PKD
ROOT
HETATM    1  N   UNK A   0     -10.883  11.772  69.622  1.00  0.00    -0.456 N  
HETATM    2  C   UNK A   0     -11.270  11.915  68.334  1.00  0.00    -0.258 C  
HETATM    3  H2  UNK A   0     -11.129  10.914  70.117  1.00  0.00     0.000 HD 
HETATM    4  H1  UNK A   0     -10.353  12.491  70.114  1.00  0.00     0.000 HD 
HETATM    5  O   UNK A   0     -11.905  11.054  67.744  1.00  0.00    -0.605 OA 
ENDROOT
BRANCH   2   6
ATOM      6  N   GLU A   1     -10.871  13.093  67.790  1.00  0.00    -0.240 N  
ATOM      7  H   GLU A   1      -9.877  13.261  67.639  1.00  0.00     0.000 HD 
BRANCH   6   8
ATOM      8  CA  GLU A   1     -11.834  14.121  67.418  1.00  0.00    -0.413 C  
ATOM      9  O   GLU A   1     -13.029  14.107  65.314  1.00  0.00    -0.725 OA 
ATOM     10  C   GLU A   1     -11.815  14.240  65.895  1.00  0.00    -0.380 C  
ATOM     11  OXT GLU A   1     -10.802  14.467  65.246  1.00  0.00    -0.319 OA 
BRANCH   8  12
ATOM     12  CB  GLU A   1     -11.476  15.469  68.059  1.00  0.00    -0.313 C  
BRANCH  12  13
ATOM     13  CG  GLU A   1     -10.868  15.302  69.450  1.00  0.00    -0.263 C  
ATOM     14  CD  GLU A   1     -11.917  15.257  70.531  1.00  0.00    -0.344 C  
ATOM     15  OE2 GLU A   1     -12.018  16.099  71.410  1.00  0.00    -0.442 OA 
ATOM     16  OE1 GLU A   1     -12.717  14.171  70.469  1.00  0.00    -0.340 OA 
ENDBRANCH  12  13
ENDBRANCH   8  12
ENDBRANCH   6   8
ENDBRANCH   2   6
TORSDOF 4
ENDMDL
MODEL       51
REMARK 921   NORMALIZED FREE ENERGY PREDICTED BY IDOCK:   -4.61 KCAL/MOL
REMARK 922        TOTAL FREE ENERGY PREDICTED BY IDOCK:   -5.53 KCAL/MOL
REMARK 923 INTER-LIGAND FREE ENERGY PREDICTED BY IDOCK:   -5.13 KCAL/MOL
REMARK 924 INTRA-LIGAND FREE ENERGY PREDICTED BY IDOCK:   -0.40 KCAL/MOL
REMARK 927      BINDING AFFINITY PREDICTED BY RF-SCORE:    0.00 PKD
ROOT
HETATM    1  N   UNK A   0     -11.686  13.937  70.209  1.00  0.00    -0.457 N  
HETATM    2  C   UNK A   0     -11.886  14.585  69.038  1.00  0.00    -0.318 C  
HETATM    3  H2  UNK A   0     -11.409  14.477  71.030  1.00  0.00     0.000 HD 
HETATM    4  H1  UNK A   0     -11.802  12.928  70.299  1.00  0.00     0.000 HD 
HETATM    5  O   UNK A   0     -11.747  15.795  68.931  1.00  0.00    -0.383 OA 
ENDROOT
BRANCH   2   6
ATOM      6  N   GLU A   1     -12.259  13.756  68.032  1.00  0.00    -0.437 N  
ATOM      7  H   GLU A   1     -13.147  13.258  68.099  1.00  0.00     0.000 HD 
BRANCH   6   8
ATOM      8  CA  GLU A   1     -11.418  13.562  66.858  1.00  0.00    -0.344 C  
ATOM      9  O   GLU A   1     -11.336  15.137  65.022  1.00  0.00    -0.373 OA 
ATOM     10  C   GLU A   1     -12.110  14.243  65.678  1.00  0.00    -0.393 C  
ATOM     11  OXT GLU A   1     -13.256  13.990  65.327  1.00  0.00    -0.782 OA 
BRANCH   8  12
ATOM     12  CB  GLU A   1     -11.219  12.069  66.564  1.00  0.00    -0.387 C  
BRANCH  12  13
ATOM     13  CG  GLU A   1      -9.930  11.802  65.789  1.00  0.00    -0.269 C  
ATOM     14  CD  GLU A   1     -10.173  11.014  64.528  1.00  0.00    -0.344 C  
ATOM     15  OE2 GLU A   1      -9.729   9.892  64.337  1.00  0.00    -0.274 OA 
ATOM     16  OE1 GLU A   1     -10.897  11.677  63.601  1.00  0.00    -0.372 OA 
ENDBRANCH  12  13
ENDBRANCH   8  12
ENDBRANCH   6   8
ENDBRANCH   2   6
TORSDOF 4
ENDMDL
MODEL       52
REMARK 921   NORMALIZED FREE ENERGY PREDICTED BY IDOCK:   -4.61 KCAL/MOL
REMARK 922        TOTAL FREE ENERGY PREDICTED BY IDOCK:   -5.53 KCAL/MOL
REMARK 923 INTER-LIGAND FREE ENERGY PREDICTED BY IDOCK:   -4.79 KCAL/MOL
REMARK 924 INTRA-LIGAND FREE ENERGY PREDICTED BY IDOCK:   -0.74 KCAL/MOL
REMARK 927      BINDING AFFINITY PREDICTED BY RF-SCORE:    0.00 PKD
ROOT
HETATM    1  N   UNK A   0     -12.218  14.327  68.254  1.00  0.00    -0.591 N  
HETATM    2  C   UNK A   0     -11.483  13.199  68.379  1.00  0.00    -0.315 C  
HETATM    3  H2  UNK A   0     -12.757  14.656  69.055  1.00  0.00     0.000 HD 
HETATM    4  H1  UNK A   0     -12.252  14.861  67.385  1.00  0.00     0.000 HD 
HETATM    5  O   UNK A   0     -11.441  12.560  69.420  1.00  0.00    -0.270 OA 
ENDROOT
BRANCH   2   6
ATOM      6  N   GLU A   1     -10.808  12.879  67.246  1.00  0.00    -0.252 N  
ATOM      7  H   GLU A   1     -10.139  13.544  66.859  1.00  0.00     0.000 HD 
BRANCH   6   8
ATOM      8  CA  GLU A   1     -11.020  11.605  66.572  1.00  0.00    -0.299 C  
ATOM      9  O   GLU A   1     -10.269   9.492  67.483  1.00  0.00    -0.197 OA 
ATOM     10  C   GLU A   1      -9.871  10.678  66.968  1.00  0.00    -0.185 C  
ATOM     11  OXT GLU A   1      -8.690  10.958  66.811  1.00  0.00    -0.141 OA 
BRANCH   8  12
ATOM     12  CB  GLU A   1     -11.051  11.787  65.049  1.00  0.00    -0.343 C  
BRANCH  12  13
ATOM     13  CG  GLU A   1     -10.909  13.252  64.640  1.00  0.00    -0.396 C  
ATOM     14  CD  GLU A   1     -12.228  13.868  64.251  1.00  0.00    -0.408 C  
ATOM     15  OE2 GLU A   1     -12.477  14.275  63.127  1.00  0.00    -0.612 OA 
ATOM     16  OE1 GLU A   1     -13.104  13.971  65.273  1.00  0.00    -0.782 OA 
ENDBRANCH  12  13
ENDBRANCH   8  12
ENDBRANCH   6   8
ENDBRANCH   2   6
TORSDOF 4
ENDMDL
MODEL       53
REMARK 921   NORMALIZED FREE ENERGY PREDICTED BY IDOCK:   -4.60 KCAL/MOL
REMARK 922        TOTAL FREE ENERGY PREDICTED BY IDOCK:   -5.52 KCAL/MOL
REMARK 923 INTER-LIGAND FREE ENERGY PREDICTED BY IDOCK:   -5.17 KCAL/MOL
REMARK 924 INTRA-LIGAND FREE ENERGY PREDICTED BY IDOCK:   -0.35 KCAL/MOL
REMARK 927      BINDING AFFINITY PREDICTED BY RF-SCORE:    0.00 PKD
ROOT
HETATM    1  N   UNK A   0     -10.902  19.430  67.649  1.00  0.00    -0.423 N  
HETATM    2  C   UNK A   0     -10.365  18.294  68.148  1.00  0.00    -0.373 C  
HETATM    3  H2  UNK A   0     -10.407  20.311  67.787  1.00  0.00     0.000 HD 
HETATM    4  H1  UNK A   0     -11.786  19.436  67.140  1.00  0.00     0.000 HD 
HETATM    5  O   UNK A   0      -9.306  18.286  68.759  1.00  0.00    -0.308 OA 
ENDROOT
BRANCH   2   6
ATOM      6  N   GLU A   1     -11.116  17.195  67.886  1.00  0.00    -0.204 N  
ATOM      7  H   GLU A   1     -12.113  17.209  68.101  1.00  0.00     0.000 HD 
BRANCH   6   8
ATOM      8  CA  GLU A   1     -10.528  15.995  67.305  1.00  0.00    -0.308 C  
ATOM      9  O   GLU A   1      -8.823  16.064  65.587  1.00  0.00    -0.281 OA 
ATOM     10  C   GLU A   1     -10.118  16.332  65.871  1.00  0.00    -0.357 C  
ATOM     11  OXT GLU A   1     -10.893  16.777  65.033  1.00  0.00    -0.653 OA 
BRANCH   8  12
ATOM     12  CB  GLU A   1     -11.529  14.833  67.309  1.00  0.00    -0.378 C  
BRANCH  12  13
ATOM     13  CG  GLU A   1     -10.844  13.481  67.116  1.00  0.00    -0.291 C  
ATOM     14  CD  GLU A   1     -11.825  12.381  66.803  1.00  0.00    -0.315 C  
ATOM     15  OE2 GLU A   1     -12.021  11.423  67.534  1.00  0.00    -0.626 OA 
ATOM     16  OE1 GLU A   1     -12.445  12.527  65.613  1.00  0.00    -0.648 OA 
ENDBRANCH  12  13
ENDBRANCH   8  12
ENDBRANCH   6   8
ENDBRANCH   2   6
TORSDOF 4
ENDMDL
MODEL       54
REMARK 921   NORMALIZED FREE ENERGY PREDICTED BY IDOCK:   -4.56 KCAL/MOL
REMARK 922        TOTAL FREE ENERGY PREDICTED BY IDOCK:   -5.47 KCAL/MOL
REMARK 923 INTER-LIGAND FREE ENERGY PREDICTED BY IDOCK:   -5.16 KCAL/MOL
REMARK 924 INTRA-LIGAND FREE ENERGY PREDICTED BY IDOCK:   -0.32 KCAL/MOL
REMARK 927      BINDING AFFINITY PREDICTED BY RF-SCORE:    0.00 PKD
ROOT
HETATM    1  N   UNK A   0      -9.829  20.238  65.930  1.00  0.00    -0.625 N  
HETATM    2  C   UNK A   0     -10.380  19.107  66.427  1.00  0.00    -0.455 C  
HETATM    3  H2  UNK A   0      -9.906  21.102  66.468  1.00  0.00     0.000 HD 
HETATM    4  H1  UNK A   0      -9.338  20.257  65.036  1.00  0.00     0.000 HD 
HETATM    5  O   UNK A   0     -10.968  19.085  67.499  1.00  0.00    -0.443 OA 
ENDROOT
BRANCH   2   6
ATOM      6  N   GLU A   1     -10.196  18.032  65.621  1.00  0.00    -0.086 N  
ATOM      7  H   GLU A   1      -9.904  18.176  64.655  1.00  0.00     0.000 HD 
BRANCH   6   8
ATOM      8  CA  GLU A   1     -10.408  16.675  66.108  1.00  0.00    -0.330 C  
ATOM      9  O   GLU A   1      -9.319  15.800  68.085  1.00  0.00    -0.192 OA 
ATOM     10  C   GLU A   1      -9.128  16.236  66.819  1.00  0.00    -0.232 C  
ATOM     11  OXT GLU A   1      -8.024  16.244  66.290  1.00  0.00    -0.294 OA 
BRANCH   8  12
ATOM     12  CB  GLU A   1     -10.725  15.718  64.951  1.00  0.00    -0.385 C  
BRANCH  12  13
ATOM     13  CG  GLU A   1     -11.276  14.381  65.444  1.00  0.00    -0.335 C  
ATOM     14  CD  GLU A   1     -12.641  14.082  64.881  1.00  0.00    -0.342 C  
ATOM     15  OE2 GLU A   1     -13.648  13.986  65.566  1.00  0.00    -0.596 OA 
ATOM     16  OE1 GLU A   1     -12.649  13.886  63.545  1.00  0.00    -0.842 OA 
ENDBRANCH  12  13
ENDBRANCH   8  12
ENDBRANCH   6   8
ENDBRANCH   2   6
TORSDOF 4
ENDMDL
MODEL       55
REMARK 921   NORMALIZED FREE ENERGY PREDICTED BY IDOCK:   -4.54 KCAL/MOL
REMARK 922        TOTAL FREE ENERGY PREDICTED BY IDOCK:   -5.44 KCAL/MOL
REMARK 923 INTER-LIGAND FREE ENERGY PREDICTED BY IDOCK:   -5.10 KCAL/MOL
REMARK 924 INTRA-LIGAND FREE ENERGY PREDICTED BY IDOCK:   -0.34 KCAL/MOL
REMARK 927      BINDING AFFINITY PREDICTED BY RF-SCORE:    0.00 PKD
ROOT
HETATM    1  N   UNK A   0     -13.930   9.000  72.838  1.00  0.00    -0.896 N  
HETATM    2  C   UNK A   0     -13.306   9.742  71.895  1.00  0.00    -0.436 C  
HETATM    3  H2  UNK A   0     -14.302   9.466  73.666  1.00  0.00     0.000 HD 
HETATM    4  H1  UNK A   0     -14.043   7.990  72.749  1.00  0.00     0.000 HD 
HETATM    5  O   UNK A   0     -13.172  10.952  72.000  1.00  0.00    -0.492 OA 
ENDROOT
BRANCH   2   6
ATOM      6  N   GLU A   1     -12.871   9.003  70.844  1.00  0.00    -0.508 N  
ATOM      7  H   GLU A   1     -13.480   8.876  70.036  1.00  0.00     0.000 HD 
BRANCH   6   8
ATOM      8  CA  GLU A   1     -11.550   8.388  70.846  1.00  0.00    -0.262 C  
ATOM      9  O   GLU A   1     -11.163   6.095  70.175  1.00  0.00    -0.351 OA 
ATOM     10  C   GLU A   1     -11.738   6.893  71.103  1.00  0.00    -0.336 C  
ATOM     11  OXT GLU A   1     -12.330   6.443  72.077  1.00  0.00    -0.337 OA 
BRANCH   8  12
ATOM     12  CB  GLU A   1     -10.658   9.003  71.933  1.00  0.00    -0.388 C  
BRANCH  12  13
ATOM     13  CG  GLU A   1      -9.193   8.603  71.770  1.00  0.00    -0.338 C  
ATOM     14  CD  GLU A   1      -8.557   8.212  73.080  1.00  0.00    -0.219 C  
ATOM     15  OE2 GLU A   1      -7.636   8.828  73.593  1.00  0.00    -0.396 OA 
ATOM     16  OE1 GLU A   1      -9.071   7.088  73.621  1.00  0.00    -0.141 OA 
ENDBRANCH  12  13
ENDBRANCH   8  12
ENDBRANCH   6   8
ENDBRANCH   2   6
TORSDOF 4
ENDMDL
MODEL       56
REMARK 921   NORMALIZED FREE ENERGY PREDICTED BY IDOCK:   -4.54 KCAL/MOL
REMARK 922        TOTAL FREE ENERGY PREDICTED BY IDOCK:   -5.44 KCAL/MOL
REMARK 923 INTER-LIGAND FREE ENERGY PREDICTED BY IDOCK:   -5.19 KCAL/MOL
REMARK 924 INTRA-LIGAND FREE ENERGY PREDICTED BY IDOCK:   -0.25 KCAL/MOL
REMARK 927      BINDING AFFINITY PREDICTED BY RF-SCORE:    0.00 PKD
ROOT
HETATM    1  N   UNK A   0     -10.421  19.422  66.293  1.00  0.00    -0.470 N  
HETATM    2  C   UNK A   0     -10.590  18.137  65.906  1.00  0.00    -0.234 C  
HETATM    3  H2  UNK A   0     -10.753  20.168  65.681  1.00  0.00     0.000 HD 
HETATM    4  H1  UNK A   0      -9.975  19.670  67.176  1.00  0.00     0.000 HD 
HETATM    5  O   UNK A   0     -11.125  17.839  64.848  1.00  0.00    -0.821 OA 
ENDROOT
BRANCH   2   6
ATOM      6  N   GLU A   1     -10.116  17.245  66.813  1.00  0.00    -0.292 N  
ATOM      7  H   GLU A   1      -9.328  17.506  67.405  1.00  0.00     0.000 HD 
BRANCH   6   8
ATOM      8  CA  GLU A   1     -10.711  15.923  66.957  1.00  0.00    -0.292 C  
ATOM      9  O   GLU A   1     -11.431  15.028  69.088  1.00  0.00    -0.268 OA 
ATOM     10  C   GLU A   1     -10.361  15.410  68.354  1.00  0.00    -0.229 C  
ATOM     11  OXT GLU A   1      -9.214  15.320  68.774  1.00  0.00    -0.183 OA 
BRANCH   8  12
ATOM     12  CB  GLU A   1     -10.176  14.958  65.890  1.00  0.00    -0.333 C  
BRANCH  12  13
ATOM     13  CG  GLU A   1     -11.090  13.750  65.695  1.00  0.00    -0.297 C  
ATOM     14  CD  GLU A   1     -12.423  14.130  65.105  1.00  0.00    -0.439 C  
ATOM     15  OE2 GLU A   1     -13.485  13.994  65.692  1.00  0.00    -0.604 OA 
ATOM     16  OE1 GLU A   1     -12.345  14.600  63.841  1.00  0.00    -0.730 OA 
ENDBRANCH  12  13
ENDBRANCH   8  12
ENDBRANCH   6   8
ENDBRANCH   2   6
TORSDOF 4
ENDMDL
MODEL       57
REMARK 921   NORMALIZED FREE ENERGY PREDICTED BY IDOCK:   -4.51 KCAL/MOL
REMARK 922        TOTAL FREE ENERGY PREDICTED BY IDOCK:   -5.41 KCAL/MOL
REMARK 923 INTER-LIGAND FREE ENERGY PREDICTED BY IDOCK:   -4.78 KCAL/MOL
REMARK 924 INTRA-LIGAND FREE ENERGY PREDICTED BY IDOCK:   -0.63 KCAL/MOL
REMARK 927      BINDING AFFINITY PREDICTED BY RF-SCORE:    0.00 PKD
ROOT
HETATM    1  N   UNK A   0     -11.668  11.959  67.787  1.00  0.00    -0.318 N  
HETATM    2  C   UNK A   0     -11.956  13.144  67.202  1.00  0.00    -0.341 C  
HETATM    3  H2  UNK A   0     -11.474  11.938  68.789  1.00  0.00     0.000 HD 
HETATM    4  H1  UNK A   0     -11.639  11.085  67.262  1.00  0.00     0.000 HD 
HETATM    5  O   UNK A   0     -11.991  14.191  67.832  1.00  0.00    -0.360 OA 
ENDROOT
BRANCH   2   6
ATOM      6  N   GLU A   1     -12.204  13.031  65.873  1.00  0.00    -0.449 N  
ATOM      7  H   GLU A   1     -13.053  12.559  65.562  1.00  0.00     0.000 HD 
BRANCH   6   8
ATOM      8  CA  GLU A   1     -11.282  13.569  64.882  1.00  0.00    -0.342 C  
ATOM      9  O   GLU A   1     -10.857  15.938  64.627  1.00  0.00    -0.557 OA 
ATOM     10  C   GLU A   1     -11.782  14.960  64.495  1.00  0.00    -0.382 C  
ATOM     11  OXT GLU A   1     -12.910  15.180  64.072  1.00  0.00    -0.651 OA 
BRANCH   8  12
ATOM     12  CB  GLU A   1     -11.217  12.667  63.642  1.00  0.00    -0.525 C  
BRANCH  12  13
ATOM     13  CG  GLU A   1      -9.934  11.840  63.597  1.00  0.00    -0.404 C  
ATOM     14  CD  GLU A   1      -9.592  11.240  64.937  1.00  0.00    -0.232 C  
ATOM     15  OE2 GLU A   1      -8.588  11.530  65.569  1.00  0.00    -0.003 OA 
ATOM     16  OE1 GLU A   1     -10.478  10.315  65.362  1.00  0.00    -0.217 OA 
ENDBRANCH  12  13
ENDBRANCH   8  12
ENDBRANCH   6   8
ENDBRANCH   2   6
TORSDOF 4
ENDMDL
MODEL       58
REMARK 921   NORMALIZED FREE ENERGY PREDICTED BY IDOCK:   -4.50 KCAL/MOL
REMARK 922        TOTAL FREE ENERGY PREDICTED BY IDOCK:   -5.39 KCAL/MOL
REMARK 923 INTER-LIGAND FREE ENERGY PREDICTED BY IDOCK:   -5.06 KCAL/MOL
REMARK 924 INTRA-LIGAND FREE ENERGY PREDICTED BY IDOCK:   -0.33 KCAL/MOL
REMARK 927      BINDING AFFINITY PREDICTED BY RF-SCORE:    0.00 PKD
ROOT
HETATM    1  N   UNK A   0     -12.250  10.379  69.505  1.00  0.00    -0.541 N  
HETATM    2  C   UNK A   0     -12.105  11.582  70.107  1.00  0.00    -0.351 C  
HETATM    3  H2  UNK A   0     -12.784   9.652  69.980  1.00  0.00     0.000 HD 
HETATM    4  H1  UNK A   0     -11.843  10.175  68.592  1.00  0.00     0.000 HD 
HETATM    5  O   UNK A   0     -12.592  11.826  71.201  1.00  0.00    -0.378 OA 
ENDROOT
BRANCH   2   6
ATOM      6  N   GLU A   1     -11.384  12.461  69.366  1.00  0.00    -0.401 N  
ATOM      7  H   GLU A   1     -10.973  13.276  69.819  1.00  0.00     0.000 HD 
BRANCH   6   8
ATOM      8  CA  GLU A   1     -11.186  12.262  67.936  1.00  0.00    -0.274 C  
ATOM      9  O   GLU A   1      -9.347  10.977  67.028  1.00  0.00    -0.169 OA 
ATOM     10  C   GLU A   1      -9.684  12.102  67.697  1.00  0.00    -0.188 C  
ATOM     11  OXT GLU A   1      -8.852  12.928  68.050  1.00  0.00    -0.180 OA 
BRANCH   8  12
ATOM     12  CB  GLU A   1     -11.724  13.454  67.134  1.00  0.00    -0.424 C  
BRANCH  12  13
ATOM     13  CG  GLU A   1     -12.187  13.047  65.737  1.00  0.00    -0.511 C  
ATOM     14  CD  GLU A   1     -11.794  14.054  64.687  1.00  0.00    -0.417 C  
ATOM     15  OE2 GLU A   1     -12.600  14.700  64.036  1.00  0.00    -0.819 OA 
ATOM     16  OE1 GLU A   1     -10.461  14.151  64.497  1.00  0.00    -0.408 OA 
ENDBRANCH  12  13
ENDBRANCH   8  12
ENDBRANCH   6   8
ENDBRANCH   2   6
TORSDOF 4
ENDMDL
MODEL       59
REMARK 921   NORMALIZED FREE ENERGY PREDICTED BY IDOCK:   -4.48 KCAL/MOL
REMARK 922        TOTAL FREE ENERGY PREDICTED BY IDOCK:   -5.38 KCAL/MOL
REMARK 923 INTER-LIGAND FREE ENERGY PREDICTED BY IDOCK:   -5.15 KCAL/MOL
REMARK 924 INTRA-LIGAND FREE ENERGY PREDICTED BY IDOCK:   -0.23 KCAL/MOL
REMARK 927      BINDING AFFINITY PREDICTED BY RF-SCORE:    0.00 PKD
ROOT
HETATM    1  N   UNK A   0     -10.617  14.981  70.087  1.00  0.00    -0.473 N  
HETATM    2  C   UNK A   0     -11.961  14.887  69.974  1.00  0.00    -0.329 C  
HETATM    3  H2  UNK A   0     -10.222  15.711  70.682  1.00  0.00     0.000 HD 
HETATM    4  H1  UNK A   0      -9.984  14.347  69.600  1.00  0.00     0.000 HD 
HETATM    5  O   UNK A   0     -12.720  15.646  70.558  1.00  0.00    -0.447 OA 
ENDROOT
BRANCH   2   6
ATOM      6  N   GLU A   1     -12.353  13.871  69.165  1.00  0.00    -0.439 N  
ATOM      7  H   GLU A   1     -13.296  13.879  68.774  1.00  0.00     0.000 HD 
BRANCH   6   8
ATOM      8  CA  GLU A   1     -11.456  12.770  68.842  1.00  0.00    -0.305 C  
ATOM      9  O   GLU A   1     -10.003  12.778  66.906  1.00  0.00    -0.224 OA 
ATOM     10  C   GLU A   1     -11.289  12.740  67.323  1.00  0.00    -0.314 C  
ATOM     11  OXT GLU A   1     -12.228  12.660  66.541  1.00  0.00    -0.538 OA 
BRANCH   8  12
ATOM     12  CB  GLU A   1     -12.024  11.433  69.337  1.00  0.00    -0.407 C  
BRANCH  12  13
ATOM     13  CG  GLU A   1     -12.408  11.482  70.815  1.00  0.00    -0.472 C  
ATOM     14  CD  GLU A   1     -12.490  10.109  71.431  1.00  0.00    -0.423 C  
ATOM     15  OE2 GLU A   1     -13.523   9.627  71.869  1.00  0.00    -0.400 OA 
ATOM     16  OE1 GLU A   1     -11.303   9.469  71.496  1.00  0.00    -0.372 OA 
ENDBRANCH  12  13
ENDBRANCH   8  12
ENDBRANCH   6   8
ENDBRANCH   2   6
TORSDOF 4
ENDMDL
MODEL       60
REMARK 921   NORMALIZED FREE ENERGY PREDICTED BY IDOCK:   -4.47 KCAL/MOL
REMARK 922        TOTAL FREE ENERGY PREDICTED BY IDOCK:   -5.36 KCAL/MOL
REMARK 923 INTER-LIGAND FREE ENERGY PREDICTED BY IDOCK:   -4.79 KCAL/MOL
REMARK 924 INTRA-LIGAND FREE ENERGY PREDICTED BY IDOCK:   -0.57 KCAL/MOL
REMARK 927      BINDING AFFINITY PREDICTED BY RF-SCORE:    0.00 PKD
ROOT
HETATM    1  N   UNK A   0     -13.287  15.555  70.419  1.00  0.00    -0.779 N  
HETATM    2  C   UNK A   0     -12.627  14.374  70.396  1.00  0.00    -0.345 C  
HETATM    3  H2  UNK A   0     -13.986  15.715  71.145  1.00  0.00     0.000 HD 
HETATM    4  H1  UNK A   0     -13.109  16.291  69.735  1.00  0.00     0.000 HD 
HETATM    5  O   UNK A   0     -12.841  13.492  71.215  1.00  0.00    -0.346 OA 
ENDROOT
BRANCH   2   6
ATOM      6  N   GLU A   1     -11.720  14.295  69.390  1.00  0.00    -0.295 N  
ATOM      7  H   GLU A   1     -10.800  14.717  69.513  1.00  0.00     0.000 HD 
BRANCH   6   8
ATOM      8  CA  GLU A   1     -12.034  13.618  68.138  1.00  0.00    -0.355 C  
ATOM      9  O   GLU A   1     -12.095  11.208  67.922  1.00  0.00    -0.627 OA 
ATOM     10  C   GLU A   1     -11.298  12.279  68.141  1.00  0.00    -0.295 C  
ATOM     11  OXT GLU A   1     -10.088  12.172  68.297  1.00  0.00    -0.201 OA 
BRANCH   8  12
ATOM     12  CB  GLU A   1     -11.595  14.460  66.932  1.00  0.00    -0.404 C  
BRANCH  12  13
ATOM     13  CG  GLU A   1     -10.297  15.219  67.201  1.00  0.00    -0.265 C  
ATOM     14  CD  GLU A   1     -10.522  16.700  67.360  1.00  0.00    -0.314 C  
ATOM     15  OE2 GLU A   1     -10.067  17.537  66.596  1.00  0.00    -0.301 OA 
ATOM     16  OE1 GLU A   1     -11.242  17.029  68.453  1.00  0.00    -0.261 OA 
ENDBRANCH  12  13
ENDBRANCH   8  12
ENDBRANCH   6   8
ENDBRANCH   2   6
TORSDOF 4
ENDMDL
MODEL       61
REMARK 921   NORMALIZED FREE ENERGY PREDICTED BY IDOCK:   -4.44 KCAL/MOL
REMARK 922        TOTAL FREE ENERGY PREDICTED BY IDOCK:   -5.32 KCAL/MOL
REMARK 923 INTER-LIGAND FREE ENERGY PREDICTED BY IDOCK:   -4.97 KCAL/MOL
REMARK 924 INTRA-LIGAND FREE ENERGY PREDICTED BY IDOCK:   -0.35 KCAL/MOL
REMARK 927      BINDING AFFINITY PREDICTED BY RF-SCORE:    0.00 PKD
ROOT
HETATM    1  N   UNK A   0     -10.742  19.439  66.612  1.00  0.00    -0.446 N  
HETATM    2  C   UNK A   0     -10.591  18.177  66.150  1.00  0.00    -0.274 C  
HETATM    3  H2  UNK A   0     -11.168  20.138  66.003  1.00  0.00     0.000 HD 
HETATM    4  H1  UNK A   0     -10.445  19.716  67.547  1.00  0.00     0.000 HD 
HETATM    5  O   UNK A   0     -10.947  17.845  65.029  1.00  0.00    -0.776 OA 
ENDROOT
BRANCH   2   6
ATOM      6  N   GLU A   1     -10.024  17.346  67.060  1.00  0.00    -0.284 N  
ATOM      7  H   GLU A   1      -9.037  17.460  67.293  1.00  0.00     0.000 HD 
BRANCH   6   8
ATOM      8  CA  GLU A   1     -10.795  16.295  67.711  1.00  0.00    -0.315 C  
ATOM      9  O   GLU A   1     -11.240  16.269  70.090  1.00  0.00    -0.358 OA 
ATOM     10  C   GLU A   1     -10.279  16.166  69.144  1.00  0.00    -0.255 C  
ATOM     11  OXT GLU A   1      -9.106  15.956  69.425  1.00  0.00    -0.250 OA 
BRANCH   8  12
ATOM     12  CB  GLU A   1     -10.640  14.959  66.972  1.00  0.00    -0.289 C  
BRANCH  12  13
ATOM     13  CG  GLU A   1     -11.958  14.193  66.884  1.00  0.00    -0.479 C  
ATOM     14  CD  GLU A   1     -11.896  12.864  67.592  1.00  0.00    -0.346 C  
ATOM     15  OE2 GLU A   1     -12.008  11.790  67.023  1.00  0.00    -0.610 OA 
ATOM     16  OE1 GLU A   1     -11.746  12.965  68.930  1.00  0.00    -0.289 OA 
ENDBRANCH  12  13
ENDBRANCH   8  12
ENDBRANCH   6   8
ENDBRANCH   2   6
TORSDOF 4
ENDMDL
MODEL       62
REMARK 921   NORMALIZED FREE ENERGY PREDICTED BY IDOCK:   -4.43 KCAL/MOL
REMARK 922        TOTAL FREE ENERGY PREDICTED BY IDOCK:   -5.31 KCAL/MOL
REMARK 923 INTER-LIGAND FREE ENERGY PREDICTED BY IDOCK:   -5.04 KCAL/MOL
REMARK 924 INTRA-LIGAND FREE ENERGY PREDICTED BY IDOCK:   -0.27 KCAL/MOL
REMARK 927      BINDING AFFINITY PREDICTED BY RF-SCORE:    0.00 PKD
ROOT
HETATM    1  N   UNK A   0     -12.317  15.390  68.721  1.00  0.00    -0.577 N  
HETATM    2  C   UNK A   0     -12.218  14.172  68.141  1.00  0.00    -0.144 C  
HETATM    3  H2  UNK A   0     -12.246  15.459  69.737  1.00  0.00     0.000 HD 
HETATM    4  H1  UNK A   0     -12.459  16.242  68.178  1.00  0.00     0.000 HD 
HETATM    5  O   UNK A   0     -12.048  13.152  68.791  1.00  0.00    -0.310 OA 
ENDROOT
BRANCH   2   6
ATOM      6  N   GLU A   1     -12.318  14.222  66.789  1.00  0.00    -0.559 N  
ATOM      7  H   GLU A   1     -13.192  13.945  66.342  1.00  0.00     0.000 HD 
BRANCH   6   8
ATOM      8  CA  GLU A   1     -11.202  14.662  65.962  1.00  0.00    -0.342 C  
ATOM      9  O   GLU A   1     -11.351  16.534  64.436  1.00  0.00    -0.921 OA 
ATOM     10  C   GLU A   1     -11.785  15.279  64.691  1.00  0.00    -0.308 C  
ATOM     11  OXT GLU A   1     -12.555  14.689  63.944  1.00  0.00    -0.834 OA 
BRANCH   8  12
ATOM     12  CB  GLU A   1     -10.283  13.486  65.605  1.00  0.00    -0.306 C  
BRANCH  12  13
ATOM     13  CG  GLU A   1      -9.227  13.232  66.679  1.00  0.00    -0.222 C  
ATOM     14  CD  GLU A   1      -9.064  11.766  66.987  1.00  0.00    -0.187 C  
ATOM     15  OE2 GLU A   1      -9.321  11.272  68.073  1.00  0.00    -0.156 OA 
ATOM     16  OE1 GLU A   1      -8.563  11.046  65.960  1.00  0.00    -0.171 OA 
ENDBRANCH  12  13
ENDBRANCH   8  12
ENDBRANCH   6   8
ENDBRANCH   2   6
TORSDOF 4
ENDMDL
MODEL       63
REMARK 921   NORMALIZED FREE ENERGY PREDICTED BY IDOCK:   -4.40 KCAL/MOL
REMARK 922        TOTAL FREE ENERGY PREDICTED BY IDOCK:   -5.28 KCAL/MOL
REMARK 923 INTER-LIGAND FREE ENERGY PREDICTED BY IDOCK:   -5.05 KCAL/MOL
REMARK 924 INTRA-LIGAND FREE ENERGY PREDICTED BY IDOCK:   -0.22 KCAL/MOL
REMARK 927      BINDING AFFINITY PREDICTED BY RF-SCORE:    0.00 PKD
ROOT
HETATM    1  N   UNK A   0     -10.521  11.456  69.539  1.00  0.00    -0.441 N  
HETATM    2  C   UNK A   0     -11.336  11.657  68.478  1.00  0.00    -0.274 C  
HETATM    3  H2  UNK A   0      -9.992  10.585  69.595  1.00  0.00     0.000 HD 
HETATM    4  H1  UNK A   0     -10.416  12.145  70.283  1.00  0.00     0.000 HD 
HETATM    5  O   UNK A   0     -11.461  10.832  67.586  1.00  0.00    -0.477 OA 
ENDROOT
BRANCH   2   6
ATOM      6  N   GLU A   1     -11.971  12.856  68.519  1.00  0.00    -0.289 N  
ATOM      7  H   GLU A   1     -12.987  12.880  68.601  1.00  0.00     0.000 HD 
BRANCH   6   8
ATOM      8  CA  GLU A   1     -11.229  14.108  68.450  1.00  0.00    -0.265 C  
ATOM      9  O   GLU A   1     -10.452  15.289  70.415  1.00  0.00    -0.258 OA 
ATOM     10  C   GLU A   1     -11.545  14.901  69.719  1.00  0.00    -0.303 C  
ATOM     11  OXT GLU A   1     -12.681  15.191  70.070  1.00  0.00    -0.264 OA 
BRANCH   8  12
ATOM     12  CB  GLU A   1     -11.629  14.917  67.209  1.00  0.00    -0.337 C  
BRANCH  12  13
ATOM     13  CG  GLU A   1     -12.356  14.061  66.173  1.00  0.00    -0.491 C  
ATOM     14  CD  GLU A   1     -11.927  14.381  64.764  1.00  0.00    -0.447 C  
ATOM     15  OE2 GLU A   1     -12.677  14.847  63.920  1.00  0.00    -0.789 OA 
ATOM     16  OE1 GLU A   1     -10.641  14.066  64.501  1.00  0.00    -0.416 OA 
ENDBRANCH  12  13
ENDBRANCH   8  12
ENDBRANCH   6   8
ENDBRANCH   2   6
TORSDOF 4
ENDMDL
MODEL       64
REMARK 921   NORMALIZED FREE ENERGY PREDICTED BY IDOCK:   -4.40 KCAL/MOL
REMARK 922        TOTAL FREE ENERGY PREDICTED BY IDOCK:   -5.27 KCAL/MOL
REMARK 923 INTER-LIGAND FREE ENERGY PREDICTED BY IDOCK:   -4.92 KCAL/MOL
REMARK 924 INTRA-LIGAND FREE ENERGY PREDICTED BY IDOCK:   -0.34 KCAL/MOL
REMARK 927      BINDING AFFINITY PREDICTED BY RF-SCORE:    0.00 PKD
ROOT
HETATM    1  N   UNK A   0     -13.851   9.060  72.938  1.00  0.00    -0.923 N  
HETATM    2  C   UNK A   0     -13.294   9.802  71.954  1.00  0.00    -0.436 C  
HETATM    3  H2  UNK A   0     -14.125   9.519  73.807  1.00  0.00     0.000 HD 
HETATM    4  H1  UNK A   0     -14.008   8.056  72.841  1.00  0.00     0.000 HD 
HETATM    5  O   UNK A   0     -13.107  11.004  72.070  1.00  0.00    -0.496 OA 
ENDROOT
BRANCH   2   6
ATOM      6  N   GLU A   1     -12.988   9.073  70.852  1.00  0.00    -0.510 N  
ATOM      7  H   GLU A   1     -13.671   8.996  70.098  1.00  0.00     0.000 HD 
BRANCH   6   8
ATOM      8  CA  GLU A   1     -11.702   8.399  70.722  1.00  0.00    -0.202 C  
ATOM      9  O   GLU A   1     -11.482   6.122  69.933  1.00  0.00    -0.421 OA 
ATOM     10  C   GLU A   1     -11.942   6.905  70.935  1.00  0.00    -0.381 C  
ATOM     11  OXT GLU A   1     -12.475   6.441  71.935  1.00  0.00    -0.337 OA 
BRANCH   8  12
ATOM     12  CB  GLU A   1     -10.698   8.926  71.756  1.00  0.00    -0.432 C  
BRANCH  12  13
ATOM     13  CG  GLU A   1      -9.251   8.691  71.326  1.00  0.00    -0.283 C  
ATOM     14  CD  GLU A   1      -9.024   9.027  69.875  1.00  0.00    -0.164 C  
ATOM     15  OE2 GLU A   1      -8.703   8.203  69.033  1.00  0.00    -0.141 OA 
ATOM     16  OE1 GLU A   1      -9.166  10.339  69.590  1.00  0.00    -0.199 OA 
ENDBRANCH  12  13
ENDBRANCH   8  12
ENDBRANCH   6   8
ENDBRANCH   2   6
TORSDOF 4
ENDMDL
MODEL       65
REMARK 921   NORMALIZED FREE ENERGY PREDICTED BY IDOCK:   -4.39 KCAL/MOL
REMARK 922        TOTAL FREE ENERGY PREDICTED BY IDOCK:   -5.26 KCAL/MOL
REMARK 923 INTER-LIGAND FREE ENERGY PREDICTED BY IDOCK:   -4.96 KCAL/MOL
REMARK 924 INTRA-LIGAND FREE ENERGY PREDICTED BY IDOCK:   -0.30 KCAL/MOL
REMARK 927      BINDING AFFINITY PREDICTED BY RF-SCORE:    0.00 PKD
ROOT
HETATM    1  N   UNK A   0      -8.005  13.304  66.937  1.00  0.00    -0.395 N  
HETATM    2  C   UNK A   0      -8.783  13.909  67.863  1.00  0.00    -0.184 C  
HETATM    3  H2  UNK A   0      -7.012  13.533  66.903  1.00  0.00     0.000 HD 
HETATM    4  H1  UNK A   0      -8.378  12.625  66.273  1.00  0.00     0.000 HD 
HETATM    5  O   UNK A   0      -8.337  14.722  68.660  1.00  0.00    -0.152 OA 
ENDROOT
BRANCH   2   6
ATOM      6  N   GLU A   1     -10.078  13.508  67.809  1.00  0.00    -0.231 N  
ATOM      7  H   GLU A   1     -10.291  12.512  67.750  1.00  0.00     0.000 HD 
BRANCH   6   8
ATOM      8  CA  GLU A   1     -11.172  14.471  67.835  1.00  0.00    -0.295 C  
ATOM      9  O   GLU A   1     -11.830  15.665  69.835  1.00  0.00    -0.327 OA 
ATOM     10  C   GLU A   1     -11.771  14.451  69.241  1.00  0.00    -0.317 C  
ATOM     11  OXT GLU A   1     -12.192  13.437  69.782  1.00  0.00    -0.302 OA 
BRANCH   8  12
ATOM     12  CB  GLU A   1     -12.245  14.113  66.798  1.00  0.00    -0.429 C  
BRANCH  12  13
ATOM     13  CG  GLU A   1     -11.720  13.149  65.735  1.00  0.00    -0.415 C  
ATOM     14  CD  GLU A   1     -12.523  13.210  64.461  1.00  0.00    -0.342 C  
ATOM     15  OE2 GLU A   1     -13.175  12.272  64.029  1.00  0.00    -0.757 OA 
ATOM     16  OE1 GLU A   1     -12.424  14.388  63.810  1.00  0.00    -0.814 OA 
ENDBRANCH  12  13
ENDBRANCH   8  12
ENDBRANCH   6   8
ENDBRANCH   2   6
TORSDOF 4
ENDMDL
MODEL       66
REMARK 921   NORMALIZED FREE ENERGY PREDICTED BY IDOCK:   -4.38 KCAL/MOL
REMARK 922        TOTAL FREE ENERGY PREDICTED BY IDOCK:   -5.25 KCAL/MOL
REMARK 923 INTER-LIGAND FREE ENERGY PREDICTED BY IDOCK:   -5.16 KCAL/MOL
REMARK 924 INTRA-LIGAND FREE ENERGY PREDICTED BY IDOCK:   -0.09 KCAL/MOL
REMARK 927      BINDING AFFINITY PREDICTED BY RF-SCORE:    0.00 PKD
ROOT
HETATM    1  N   UNK A   0     -13.084  12.570  64.392  1.00  0.00    -0.730 N  
HETATM    2  C   UNK A   0     -12.611  13.795  64.717  1.00  0.00    -0.290 C  
HETATM    3  H2  UNK A   0     -13.405  12.404  63.437  1.00  0.00     0.000 HD 
HETATM    4  H1  UNK A   0     -13.131  11.807  65.067  1.00  0.00     0.000 HD 
HETATM    5  O   UNK A   0     -12.554  14.708  63.907  1.00  0.00    -0.834 OA 
ENDROOT
BRANCH   2   6
ATOM      6  N   GLU A   1     -12.208  13.879  66.010  1.00  0.00    -0.439 N  
ATOM      7  H   GLU A   1     -12.519  14.666  66.579  1.00  0.00     0.000 HD 
BRANCH   6   8
ATOM      8  CA  GLU A   1     -11.341  12.868  66.601  1.00  0.00    -0.317 C  
ATOM      9  O   GLU A   1     -12.111  11.275  68.253  1.00  0.00    -0.619 OA 
ATOM     10  C   GLU A   1     -11.861  12.582  68.009  1.00  0.00    -0.325 C  
ATOM     11  OXT GLU A   1     -12.014  13.446  68.863  1.00  0.00    -0.330 OA 
BRANCH   8  12
ATOM     12  CB  GLU A   1      -9.888  13.357  66.663  1.00  0.00    -0.278 C  
BRANCH  12  13
ATOM     13  CG  GLU A   1      -9.684  14.658  65.889  1.00  0.00    -0.341 C  
ATOM     14  CD  GLU A   1      -9.139  15.762  66.758  1.00  0.00    -0.249 C  
ATOM     15  OE2 GLU A   1      -9.750  16.790  67.006  1.00  0.00    -0.239 OA 
ATOM     16  OE1 GLU A   1      -7.887  15.533  67.209  1.00  0.00    -0.167 OA 
ENDBRANCH  12  13
ENDBRANCH   8  12
ENDBRANCH   6   8
ENDBRANCH   2   6
TORSDOF 4
ENDMDL
MODEL       67
REMARK 921   NORMALIZED FREE ENERGY PREDICTED BY IDOCK:   -4.38 KCAL/MOL
REMARK 922        TOTAL FREE ENERGY PREDICTED BY IDOCK:   -5.25 KCAL/MOL
REMARK 923 INTER-LIGAND FREE ENERGY PREDICTED BY IDOCK:   -4.98 KCAL/MOL
REMARK 924 INTRA-LIGAND FREE ENERGY PREDICTED BY IDOCK:   -0.27 KCAL/MOL
REMARK 927      BINDING AFFINITY PREDICTED BY RF-SCORE:    0.00 PKD
ROOT
HETATM    1  N   UNK A   0     -13.395   8.655  71.141  1.00  0.00    -0.532 N  
HETATM    2  C   UNK A   0     -12.127   8.819  71.581  1.00  0.00    -0.337 C  
HETATM    3  H2  UNK A   0     -13.893   7.798  71.381  1.00  0.00     0.000 HD 
HETATM    4  H1  UNK A   0     -13.871   9.359  70.576  1.00  0.00     0.000 HD 
HETATM    5  O   UNK A   0     -11.557   7.975  72.258  1.00  0.00    -0.316 OA 
ENDROOT
BRANCH   2   6
ATOM      6  N   GLU A   1     -11.585  10.003  71.202  1.00  0.00    -0.377 N  
ATOM      7  H   GLU A   1     -10.744  10.340  71.670  1.00  0.00     0.000 HD 
BRANCH   6   8
ATOM      8  CA  GLU A   1     -12.179  10.802  70.138  1.00  0.00    -0.346 C  
ATOM      9  O   GLU A   1     -11.736  10.411  67.791  1.00  0.00    -0.353 OA 
ATOM     10  C   GLU A   1     -11.199  10.812  68.966  1.00  0.00    -0.262 C  
ATOM     11  OXT GLU A   1     -10.033  11.176  69.061  1.00  0.00    -0.199 OA 
BRANCH   8  12
ATOM     12  CB  GLU A   1     -12.449  12.237  70.613  1.00  0.00    -0.323 C  
BRANCH  12  13
ATOM     13  CG  GLU A   1     -13.066  12.276  72.009  1.00  0.00    -0.461 C  
ATOM     14  CD  GLU A   1     -13.417  13.676  72.441  1.00  0.00    -0.584 C  
ATOM     15  OE2 GLU A   1     -12.893  14.241  73.388  1.00  0.00    -0.421 OA 
ATOM     16  OE1 GLU A   1     -14.400  14.242  71.710  1.00  0.00    -0.467 OA 
ENDBRANCH  12  13
ENDBRANCH   8  12
ENDBRANCH   6   8
ENDBRANCH   2   6
TORSDOF 4
ENDMDL
MODEL       68
REMARK 921   NORMALIZED FREE ENERGY PREDICTED BY IDOCK:   -4.37 KCAL/MOL
REMARK 922        TOTAL FREE ENERGY PREDICTED BY IDOCK:   -5.24 KCAL/MOL
REMARK 923 INTER-LIGAND FREE ENERGY PREDICTED BY IDOCK:   -4.87 KCAL/MOL
REMARK 924 INTRA-LIGAND FREE ENERGY PREDICTED BY IDOCK:   -0.37 KCAL/MOL
REMARK 927      BINDING AFFINITY PREDICTED BY RF-SCORE:    0.00 PKD
ROOT
HETATM    1  N   UNK A   0     -11.504  12.024  66.662  1.00  0.00    -0.352 N  
HETATM    2  C   UNK A   0     -11.679  13.115  67.441  1.00  0.00    -0.370 C  
HETATM    3  H2  UNK A   0     -11.051  11.201  67.061  1.00  0.00     0.000 HD 
HETATM    4  H1  UNK A   0     -11.810  11.995  65.689  1.00  0.00     0.000 HD 
HETATM    5  O   UNK A   0     -11.313  13.150  68.606  1.00  0.00    -0.251 OA 
ENDROOT
BRANCH   2   6
ATOM      6  N   GLU A   1     -12.301  14.133  66.793  1.00  0.00    -0.554 N  
ATOM      7  H   GLU A   1     -13.320  14.158  66.766  1.00  0.00     0.000 HD 
BRANCH   6   8
ATOM      8  CA  GLU A   1     -11.543  15.189  66.137  1.00  0.00    -0.080 C  
ATOM      9  O   GLU A   1     -12.079  16.018  63.927  1.00  0.00    -0.880 OA 
ATOM     10  C   GLU A   1     -11.632  14.953  64.630  1.00  0.00    -0.395 C  
ATOM     11  OXT GLU A   1     -11.303  13.905  64.088  1.00  0.00    -0.329 OA 
BRANCH   8  12
ATOM     12  CB  GLU A   1     -10.076  15.176  66.588  1.00  0.00    -0.271 C  
BRANCH  12  13
ATOM     13  CG  GLU A   1      -9.374  16.503  66.306  1.00  0.00    -0.334 C  
ATOM     14  CD  GLU A   1     -10.101  17.675  66.914  1.00  0.00    -0.331 C  
ATOM     15  OE2 GLU A   1     -10.605  18.571  66.255  1.00  0.00    -0.407 OA 
ATOM     16  OE1 GLU A   1     -10.109  17.671  68.264  1.00  0.00    -0.319 OA 
ENDBRANCH  12  13
ENDBRANCH   8  12
ENDBRANCH   6   8
ENDBRANCH   2   6
TORSDOF 4
ENDMDL
MODEL       69
REMARK 921   NORMALIZED FREE ENERGY PREDICTED BY IDOCK:   -4.36 KCAL/MOL
REMARK 922        TOTAL FREE ENERGY PREDICTED BY IDOCK:   -5.22 KCAL/MOL
REMARK 923 INTER-LIGAND FREE ENERGY PREDICTED BY IDOCK:   -4.95 KCAL/MOL
REMARK 924 INTRA-LIGAND FREE ENERGY PREDICTED BY IDOCK:   -0.26 KCAL/MOL
REMARK 927      BINDING AFFINITY PREDICTED BY RF-SCORE:    0.00 PKD
ROOT
HETATM    1  N   UNK A   0     -11.366  11.591  62.981  1.00  0.00    -0.834 N  
HETATM    2  C   UNK A   0     -10.124  11.931  63.394  1.00  0.00    -0.438 C  
HETATM    3  H2  UNK A   0     -11.477  11.135  62.075  1.00  0.00     0.000 HD 
HETATM    4  H1  UNK A   0     -12.196  11.775  63.545  1.00  0.00     0.000 HD 
HETATM    5  O   UNK A   0      -9.129  11.711  62.719  1.00  0.00    -0.321 OA 
ENDROOT
BRANCH   2   6
ATOM      6  N   GLU A   1     -10.115  12.518  64.617  1.00  0.00    -0.453 N  
ATOM      7  H   GLU A   1      -9.271  12.994  64.937  1.00  0.00     0.000 HD 
BRANCH   6   8
ATOM      8  CA  GLU A   1     -11.287  12.484  65.482  1.00  0.00    -0.331 C  
ATOM      9  O   GLU A   1     -13.150  14.009  65.238  1.00  0.00    -0.782 OA 
ATOM     10  C   GLU A   1     -11.842  13.906  65.563  1.00  0.00    -0.362 C  
ATOM     11  OXT GLU A   1     -11.178  14.872  65.920  1.00  0.00    -0.335 OA 
BRANCH   8  12
ATOM     12  CB  GLU A   1     -10.921  11.978  66.884  1.00  0.00    -0.328 C  
BRANCH  12  13
ATOM     13  CG  GLU A   1     -10.601  10.485  66.893  1.00  0.00    -0.303 C  
ATOM     14  CD  GLU A   1      -9.728  10.094  68.057  1.00  0.00    -0.142 C  
ATOM     15  OE2 GLU A   1      -8.596   9.652  67.934  1.00  0.00    -0.122 OA 
ATOM     16  OE1 GLU A   1     -10.327  10.234  69.259  1.00  0.00    -0.203 OA 
ENDBRANCH  12  13
ENDBRANCH   8  12
ENDBRANCH   6   8
ENDBRANCH   2   6
TORSDOF 4
ENDMDL
MODEL       70
REMARK 921   NORMALIZED FREE ENERGY PREDICTED BY IDOCK:   -4.35 KCAL/MOL
REMARK 922        TOTAL FREE ENERGY PREDICTED BY IDOCK:   -5.21 KCAL/MOL
REMARK 923 INTER-LIGAND FREE ENERGY PREDICTED BY IDOCK:   -4.89 KCAL/MOL
REMARK 924 INTRA-LIGAND FREE ENERGY PREDICTED BY IDOCK:   -0.32 KCAL/MOL
REMARK 927      BINDING AFFINITY PREDICTED BY RF-SCORE:    0.00 PKD
ROOT
HETATM    1  N   UNK A   0     -10.128  11.431  68.968  1.00  0.00    -0.379 N  
HETATM    2  C   UNK A   0     -10.976  11.136  67.956  1.00  0.00    -0.252 C  
HETATM    3  H2  UNK A   0     -10.483  11.945  69.774  1.00  0.00     0.000 HD 
HETATM    4  H1  UNK A   0      -9.145  11.157  68.952  1.00  0.00     0.000 HD 
HETATM    5  O   UNK A   0     -12.153  11.464  67.974  1.00  0.00    -0.629 OA 
ENDROOT
BRANCH   2   6
ATOM      6  N   GLU A   1     -10.380  10.443  66.953  1.00  0.00    -0.231 N  
ATOM      7  H   GLU A   1      -9.993   9.519  67.146  1.00  0.00     0.000 HD 
BRANCH   6   8
ATOM      8  CA  GLU A   1     -10.284  10.991  65.606  1.00  0.00    -0.260 C  
ATOM      9  O   GLU A   1      -9.328   9.766  63.751  1.00  0.00    -0.258 OA 
ATOM     10  C   GLU A   1      -9.064  10.359  64.937  1.00  0.00    -0.208 C  
ATOM     11  OXT GLU A   1      -7.935  10.403  65.409  1.00  0.00    -0.146 OA 
BRANCH   8  12
ATOM     12  CB  GLU A   1     -10.135  12.518  65.643  1.00  0.00    -0.285 C  
BRANCH  12  13
ATOM     13  CG  GLU A   1     -10.745  13.186  64.411  1.00  0.00    -0.426 C  
ATOM     14  CD  GLU A   1     -12.217  12.894  64.272  1.00  0.00    -0.410 C  
ATOM     15  OE2 GLU A   1     -12.696  12.267  63.340  1.00  0.00    -0.727 OA 
ATOM     16  OE1 GLU A   1     -12.974  13.428  65.255  1.00  0.00    -0.681 OA 
ENDBRANCH  12  13
ENDBRANCH   8  12
ENDBRANCH   6   8
ENDBRANCH   2   6
TORSDOF 4
ENDMDL
MODEL       71
REMARK 921   NORMALIZED FREE ENERGY PREDICTED BY IDOCK:   -4.32 KCAL/MOL
REMARK 922        TOTAL FREE ENERGY PREDICTED BY IDOCK:   -5.17 KCAL/MOL
REMARK 923 INTER-LIGAND FREE ENERGY PREDICTED BY IDOCK:   -4.82 KCAL/MOL
REMARK 924 INTRA-LIGAND FREE ENERGY PREDICTED BY IDOCK:   -0.35 KCAL/MOL
REMARK 927      BINDING AFFINITY PREDICTED BY RF-SCORE:    0.00 PKD
ROOT
HETATM    1  N   UNK A   0      -8.250  11.402  69.045  1.00  0.00    -0.356 N  
HETATM    2  C   UNK A   0      -8.583  12.439  68.243  1.00  0.00    -0.172 C  
HETATM    3  H2  UNK A   0      -7.622  11.569  69.831  1.00  0.00     0.000 HD 
HETATM    4  H1  UNK A   0      -8.606  10.458  68.890  1.00  0.00     0.000 HD 
HETATM    5  O   UNK A   0      -8.158  13.569  68.428  1.00  0.00    -0.146 OA 
ENDROOT
BRANCH   2   6
ATOM      6  N   GLU A   1      -9.431  12.084  67.245  1.00  0.00    -0.179 N  
ATOM      7  H   GLU A   1      -9.186  11.303  66.636  1.00  0.00     0.000 HD 
BRANCH   6   8
ATOM      8  CA  GLU A   1     -10.684  12.795  67.025  1.00  0.00    -0.253 C  
ATOM      9  O   GLU A   1     -12.231  13.319  68.811  1.00  0.00    -0.278 OA 
ATOM     10  C   GLU A   1     -11.675  12.321  68.088  1.00  0.00    -0.349 C  
ATOM     11  OXT GLU A   1     -11.971  11.145  68.261  1.00  0.00    -0.592 OA 
BRANCH   8  12
ATOM     12  CB  GLU A   1     -11.239  12.513  65.623  1.00  0.00    -0.352 C  
BRANCH  12  13
ATOM     13  CG  GLU A   1     -12.525  13.289  65.346  1.00  0.00    -0.543 C  
ATOM     14  CD  GLU A   1     -12.507  13.965  63.999  1.00  0.00    -0.211 C  
ATOM     15  OE2 GLU A   1     -12.538  15.177  63.852  1.00  0.00    -0.794 OA 
ATOM     16  OE1 GLU A   1     -12.496  13.106  62.958  1.00  0.00    -0.598 OA 
ENDBRANCH  12  13
ENDBRANCH   8  12
ENDBRANCH   6   8
ENDBRANCH   2   6
TORSDOF 4
ENDMDL
MODEL       72
REMARK 921   NORMALIZED FREE ENERGY PREDICTED BY IDOCK:   -4.31 KCAL/MOL
REMARK 922        TOTAL FREE ENERGY PREDICTED BY IDOCK:   -5.16 KCAL/MOL
REMARK 923 INTER-LIGAND FREE ENERGY PREDICTED BY IDOCK:   -5.00 KCAL/MOL
REMARK 924 INTRA-LIGAND FREE ENERGY PREDICTED BY IDOCK:   -0.16 KCAL/MOL
REMARK 927      BINDING AFFINITY PREDICTED BY RF-SCORE:    0.00 PKD
ROOT
HETATM    1  N   UNK A   0      -8.388  11.445  68.149  1.00  0.00    -0.142 N  
HETATM    2  C   UNK A   0      -8.271  12.716  67.703  1.00  0.00    -0.174 C  
HETATM    3  H2  UNK A   0      -7.662  11.068  68.759  1.00  0.00     0.000 HD 
HETATM    4  H1  UNK A   0      -9.178  10.851  67.898  1.00  0.00     0.000 HD 
HETATM    5  O   UNK A   0      -7.324  13.429  68.004  1.00  0.00    -0.098 OA 
ENDROOT
BRANCH   2   6
ATOM      6  N   GLU A   1      -9.306  13.096  66.912  1.00  0.00    -0.240 N  
ATOM      7  H   GLU A   1      -9.186  13.101  65.900  1.00  0.00     0.000 HD 
BRANCH   6   8
ATOM      8  CA  GLU A   1     -10.586  13.498  67.481  1.00  0.00    -0.244 C  
ATOM      9  O   GLU A   1     -12.221  11.910  68.297  1.00  0.00    -0.447 OA 
ATOM     10  C   GLU A   1     -11.588  12.379  67.198  1.00  0.00    -0.365 C  
ATOM     11  OXT GLU A   1     -11.828  11.954  66.074  1.00  0.00    -0.497 OA 
BRANCH   8  12
ATOM     12  CB  GLU A   1     -11.075  14.814  66.863  1.00  0.00    -0.339 C  
BRANCH  12  13
ATOM     13  CG  GLU A   1     -10.663  14.950  65.398  1.00  0.00    -0.391 C  
ATOM     14  CD  GLU A   1     -10.936  16.328  64.853  1.00  0.00    -0.307 C  
ATOM     15  OE2 GLU A   1     -11.730  16.553  63.953  1.00  0.00    -1.148 OA 
ATOM     16  OE1 GLU A   1     -10.188  17.298  65.421  1.00  0.00    -0.604 OA 
ENDBRANCH  12  13
ENDBRANCH   8  12
ENDBRANCH   6   8
ENDBRANCH   2   6
TORSDOF 4
ENDMDL
MODEL       73
REMARK 921   NORMALIZED FREE ENERGY PREDICTED BY IDOCK:   -4.30 KCAL/MOL
REMARK 922        TOTAL FREE ENERGY PREDICTED BY IDOCK:   -5.14 KCAL/MOL
REMARK 923 INTER-LIGAND FREE ENERGY PREDICTED BY IDOCK:   -4.89 KCAL/MOL
REMARK 924 INTRA-LIGAND FREE ENERGY PREDICTED BY IDOCK:   -0.26 KCAL/MOL
REMARK 927      BINDING AFFINITY PREDICTED BY RF-SCORE:    0.00 PKD
ROOT
HETATM    1  N   UNK A   0     -10.302  19.983  65.998  1.00  0.00    -0.474 N  
HETATM    2  C   UNK A   0     -10.071  19.486  67.235  1.00  0.00    -0.405 C  
HETATM    3  H2  UNK A   0      -9.812  20.830  65.709  1.00  0.00     0.000 HD 
HETATM    4  H1  UNK A   0     -10.947  19.539  65.344  1.00  0.00     0.000 HD 
HETATM    5  O   UNK A   0      -9.298  20.017  68.018  1.00  0.00    -0.337 OA 
ENDROOT
BRANCH   2   6
ATOM      6  N   GLU A   1     -10.774  18.353  67.488  1.00  0.00    -0.414 N  
ATOM      7  H   GLU A   1     -11.792  18.398  67.542  1.00  0.00     0.000 HD 
BRANCH   6   8
ATOM      8  CA  GLU A   1     -10.105  17.074  67.684  1.00  0.00    -0.298 C  
ATOM      9  O   GLU A   1      -8.275  16.317  66.292  1.00  0.00    -0.309 OA 
ATOM     10  C   GLU A   1      -9.596  16.606  66.321  1.00  0.00    -0.299 C  
ATOM     11  OXT GLU A   1     -10.316  16.472  65.340  1.00  0.00    -0.558 OA 
BRANCH   8  12
ATOM     12  CB  GLU A   1     -11.067  16.034  68.274  1.00  0.00    -0.351 C  
BRANCH  12  13
ATOM     13  CG  GLU A   1     -10.723  15.687  69.722  1.00  0.00    -0.309 C  
ATOM     14  CD  GLU A   1     -11.944  15.330  70.530  1.00  0.00    -0.344 C  
ATOM     15  OE2 GLU A   1     -12.335  15.983  71.485  1.00  0.00    -0.442 OA 
ATOM     16  OE1 GLU A   1     -12.549  14.191  70.130  1.00  0.00    -0.345 OA 
ENDBRANCH  12  13
ENDBRANCH   8  12
ENDBRANCH   6   8
ENDBRANCH   2   6
TORSDOF 4
ENDMDL
MODEL       74
REMARK 921   NORMALIZED FREE ENERGY PREDICTED BY IDOCK:   -4.29 KCAL/MOL
REMARK 922        TOTAL FREE ENERGY PREDICTED BY IDOCK:   -5.13 KCAL/MOL
REMARK 923 INTER-LIGAND FREE ENERGY PREDICTED BY IDOCK:   -4.77 KCAL/MOL
REMARK 924 INTRA-LIGAND FREE ENERGY PREDICTED BY IDOCK:   -0.37 KCAL/MOL
REMARK 927      BINDING AFFINITY PREDICTED BY RF-SCORE:    0.00 PKD
ROOT
HETATM    1  N   UNK A   0     -10.795   9.411  67.562  1.00  0.00    -0.431 N  
HETATM    2  C   UNK A   0     -10.083  10.243  66.769  1.00  0.00    -0.216 C  
HETATM    3  H2  UNK A   0     -10.346   8.568  67.921  1.00  0.00     0.000 HD 
HETATM    4  H1  UNK A   0     -11.765   9.598  67.815  1.00  0.00     0.000 HD 
HETATM    5  O   UNK A   0      -8.920  10.020  66.466  1.00  0.00    -0.141 OA 
ENDROOT
BRANCH   2   6
ATOM      6  N   GLU A   1     -10.792  11.329  66.371  1.00  0.00    -0.270 N  
ATOM      7  H   GLU A   1     -11.733  11.203  66.000  1.00  0.00     0.000 HD 
BRANCH   6   8
ATOM      8  CA  GLU A   1     -10.235  12.673  66.464  1.00  0.00    -0.243 C  
ATOM      9  O   GLU A   1     -10.413  14.038  68.455  1.00  0.00    -0.238 OA 
ATOM     10  C   GLU A   1     -11.103  13.464  67.443  1.00  0.00    -0.278 C  
ATOM     11  OXT GLU A   1     -12.313  13.600  67.317  1.00  0.00    -0.320 OA 
BRANCH   8  12
ATOM     12  CB  GLU A   1     -10.225  13.361  65.093  1.00  0.00    -0.316 C  
BRANCH  12  13
ATOM     13  CG  GLU A   1     -10.870  12.497  64.010  1.00  0.00    -0.446 C  
ATOM     14  CD  GLU A   1     -12.266  12.953  63.671  1.00  0.00    -0.499 C  
ATOM     15  OE2 GLU A   1     -13.263  12.275  63.864  1.00  0.00    -0.766 OA 
ATOM     16  OE1 GLU A   1     -12.316  14.171  63.092  1.00  0.00    -0.602 OA 
ENDBRANCH  12  13
ENDBRANCH   8  12
ENDBRANCH   6   8
ENDBRANCH   2   6
TORSDOF 4
ENDMDL
MODEL       75
REMARK 921   NORMALIZED FREE ENERGY PREDICTED BY IDOCK:   -4.29 KCAL/MOL
REMARK 922        TOTAL FREE ENERGY PREDICTED BY IDOCK:   -5.13 KCAL/MOL
REMARK 923 INTER-LIGAND FREE ENERGY PREDICTED BY IDOCK:   -4.81 KCAL/MOL
REMARK 924 INTRA-LIGAND FREE ENERGY PREDICTED BY IDOCK:   -0.32 KCAL/MOL
REMARK 927      BINDING AFFINITY PREDICTED BY RF-SCORE:    0.00 PKD
ROOT
HETATM    1  N   UNK A   0     -12.407  14.345  63.567  1.00  0.00    -1.114 N  
HETATM    2  C   UNK A   0     -12.103  13.494  64.573  1.00  0.00    -0.416 C  
HETATM    3  H2  UNK A   0     -13.365  14.372  63.217  1.00  0.00     0.000 HD 
HETATM    4  H1  UNK A   0     -11.711  14.960  63.145  1.00  0.00     0.000 HD 
HETATM    5  O   UNK A   0     -12.937  12.757  65.078  1.00  0.00    -0.811 OA 
ENDROOT
BRANCH   2   6
ATOM      6  N   GLU A   1     -10.801  13.564  64.950  1.00  0.00    -0.341 N  
ATOM      7  H   GLU A   1     -10.072  13.365  64.266  1.00  0.00     0.000 HD 
BRANCH   6   8
ATOM      8  CA  GLU A   1     -10.425  13.918  66.312  1.00  0.00    -0.287 C  
ATOM      9  O   GLU A   1     -11.011  16.033  67.333  1.00  0.00    -0.315 OA 
ATOM     10  C   GLU A   1     -10.273  15.438  66.368  1.00  0.00    -0.286 C  
ATOM     11  OXT GLU A   1      -9.530  16.072  65.629  1.00  0.00    -0.387 OA 
BRANCH   8  12
ATOM     12  CB  GLU A   1      -9.108  13.241  66.714  1.00  0.00    -0.216 C  
BRANCH  12  13
ATOM     13  CG  GLU A   1      -9.264  11.730  66.878  1.00  0.00    -0.189 C  
ATOM     14  CD  GLU A   1      -8.206  10.961  66.130  1.00  0.00    -0.168 C  
ATOM     15  OE2 GLU A   1      -8.449  10.209  65.200  1.00  0.00    -0.146 OA 
ATOM     16  OE1 GLU A   1      -6.957  11.144  66.610  1.00  0.00    -0.133 OA 
ENDBRANCH  12  13
ENDBRANCH   8  12
ENDBRANCH   6   8
ENDBRANCH   2   6
TORSDOF 4
ENDMDL
MODEL       76
REMARK 921   NORMALIZED FREE ENERGY PREDICTED BY IDOCK:   -4.28 KCAL/MOL
REMARK 922        TOTAL FREE ENERGY PREDICTED BY IDOCK:   -5.12 KCAL/MOL
REMARK 923 INTER-LIGAND FREE ENERGY PREDICTED BY IDOCK:   -4.68 KCAL/MOL
REMARK 924 INTRA-LIGAND FREE ENERGY PREDICTED BY IDOCK:   -0.44 KCAL/MOL
REMARK 927      BINDING AFFINITY PREDICTED BY RF-SCORE:    0.00 PKD
ROOT
HETATM    1  N   UNK A   0     -14.057   8.872  72.850  1.00  0.00    -0.845 N  
HETATM    2  C   UNK A   0     -13.259   9.517  71.967  1.00  0.00    -0.452 C  
HETATM    3  H2  UNK A   0     -14.554   9.418  73.555  1.00  0.00     0.000 HD 
HETATM    4  H1  UNK A   0     -14.179   7.860  72.834  1.00  0.00     0.000 HD 
HETATM    5  O   UNK A   0     -13.113  10.730  71.986  1.00  0.00    -0.483 OA 
ENDROOT
BRANCH   2   6
ATOM      6  N   GLU A   1     -12.668   8.678  71.080  1.00  0.00    -0.493 N  
ATOM      7  H   GLU A   1     -13.091   8.544  70.162  1.00  0.00     0.000 HD 
BRANCH   6   8
ATOM      8  CA  GLU A   1     -11.440   7.967  71.411  1.00  0.00    -0.258 C  
ATOM      9  O   GLU A   1      -9.377   9.097  71.983  1.00  0.00    -0.337 OA 
ATOM     10  C   GLU A   1     -10.267   8.854  70.994  1.00  0.00    -0.254 C  
ATOM     11  OXT GLU A   1     -10.118   9.289  69.859  1.00  0.00    -0.187 OA 
BRANCH   8  12
ATOM     12  CB  GLU A   1     -11.370   6.620  70.680  1.00  0.00    -0.401 C  
BRANCH  12  13
ATOM     13  CG  GLU A   1     -10.399   5.650  71.352  1.00  0.00    -0.287 C  
ATOM     14  CD  GLU A   1     -10.683   5.483  72.822  1.00  0.00    -0.247 C  
ATOM     15  OE2 GLU A   1      -9.905   5.818  73.702  1.00  0.00    -0.156 OA 
ATOM     16  OE1 GLU A   1     -11.864   4.885  73.085  1.00  0.00    -0.279 OA 
ENDBRANCH  12  13
ENDBRANCH   8  12
ENDBRANCH   6   8
ENDBRANCH   2   6
TORSDOF 4
ENDMDL
MODEL       77
REMARK 921   NORMALIZED FREE ENERGY PREDICTED BY IDOCK:   -4.27 KCAL/MOL
REMARK 922        TOTAL FREE ENERGY PREDICTED BY IDOCK:   -5.11 KCAL/MOL
REMARK 923 INTER-LIGAND FREE ENERGY PREDICTED BY IDOCK:   -4.82 KCAL/MOL
REMARK 924 INTRA-LIGAND FREE ENERGY PREDICTED BY IDOCK:   -0.29 KCAL/MOL
REMARK 927      BINDING AFFINITY PREDICTED BY RF-SCORE:    0.00 PKD
ROOT
HETATM    1  N   UNK A   0      -7.727  12.669  67.986  1.00  0.00    -0.126 N  
HETATM    2  C   UNK A   0      -7.807  13.859  67.349  1.00  0.00    -0.161 C  
HETATM    3  H2  UNK A   0      -6.996  12.532  68.685  1.00  0.00     0.000 HD 
HETATM    4  H1  UNK A   0      -8.373  11.903  67.793  1.00  0.00     0.000 HD 
HETATM    5  O   UNK A   0      -7.034  14.776  67.580  1.00  0.00    -0.158 OA 
ENDROOT
BRANCH   2   6
ATOM      6  N   GLU A   1      -8.827  13.912  66.455  1.00  0.00    -0.458 N  
ATOM      7  H   GLU A   1      -9.120  13.058  65.981  1.00  0.00     0.000 HD 
BRANCH   6   8
ATOM      8  CA  GLU A   1      -9.512  15.164  66.161  1.00  0.00    -0.319 C  
ATOM      9  O   GLU A   1      -9.919  16.868  67.832  1.00  0.00    -0.259 OA 
ATOM     10  C   GLU A   1     -10.225  15.611  67.437  1.00  0.00    -0.264 C  
ATOM     11  OXT GLU A   1     -11.028  14.913  68.044  1.00  0.00    -0.262 OA 
BRANCH   8  12
ATOM     12  CB  GLU A   1     -10.527  14.982  65.025  1.00  0.00    -0.415 C  
BRANCH  12  13
ATOM     13  CG  GLU A   1     -10.806  13.509  64.731  1.00  0.00    -0.392 C  
ATOM     14  CD  GLU A   1     -12.229  13.273  64.294  1.00  0.00    -0.392 C  
ATOM     15  OE2 GLU A   1     -13.028  12.604  64.931  1.00  0.00    -0.830 OA 
ATOM     16  OE1 GLU A   1     -12.534  13.833  63.105  1.00  0.00    -0.786 OA 
ENDBRANCH  12  13
ENDBRANCH   8  12
ENDBRANCH   6   8
ENDBRANCH   2   6
TORSDOF 4
ENDMDL
MODEL       78
REMARK 921   NORMALIZED FREE ENERGY PREDICTED BY IDOCK:   -4.27 KCAL/MOL
REMARK 922        TOTAL FREE ENERGY PREDICTED BY IDOCK:   -5.11 KCAL/MOL
REMARK 923 INTER-LIGAND FREE ENERGY PREDICTED BY IDOCK:   -4.39 KCAL/MOL
REMARK 924 INTRA-LIGAND FREE ENERGY PREDICTED BY IDOCK:   -0.72 KCAL/MOL
REMARK 927      BINDING AFFINITY PREDICTED BY RF-SCORE:    0.00 PKD
ROOT
HETATM    1  N   UNK A   0     -10.072  11.567  68.379  1.00  0.00    -0.199 N  
HETATM    2  C   UNK A   0     -11.275  11.289  67.827  1.00  0.00    -0.291 C  
HETATM    3  H2  UNK A   0     -10.003  11.648  69.394  1.00  0.00     0.000 HD 
HETATM    4  H1  UNK A   0      -9.232  11.698  67.816  1.00  0.00     0.000 HD 
HETATM    5  O   UNK A   0     -12.282  11.132  68.501  1.00  0.00    -0.600 OA 
ENDROOT
BRANCH   2   6
ATOM      6  N   GLU A   1     -11.227  11.198  66.474  1.00  0.00    -0.172 N  
ATOM      7  H   GLU A   1     -11.393  10.296  66.028  1.00  0.00     0.000 HD 
BRANCH   6   8
ATOM      8  CA  GLU A   1     -10.943  12.362  65.646  1.00  0.00    -0.286 C  
ATOM      9  O   GLU A   1     -12.353  14.329  65.609  1.00  0.00    -0.419 OA 
ATOM     10  C   GLU A   1     -12.279  13.016  65.295  1.00  0.00    -0.466 C  
ATOM     11  OXT GLU A   1     -13.200  12.422  64.750  1.00  0.00    -0.784 OA 
BRANCH   8  12
ATOM     12  CB  GLU A   1     -10.199  11.959  64.365  1.00  0.00    -0.333 C  
BRANCH  12  13
ATOM     13  CG  GLU A   1      -9.795  10.486  64.373  1.00  0.00    -0.405 C  
ATOM     14  CD  GLU A   1      -8.366  10.288  64.807  1.00  0.00    -0.172 C  
ATOM     15  OE2 GLU A   1      -7.497   9.829  64.081  1.00  0.00    -0.123 OA 
ATOM     16  OE1 GLU A   1      -8.135  10.624  66.094  1.00  0.00    -0.143 OA 
ENDBRANCH  12  13
ENDBRANCH   8  12
ENDBRANCH   6   8
ENDBRANCH   2   6
TORSDOF 4
ENDMDL
MODEL       79
REMARK 921   NORMALIZED FREE ENERGY PREDICTED BY IDOCK:   -4.26 KCAL/MOL
REMARK 922        TOTAL FREE ENERGY PREDICTED BY IDOCK:   -5.10 KCAL/MOL
REMARK 923 INTER-LIGAND FREE ENERGY PREDICTED BY IDOCK:   -4.87 KCAL/MOL
REMARK 924 INTRA-LIGAND FREE ENERGY PREDICTED BY IDOCK:   -0.23 KCAL/MOL
REMARK 927      BINDING AFFINITY PREDICTED BY RF-SCORE:    0.00 PKD
ROOT
HETATM    1  N   UNK A   0     -12.498  14.068  63.348  1.00  0.00    -1.123 N  
HETATM    2  C   UNK A   0     -12.661  12.885  63.982  1.00  0.00    -0.246 C  
HETATM    3  H2  UNK A   0     -12.843  14.167  62.393  1.00  0.00     0.000 HD 
HETATM    4  H1  UNK A   0     -12.042  14.866  63.792  1.00  0.00     0.000 HD 
HETATM    5  O   UNK A   0     -13.207  11.930  63.451  1.00  0.00    -0.649 OA 
ENDROOT
BRANCH   2   6
ATOM      6  N   GLU A   1     -12.169  12.891  65.247  1.00  0.00    -0.452 N  
ATOM      7  H   GLU A   1     -12.782  13.149  66.020  1.00  0.00     0.000 HD 
BRANCH   6   8
ATOM      8  CA  GLU A   1     -10.783  12.537  65.522  1.00  0.00    -0.271 C  
ATOM      9  O   GLU A   1      -9.393  13.762  67.079  1.00  0.00    -0.229 OA 
ATOM     10  C   GLU A   1     -10.043  13.821  65.895  1.00  0.00    -0.313 C  
ATOM     11  OXT GLU A   1     -10.010  14.814  65.179  1.00  0.00    -0.355 OA 
BRANCH   8  12
ATOM     12  CB  GLU A   1     -10.127  11.886  64.296  1.00  0.00    -0.325 C  
BRANCH  12  13
ATOM     13  CG  GLU A   1      -9.992  10.373  64.450  1.00  0.00    -0.388 C  
ATOM     14  CD  GLU A   1      -8.910   9.802  63.571  1.00  0.00    -0.241 C  
ATOM     15  OE2 GLU A   1      -9.123   9.016  62.661  1.00  0.00    -0.126 OA 
ATOM     16  OE1 GLU A   1      -7.666  10.205  63.906  1.00  0.00    -0.150 OA 
ENDBRANCH  12  13
ENDBRANCH   8  12
ENDBRANCH   6   8
ENDBRANCH   2   6
TORSDOF 4
ENDMDL
MODEL       80
REMARK 921   NORMALIZED FREE ENERGY PREDICTED BY IDOCK:   -4.25 KCAL/MOL
REMARK 922        TOTAL FREE ENERGY PREDICTED BY IDOCK:   -5.08 KCAL/MOL
REMARK 923 INTER-LIGAND FREE ENERGY PREDICTED BY IDOCK:   -4.70 KCAL/MOL
REMARK 924 INTRA-LIGAND FREE ENERGY PREDICTED BY IDOCK:   -0.38 KCAL/MOL
REMARK 927      BINDING AFFINITY PREDICTED BY RF-SCORE:    0.00 PKD
ROOT
HETATM    1  N   UNK A   0     -10.354  12.866  68.900  1.00  0.00    -0.429 N  
HETATM    2  C   UNK A   0     -10.997  13.997  68.530  1.00  0.00    -0.256 C  
HETATM    3  H2  UNK A   0     -10.905  12.058  69.191  1.00  0.00     0.000 HD 
HETATM    4  H1  UNK A   0      -9.336  12.794  68.898  1.00  0.00     0.000 HD 
HETATM    5  O   UNK A   0     -12.217  14.084  68.532  1.00  0.00    -0.333 OA 
ENDROOT
BRANCH   2   6
ATOM      6  N   GLU A   1     -10.151  14.989  68.156  1.00  0.00    -0.219 N  
ATOM      7  H   GLU A   1      -9.183  14.966  68.477  1.00  0.00     0.000 HD 
BRANCH   6   8
ATOM      8  CA  GLU A   1     -10.596  16.085  67.306  1.00  0.00    -0.313 C  
ATOM      9  O   GLU A   1     -10.757  15.904  64.898  1.00  0.00    -0.522 OA 
ATOM     10  C   GLU A   1      -9.908  15.926  65.951  1.00  0.00    -0.351 C  
ATOM     11  OXT GLU A   1      -8.694  15.855  65.812  1.00  0.00    -0.192 OA 
BRANCH   8  12
ATOM     12  CB  GLU A   1     -10.237  17.443  67.925  1.00  0.00    -0.348 C  
BRANCH  12  13
ATOM     13  CG  GLU A   1     -10.766  18.612  67.096  1.00  0.00    -0.433 C  
ATOM     14  CD  GLU A   1      -9.700  19.637  66.808  1.00  0.00    -0.378 C  
ATOM     15  OE2 GLU A   1      -9.739  20.786  67.221  1.00  0.00    -0.479 OA 
ATOM     16  OE1 GLU A   1      -8.710  19.185  66.010  1.00  0.00    -0.450 OA 
ENDBRANCH  12  13
ENDBRANCH   8  12
ENDBRANCH   6   8
ENDBRANCH   2   6
TORSDOF 4
ENDMDL
MODEL       81
REMARK 921   NORMALIZED FREE ENERGY PREDICTED BY IDOCK:   -4.22 KCAL/MOL
REMARK 922        TOTAL FREE ENERGY PREDICTED BY IDOCK:   -5.05 KCAL/MOL
REMARK 923 INTER-LIGAND FREE ENERGY PREDICTED BY IDOCK:   -4.62 KCAL/MOL
REMARK 924 INTRA-LIGAND FREE ENERGY PREDICTED BY IDOCK:   -0.43 KCAL/MOL
REMARK 927      BINDING AFFINITY PREDICTED BY RF-SCORE:    0.00 PKD
ROOT
HETATM    1  N   UNK A   0     -10.970  16.147  66.736  1.00  0.00    -0.162 N  
HETATM    2  C   UNK A   0     -10.956  15.221  67.722  1.00  0.00    -0.312 C  
HETATM    3  H2  UNK A   0     -11.496  17.010  66.878  1.00  0.00     0.000 HD 
HETATM    4  H1  UNK A   0     -10.473  16.013  65.856  1.00  0.00     0.000 HD 
HETATM    5  O   UNK A   0     -11.552  15.383  68.777  1.00  0.00    -0.332 OA 
ENDROOT
BRANCH   2   6
ATOM      6  N   GLU A   1     -10.214  14.129  67.411  1.00  0.00    -0.243 N  
ATOM      7  H   GLU A   1      -9.199  14.171  67.509  1.00  0.00     0.000 HD 
BRANCH   6   8
ATOM      8  CA  GLU A   1     -10.836  12.899  66.941  1.00  0.00    -0.257 C  
ATOM      9  O   GLU A   1     -12.115  11.435  68.382  1.00  0.00    -0.575 OA 
ATOM     10  C   GLU A   1     -10.883  11.926  68.119  1.00  0.00    -0.221 C  
ATOM     11  OXT GLU A   1      -9.895  11.590  68.759  1.00  0.00    -0.201 OA 
BRANCH   8  12
ATOM     12  CB  GLU A   1     -10.037  12.286  65.782  1.00  0.00    -0.274 C  
BRANCH  12  13
ATOM     13  CG  GLU A   1     -10.910  12.025  64.556  1.00  0.00    -0.363 C  
ATOM     14  CD  GLU A   1     -12.123  12.919  64.516  1.00  0.00    -0.413 C  
ATOM     15  OE2 GLU A   1     -13.269  12.505  64.587  1.00  0.00    -0.848 OA 
ATOM     16  OE1 GLU A   1     -11.831  14.226  64.349  1.00  0.00    -0.424 OA 
ENDBRANCH  12  13
ENDBRANCH   8  12
ENDBRANCH   6   8
ENDBRANCH   2   6
TORSDOF 4
ENDMDL
MODEL       82
REMARK 921   NORMALIZED FREE ENERGY PREDICTED BY IDOCK:   -4.22 KCAL/MOL
REMARK 922        TOTAL FREE ENERGY PREDICTED BY IDOCK:   -5.05 KCAL/MOL
REMARK 923 INTER-LIGAND FREE ENERGY PREDICTED BY IDOCK:   -4.72 KCAL/MOL
REMARK 924 INTRA-LIGAND FREE ENERGY PREDICTED BY IDOCK:   -0.33 KCAL/MOL
REMARK 927      BINDING AFFINITY PREDICTED BY RF-SCORE:    0.00 PKD
ROOT
HETATM    1  N   UNK A   0     -10.918   5.955  73.447  1.00  0.00    -0.415 N  
HETATM    2  C   UNK A   0     -10.736   7.269  73.185  1.00  0.00    -0.365 C  
HETATM    3  H2  UNK A   0     -10.125   5.404  73.777  1.00  0.00     0.000 HD 
HETATM    4  H1  UNK A   0     -11.820   5.495  73.325  1.00  0.00     0.000 HD 
HETATM    5  O   UNK A   0      -9.655   7.820  73.331  1.00  0.00    -0.263 OA 
ENDROOT
BRANCH   2   6
ATOM      6  N   GLU A   1     -11.869   7.886  72.764  1.00  0.00    -0.606 N  
ATOM      7  H   GLU A   1     -12.775   7.503  73.034  1.00  0.00     0.000 HD 
BRANCH   6   8
ATOM      8  CA  GLU A   1     -11.817   9.083  71.936  1.00  0.00    -0.376 C  
ATOM      9  O   GLU A   1     -13.299  10.970  72.253  1.00  0.00    -0.390 OA 
ATOM     10  C   GLU A   1     -13.227   9.671  71.886  1.00  0.00    -0.446 C  
ATOM     11  OXT GLU A   1     -14.211   9.040  71.519  1.00  0.00    -0.312 OA 
BRANCH   8  12
ATOM     12  CB  GLU A   1     -11.333   8.750  70.518  1.00  0.00    -0.255 C  
BRANCH  12  13
ATOM     13  CG  GLU A   1     -10.478   9.868  69.924  1.00  0.00    -0.309 C  
ATOM     14  CD  GLU A   1     -10.959  10.294  68.561  1.00  0.00    -0.247 C  
ATOM     15  OE2 GLU A   1     -10.300  10.162  67.541  1.00  0.00    -0.200 OA 
ATOM     16  OE1 GLU A   1     -12.175  10.879  68.570  1.00  0.00    -0.535 OA 
ENDBRANCH  12  13
ENDBRANCH   8  12
ENDBRANCH   6   8
ENDBRANCH   2   6
TORSDOF 4
ENDMDL
MODEL       83
REMARK 921   NORMALIZED FREE ENERGY PREDICTED BY IDOCK:   -4.21 KCAL/MOL
REMARK 922        TOTAL FREE ENERGY PREDICTED BY IDOCK:   -5.04 KCAL/MOL
REMARK 923 INTER-LIGAND FREE ENERGY PREDICTED BY IDOCK:   -4.74 KCAL/MOL
REMARK 924 INTRA-LIGAND FREE ENERGY PREDICTED BY IDOCK:   -0.30 KCAL/MOL
REMARK 927      BINDING AFFINITY PREDICTED BY RF-SCORE:    0.00 PKD
ROOT
HETATM    1  N   UNK A   0      -9.793   8.386  65.884  1.00  0.00    -0.457 N  
HETATM    2  C   UNK A   0     -10.524   8.384  67.022  1.00  0.00    -0.305 C  
HETATM    3  H2  UNK A   0      -9.245   7.558  65.650  1.00  0.00     0.000 HD 
HETATM    4  H1  UNK A   0      -9.771   9.186  65.252  1.00  0.00     0.000 HD 
HETATM    5  O   UNK A   0     -10.550   7.426  67.779  1.00  0.00    -0.219 OA 
ENDROOT
BRANCH   2   6
ATOM      6  N   GLU A   1     -11.212   9.538  67.209  1.00  0.00    -0.210 N  
ATOM      7  H   GLU A   1     -12.221   9.500  67.353  1.00  0.00     0.000 HD 
BRANCH   6   8
ATOM      8  CA  GLU A   1     -10.539  10.831  67.210  1.00  0.00    -0.257 C  
ATOM      9  O   GLU A   1      -8.714  11.365  68.707  1.00  0.00    -0.151 OA 
ATOM     10  C   GLU A   1     -10.035  11.088  68.630  1.00  0.00    -0.199 C  
ATOM     11  OXT GLU A   1     -10.760  11.076  69.617  1.00  0.00    -0.224 OA 
BRANCH   8  12
ATOM     12  CB  GLU A   1     -11.495  11.950  66.778  1.00  0.00    -0.384 C  
BRANCH  12  13
ATOM     13  CG  GLU A   1     -11.272  12.370  65.326  1.00  0.00    -0.359 C  
ATOM     14  CD  GLU A   1     -12.550  12.795  64.650  1.00  0.00    -0.419 C  
ATOM     15  OE2 GLU A   1     -13.040  12.203  63.701  1.00  0.00    -0.787 OA 
ATOM     16  OE1 GLU A   1     -13.091  13.920  65.163  1.00  0.00    -0.773 OA 
ENDBRANCH  12  13
ENDBRANCH   8  12
ENDBRANCH   6   8
ENDBRANCH   2   6
TORSDOF 4
ENDMDL
MODEL       84
REMARK 921   NORMALIZED FREE ENERGY PREDICTED BY IDOCK:   -4.20 KCAL/MOL
REMARK 922        TOTAL FREE ENERGY PREDICTED BY IDOCK:   -5.03 KCAL/MOL
REMARK 923 INTER-LIGAND FREE ENERGY PREDICTED BY IDOCK:   -4.47 KCAL/MOL
REMARK 924 INTRA-LIGAND FREE ENERGY PREDICTED BY IDOCK:   -0.56 KCAL/MOL
REMARK 927      BINDING AFFINITY PREDICTED BY RF-SCORE:    0.00 PKD
ROOT
HETATM    1  N   UNK A   0     -11.024   5.556  73.766  1.00  0.00    -0.415 N  
HETATM    2  C   UNK A   0     -10.655   6.854  73.665  1.00  0.00    -0.340 C  
HETATM    3  H2  UNK A   0     -10.367   4.887  74.167  1.00  0.00     0.000 HD 
HETATM    4  H1  UNK A   0     -11.938   5.224  73.456  1.00  0.00     0.000 HD 
HETATM    5  O   UNK A   0      -9.561   7.251  74.037  1.00  0.00    -0.265 OA 
ENDROOT
BRANCH   2   6
ATOM      6  N   GLU A   1     -11.622   7.638  73.126  1.00  0.00    -0.598 N  
ATOM      7  H   GLU A   1     -12.386   7.966  73.717  1.00  0.00     0.000 HD 
BRANCH   6   8
ATOM      8  CA  GLU A   1     -11.592   8.021  71.721  1.00  0.00    -0.285 C  
ATOM      9  O   GLU A   1     -11.586  10.326  70.983  1.00  0.00    -0.351 OA 
ATOM     10  C   GLU A   1     -12.313   9.362  71.593  1.00  0.00    -0.385 C  
ATOM     11  OXT GLU A   1     -13.460   9.553  71.977  1.00  0.00    -0.405 OA 
BRANCH   8  12
ATOM     12  CB  GLU A   1     -12.281   6.964  70.847  1.00  0.00    -0.404 C  
BRANCH  12  13
ATOM     13  CG  GLU A   1     -11.353   6.418  69.764  1.00  0.00    -0.494 C  
ATOM     14  CD  GLU A   1     -10.132   5.749  70.340  1.00  0.00    -0.210 C  
ATOM     15  OE2 GLU A   1      -8.994   6.157  70.167  1.00  0.00    -0.145 OA 
ATOM     16  OE1 GLU A   1     -10.404   4.625  71.036  1.00  0.00    -0.176 OA 
ENDBRANCH  12  13
ENDBRANCH   8  12
ENDBRANCH   6   8
ENDBRANCH   2   6
TORSDOF 4
ENDMDL
MODEL       85
REMARK 921   NORMALIZED FREE ENERGY PREDICTED BY IDOCK:   -4.20 KCAL/MOL
REMARK 922        TOTAL FREE ENERGY PREDICTED BY IDOCK:   -5.03 KCAL/MOL
REMARK 923 INTER-LIGAND FREE ENERGY PREDICTED BY IDOCK:   -4.79 KCAL/MOL
REMARK 924 INTRA-LIGAND FREE ENERGY PREDICTED BY IDOCK:   -0.24 KCAL/MOL
REMARK 927      BINDING AFFINITY PREDICTED BY RF-SCORE:    0.00 PKD
ROOT
HETATM    1  N   UNK A   0     -11.289   6.643  67.552  1.00  0.00    -0.732 N  
HETATM    2  C   UNK A   0     -10.940   6.581  68.858  1.00  0.00    -0.314 C  
HETATM    3  H2  UNK A   0     -11.062   5.856  66.944  1.00  0.00     0.000 HD 
HETATM    4  H1  UNK A   0     -11.772   7.449  67.156  1.00  0.00     0.000 HD 
HETATM    5  O   UNK A   0     -10.362   5.615  69.333  1.00  0.00    -0.221 OA 
ENDROOT
BRANCH   2   6
ATOM      6  N   GLU A   1     -11.309   7.684  69.556  1.00  0.00    -0.445 N  
ATOM      7  H   GLU A   1     -11.693   8.486  69.057  1.00  0.00     0.000 HD 
BRANCH   6   8
ATOM      8  CA  GLU A   1     -11.169   7.746  71.005  1.00  0.00    -0.266 C  
ATOM      9  O   GLU A   1     -11.970   6.003  72.482  1.00  0.00    -0.258 OA 
ATOM     10  C   GLU A   1     -12.338   6.974  71.615  1.00  0.00    -0.368 C  
ATOM     11  OXT GLU A   1     -13.513   7.221  71.372  1.00  0.00    -0.388 OA 
BRANCH   8  12
ATOM     12  CB  GLU A   1     -11.180   9.199  71.498  1.00  0.00    -0.430 C  
BRANCH  12  13
ATOM     13  CG  GLU A   1     -12.311  10.011  70.871  1.00  0.00    -0.438 C  
ATOM     14  CD  GLU A   1     -11.800  11.087  69.948  1.00  0.00    -0.353 C  
ATOM     15  OE2 GLU A   1     -11.957  12.281  70.151  1.00  0.00    -0.334 OA 
ATOM     16  OE1 GLU A   1     -11.183  10.612  68.845  1.00  0.00    -0.239 OA 
ENDBRANCH  12  13
ENDBRANCH   8  12
ENDBRANCH   6   8
ENDBRANCH   2   6
TORSDOF 4
ENDMDL
MODEL       86
REMARK 921   NORMALIZED FREE ENERGY PREDICTED BY IDOCK:   -4.19 KCAL/MOL
REMARK 922        TOTAL FREE ENERGY PREDICTED BY IDOCK:   -5.02 KCAL/MOL
REMARK 923 INTER-LIGAND FREE ENERGY PREDICTED BY IDOCK:   -4.79 KCAL/MOL
REMARK 924 INTRA-LIGAND FREE ENERGY PREDICTED BY IDOCK:   -0.22 KCAL/MOL
REMARK 927      BINDING AFFINITY PREDICTED BY RF-SCORE:    0.00 PKD
ROOT
HETATM    1  N   UNK A   0     -11.945  15.299  64.122  1.00  0.00    -0.864 N  
HETATM    2  C   UNK A   0     -10.757  15.302  64.768  1.00  0.00    -0.317 C  
HETATM    3  H2  UNK A   0     -12.451  16.179  64.017  1.00  0.00     0.000 HD 
HETATM    4  H1  UNK A   0     -12.352  14.447  63.736  1.00  0.00     0.000 HD 
HETATM    5  O   UNK A   0     -10.269  16.323  65.231  1.00  0.00    -0.548 OA 
ENDROOT
BRANCH   2   6
ATOM      6  N   GLU A   1     -10.185  14.074  64.829  1.00  0.00    -0.565 N  
ATOM      7  H   GLU A   1      -9.377  13.869  64.241  1.00  0.00     0.000 HD 
BRANCH   6   8
ATOM      8  CA  GLU A   1     -10.701  13.041  65.717  1.00  0.00    -0.274 C  
ATOM      9  O   GLU A   1     -11.947  13.538  67.732  1.00  0.00    -0.354 OA 
ATOM     10  C   GLU A   1     -10.740  13.624  67.130  1.00  0.00    -0.277 C  
ATOM     11  OXT GLU A   1      -9.762  14.104  67.690  1.00  0.00    -0.221 OA 
BRANCH   8  12
ATOM     12  CB  GLU A   1      -9.810  11.791  65.686  1.00  0.00    -0.265 C  
BRANCH  12  13
ATOM     13  CG  GLU A   1     -10.168  10.857  64.532  1.00  0.00    -0.422 C  
ATOM     14  CD  GLU A   1      -9.072  10.775  63.501  1.00  0.00    -0.226 C  
ATOM     15  OE2 GLU A   1      -9.200  11.156  62.348  1.00  0.00    -0.309 OA 
ATOM     16  OE1 GLU A   1      -7.939  10.199  63.955  1.00  0.00    -0.153 OA 
ENDBRANCH  12  13
ENDBRANCH   8  12
ENDBRANCH   6   8
ENDBRANCH   2   6
TORSDOF 4
ENDMDL
MODEL       87
REMARK 921   NORMALIZED FREE ENERGY PREDICTED BY IDOCK:   -4.19 KCAL/MOL
REMARK 922        TOTAL FREE ENERGY PREDICTED BY IDOCK:   -5.02 KCAL/MOL
REMARK 923 INTER-LIGAND FREE ENERGY PREDICTED BY IDOCK:   -4.85 KCAL/MOL
REMARK 924 INTRA-LIGAND FREE ENERGY PREDICTED BY IDOCK:   -0.17 KCAL/MOL
REMARK 927      BINDING AFFINITY PREDICTED BY RF-SCORE:    0.00 PKD
ROOT
HETATM    1  N   UNK A   0     -11.194  16.049  64.325  1.00  0.00    -0.735 N  
HETATM    2  C   UNK A   0     -11.706  14.805  64.180  1.00  0.00    -0.147 C  
HETATM    3  H2  UNK A   0     -11.825  16.850  64.276  1.00  0.00     0.000 HD 
HETATM    4  H1  UNK A   0     -10.200  16.214  64.481  1.00  0.00     0.000 HD 
HETATM    5  O   UNK A   0     -12.897  14.607  63.993  1.00  0.00    -0.690 OA 
ENDROOT
BRANCH   2   6
ATOM      6  N   GLU A   1     -10.765  13.833  64.276  1.00  0.00    -0.586 N  
ATOM      7  H   GLU A   1     -10.418  13.387  63.427  1.00  0.00     0.000 HD 
BRANCH   6   8
ATOM      8  CA  GLU A   1     -10.239  13.412  65.569  1.00  0.00    -0.290 C  
ATOM      9  O   GLU A   1      -8.771  11.507  65.837  1.00  0.00    -0.162 OA 
ATOM     10  C   GLU A   1     -10.022  11.901  65.509  1.00  0.00    -0.238 C  
ATOM     11  OXT GLU A   1     -10.904  11.102  65.219  1.00  0.00    -0.242 OA 
BRANCH   8  12
ATOM     12  CB  GLU A   1     -11.215  13.762  66.700  1.00  0.00    -0.327 C  
BRANCH  12  13
ATOM     13  CG  GLU A   1     -10.676  13.356  68.071  1.00  0.00    -0.261 C  
ATOM     14  CD  GLU A   1     -11.736  12.730  68.940  1.00  0.00    -0.326 C  
ATOM     15  OE2 GLU A   1     -12.130  13.223  69.985  1.00  0.00    -0.322 OA 
ATOM     16  OE1 GLU A   1     -12.187  11.543  68.480  1.00  0.00    -0.524 OA 
ENDBRANCH  12  13
ENDBRANCH   8  12
ENDBRANCH   6   8
ENDBRANCH   2   6
TORSDOF 4
ENDMDL
MODEL       88
REMARK 921   NORMALIZED FREE ENERGY PREDICTED BY IDOCK:   -4.18 KCAL/MOL
REMARK 922        TOTAL FREE ENERGY PREDICTED BY IDOCK:   -5.00 KCAL/MOL
REMARK 923 INTER-LIGAND FREE ENERGY PREDICTED BY IDOCK:   -4.58 KCAL/MOL
REMARK 924 INTRA-LIGAND FREE ENERGY PREDICTED BY IDOCK:   -0.42 KCAL/MOL
REMARK 927      BINDING AFFINITY PREDICTED BY RF-SCORE:    0.00 PKD
ROOT
HETATM    1  N   UNK A   0     -13.924   8.943  72.962  1.00  0.00    -0.882 N  
HETATM    2  C   UNK A   0     -13.274   9.526  71.930  1.00  0.00    -0.439 C  
HETATM    3  H2  UNK A   0     -14.259   9.529  73.728  1.00  0.00     0.000 HD 
HETATM    4  H1  UNK A   0     -14.092   7.937  73.002  1.00  0.00     0.000 HD 
HETATM    5  O   UNK A   0     -13.073  10.731  71.883  1.00  0.00    -0.481 OA 
ENDROOT
BRANCH   2   6
ATOM      6  N   GLU A   1     -12.892   8.639  70.977  1.00  0.00    -0.495 N  
ATOM      7  H   GLU A   1     -13.518   8.447  70.195  1.00  0.00     0.000 HD 
BRANCH   6   8
ATOM      8  CA  GLU A   1     -11.607   7.956  71.048  1.00  0.00    -0.282 C  
ATOM      9  O   GLU A   1      -9.495   9.131  71.160  1.00  0.00    -0.261 OA 
ATOM     10  C   GLU A   1     -10.568   8.858  70.384  1.00  0.00    -0.217 C  
ATOM     11  OXT GLU A   1     -10.671   9.280  69.239  1.00  0.00    -0.225 OA 
BRANCH   8  12
ATOM     12  CB  GLU A   1     -11.664   6.599  70.332  1.00  0.00    -0.446 C  
BRANCH  12  13
ATOM     13  CG  GLU A   1     -10.508   5.686  70.735  1.00  0.00    -0.335 C  
ATOM     14  CD  GLU A   1      -9.804   5.093  69.542  1.00  0.00    -0.208 C  
ATOM     15  OE2 GLU A   1      -9.781   3.897  69.298  1.00  0.00    -0.185 OA 
ATOM     16  OE1 GLU A   1      -9.159   6.003  68.782  1.00  0.00    -0.124 OA 
ENDBRANCH  12  13
ENDBRANCH   8  12
ENDBRANCH   6   8
ENDBRANCH   2   6
TORSDOF 4
ENDMDL
MODEL       89
REMARK 921   NORMALIZED FREE ENERGY PREDICTED BY IDOCK:   -4.18 KCAL/MOL
REMARK 922        TOTAL FREE ENERGY PREDICTED BY IDOCK:   -5.00 KCAL/MOL
REMARK 923 INTER-LIGAND FREE ENERGY PREDICTED BY IDOCK:   -4.78 KCAL/MOL
REMARK 924 INTRA-LIGAND FREE ENERGY PREDICTED BY IDOCK:   -0.22 KCAL/MOL
REMARK 927      BINDING AFFINITY PREDICTED BY RF-SCORE:    0.00 PKD
ROOT
HETATM    1  N   UNK A   0     -12.629  10.238  70.150  1.00  0.00    -0.539 N  
HETATM    2  C   UNK A   0     -11.430  10.637  69.668  1.00  0.00    -0.291 C  
HETATM    3  H2  UNK A   0     -12.823   9.239  70.225  1.00  0.00     0.000 HD 
HETATM    4  H1  UNK A   0     -13.347  10.902  70.443  1.00  0.00     0.000 HD 
HETATM    5  O   UNK A   0     -10.571   9.842  69.318  1.00  0.00    -0.204 OA 
ENDROOT
BRANCH   2   6
ATOM      6  N   GLU A   1     -11.298  11.987  69.631  1.00  0.00    -0.461 N  
ATOM      7  H   GLU A   1     -11.550  12.536  70.453  1.00  0.00     0.000 HD 
BRANCH   6   8
ATOM      8  CA  GLU A   1     -10.802  12.667  68.442  1.00  0.00    -0.245 C  
ATOM      9  O   GLU A   1      -9.795  14.867  68.506  1.00  0.00    -0.205 OA 
ATOM     10  C   GLU A   1     -10.941  14.171  68.680  1.00  0.00    -0.258 C  
ATOM     11  OXT GLU A   1     -11.998  14.715  68.973  1.00  0.00    -0.307 OA 
BRANCH   8  12
ATOM     12  CB  GLU A   1     -11.600  12.253  67.198  1.00  0.00    -0.423 C  
BRANCH  12  13
ATOM     13  CG  GLU A   1     -11.108  12.960  65.936  1.00  0.00    -0.310 C  
ATOM     14  CD  GLU A   1     -11.896  12.564  64.714  1.00  0.00    -0.383 C  
ATOM     15  OE2 GLU A   1     -11.413  11.971  63.762  1.00  0.00    -0.392 OA 
ATOM     16  OE1 GLU A   1     -13.185  12.962  64.745  1.00  0.00    -0.764 OA 
ENDBRANCH  12  13
ENDBRANCH   8  12
ENDBRANCH   6   8
ENDBRANCH   2   6
TORSDOF 4
ENDMDL
MODEL       90
REMARK 921   NORMALIZED FREE ENERGY PREDICTED BY IDOCK:   -4.18 KCAL/MOL
REMARK 922        TOTAL FREE ENERGY PREDICTED BY IDOCK:   -5.00 KCAL/MOL
REMARK 923 INTER-LIGAND FREE ENERGY PREDICTED BY IDOCK:   -4.44 KCAL/MOL
REMARK 924 INTRA-LIGAND FREE ENERGY PREDICTED BY IDOCK:   -0.56 KCAL/MOL
REMARK 927      BINDING AFFINITY PREDICTED BY RF-SCORE:    0.00 PKD
ROOT
HETATM    1  N   UNK A   0     -11.688  12.088  70.400  1.00  0.00    -0.525 N  
HETATM    2  C   UNK A   0     -12.424  13.134  70.841  1.00  0.00    -0.323 C  
HETATM    3  H2  UNK A   0     -11.688  11.223  70.941  1.00  0.00     0.000 HD 
HETATM    4  H1  UNK A   0     -11.134  12.135  69.545  1.00  0.00     0.000 HD 
HETATM    5  O   UNK A   0     -13.088  13.078  71.865  1.00  0.00    -0.400 OA 
ENDROOT
BRANCH   2   6
ATOM      6  N   GLU A   1     -12.346  14.216  70.026  1.00  0.00    -0.346 N  
ATOM      7  H   GLU A   1     -13.031  14.965  70.124  1.00  0.00     0.000 HD 
BRANCH   6   8
ATOM      8  CA  GLU A   1     -11.303  14.330  69.016  1.00  0.00    -0.272 C  
ATOM      9  O   GLU A   1      -9.106  15.231  69.486  1.00  0.00    -0.241 OA 
ATOM     10  C   GLU A   1     -10.423  15.522  69.393  1.00  0.00    -0.253 C  
ATOM     11  OXT GLU A   1     -10.857  16.653  69.570  1.00  0.00    -0.321 OA 
BRANCH   8  12
ATOM     12  CB  GLU A   1     -11.907  14.540  67.621  1.00  0.00    -0.395 C  
BRANCH  12  13
ATOM     13  CG  GLU A   1     -11.202  13.704  66.555  1.00  0.00    -0.321 C  
ATOM     14  CD  GLU A   1     -10.844  12.327  67.051  1.00  0.00    -0.250 C  
ATOM     15  OE2 GLU A   1      -9.695  11.929  67.167  1.00  0.00    -0.183 OA 
ATOM     16  OE1 GLU A   1     -11.914  11.549  67.320  1.00  0.00    -0.605 OA 
ENDBRANCH  12  13
ENDBRANCH   8  12
ENDBRANCH   6   8
ENDBRANCH   2   6
TORSDOF 4
ENDMDL
MODEL       91
REMARK 921   NORMALIZED FREE ENERGY PREDICTED BY IDOCK:   -4.17 KCAL/MOL
REMARK 922        TOTAL FREE ENERGY PREDICTED BY IDOCK:   -4.99 KCAL/MOL
REMARK 923 INTER-LIGAND FREE ENERGY PREDICTED BY IDOCK:   -4.72 KCAL/MOL
REMARK 924 INTRA-LIGAND FREE ENERGY PREDICTED BY IDOCK:   -0.27 KCAL/MOL
REMARK 927      BINDING AFFINITY PREDICTED BY RF-SCORE:    0.00 PKD
ROOT
HETATM    1  N   UNK A   0      -8.972  14.434  66.269  1.00  0.00    -0.489 N  
HETATM    2  C   UNK A   0      -8.950  13.455  67.203  1.00  0.00    -0.226 C  
HETATM    3  H2  UNK A   0      -8.264  14.430  65.535  1.00  0.00     0.000 HD 
HETATM    4  H1  UNK A   0      -9.673  15.174  66.274  1.00  0.00     0.000 HD 
HETATM    5  O   UNK A   0      -8.110  12.567  67.197  1.00  0.00    -0.180 OA 
ENDROOT
BRANCH   2   6
ATOM      6  N   GLU A   1      -9.950  13.569  68.113  1.00  0.00    -0.234 N  
ATOM      7  H   GLU A   1      -9.841  14.214  68.896  1.00  0.00     0.000 HD 
BRANCH   6   8
ATOM      8  CA  GLU A   1     -11.175  12.791  67.993  1.00  0.00    -0.270 C  
ATOM      9  O   GLU A   1     -12.239  12.325  65.869  1.00  0.00    -0.634 OA 
ATOM     10  C   GLU A   1     -11.922  13.294  66.758  1.00  0.00    -0.382 C  
ATOM     11  OXT GLU A   1     -12.240  14.465  66.590  1.00  0.00    -0.424 OA 
BRANCH   8  12
ATOM     12  CB  GLU A   1     -12.053  12.950  69.243  1.00  0.00    -0.234 C  
BRANCH  12  13
ATOM     13  CG  GLU A   1     -11.677  14.187  70.057  1.00  0.00    -0.358 C  
ATOM     14  CD  GLU A   1     -12.798  14.642  70.955  1.00  0.00    -0.365 C  
ATOM     15  OE2 GLU A   1     -13.364  15.718  70.836  1.00  0.00    -0.576 OA 
ATOM     16  OE1 GLU A   1     -13.097  13.768  71.939  1.00  0.00    -0.349 OA 
ENDBRANCH  12  13
ENDBRANCH   8  12
ENDBRANCH   6   8
ENDBRANCH   2   6
TORSDOF 4
ENDMDL
MODEL       92
REMARK 921   NORMALIZED FREE ENERGY PREDICTED BY IDOCK:   -4.17 KCAL/MOL
REMARK 922        TOTAL FREE ENERGY PREDICTED BY IDOCK:   -4.99 KCAL/MOL
REMARK 923 INTER-LIGAND FREE ENERGY PREDICTED BY IDOCK:   -4.62 KCAL/MOL
REMARK 924 INTRA-LIGAND FREE ENERGY PREDICTED BY IDOCK:   -0.36 KCAL/MOL
REMARK 927      BINDING AFFINITY PREDICTED BY RF-SCORE:    0.00 PKD
ROOT
HETATM    1  N   UNK A   0      -7.998  12.623  66.995  1.00  0.00    -0.357 N  
HETATM    2  C   UNK A   0      -9.122  13.148  66.457  1.00  0.00    -0.124 C  
HETATM    3  H2  UNK A   0      -7.677  12.968  67.900  1.00  0.00     0.000 HD 
HETATM    4  H1  UNK A   0      -7.460  11.893  66.528  1.00  0.00     0.000 HD 
HETATM    5  O   UNK A   0      -9.766  14.023  67.017  1.00  0.00    -0.241 OA 
ENDROOT
BRANCH   2   6
ATOM      6  N   GLU A   1      -9.443  12.595  65.260  1.00  0.00    -0.450 N  
ATOM      7  H   GLU A   1      -8.992  12.940  64.414  1.00  0.00     0.000 HD 
BRANCH   6   8
ATOM      8  CA  GLU A   1     -10.420  11.519  65.161  1.00  0.00    -0.286 C  
ATOM      9  O   GLU A   1     -10.076   9.333  66.143  1.00  0.00    -0.288 OA 
ATOM     10  C   GLU A   1      -9.653  10.197  65.192  1.00  0.00    -0.292 C  
ATOM     11  OXT GLU A   1      -8.753   9.918  64.410  1.00  0.00    -0.169 OA 
BRANCH   8  12
ATOM     12  CB  GLU A   1     -11.231  11.629  63.863  1.00  0.00    -0.479 C  
BRANCH  12  13
ATOM     13  CG  GLU A   1     -12.673  12.064  64.120  1.00  0.00    -0.361 C  
ATOM     14  CD  GLU A   1     -12.774  13.524  64.480  1.00  0.00    -0.107 C  
ATOM     15  OE2 GLU A   1     -13.168  13.927  65.564  1.00  0.00    -0.698 OA 
ATOM     16  OE1 GLU A   1     -12.430  14.358  63.476  1.00  0.00    -0.770 OA 
ENDBRANCH  12  13
ENDBRANCH   8  12
ENDBRANCH   6   8
ENDBRANCH   2   6
TORSDOF 4
ENDMDL
MODEL       93
REMARK 921   NORMALIZED FREE ENERGY PREDICTED BY IDOCK:   -4.16 KCAL/MOL
REMARK 922        TOTAL FREE ENERGY PREDICTED BY IDOCK:   -4.97 KCAL/MOL
REMARK 923 INTER-LIGAND FREE ENERGY PREDICTED BY IDOCK:   -4.60 KCAL/MOL
REMARK 924 INTRA-LIGAND FREE ENERGY PREDICTED BY IDOCK:   -0.37 KCAL/MOL
REMARK 927      BINDING AFFINITY PREDICTED BY RF-SCORE:    0.00 PKD
ROOT
HETATM    1  N   UNK A   0     -11.653   6.581  69.035  1.00  0.00    -0.594 N  
HETATM    2  C   UNK A   0     -10.903   6.111  70.058  1.00  0.00    -0.341 C  
HETATM    3  H2  UNK A   0     -11.853   5.964  68.247  1.00  0.00     0.000 HD 
HETATM    4  H1  UNK A   0     -12.027   7.530  69.024  1.00  0.00     0.000 HD 
HETATM    5  O   UNK A   0     -10.456   4.974  70.071  1.00  0.00    -0.276 OA 
ENDROOT
BRANCH   2   6
ATOM      6  N   GLU A   1     -10.723   7.026  71.044  1.00  0.00    -0.230 N  
ATOM      7  H   GLU A   1     -10.409   6.715  71.962  1.00  0.00     0.000 HD 
BRANCH   6   8
ATOM      8  CA  GLU A   1     -10.968   8.444  70.815  1.00  0.00    -0.247 C  
ATOM      9  O   GLU A   1      -9.442   9.864  69.586  1.00  0.00    -0.206 OA 
ATOM     10  C   GLU A   1      -9.609   9.136  70.713  1.00  0.00    -0.275 C  
ATOM     11  OXT GLU A   1      -8.749   9.071  71.583  1.00  0.00    -0.331 OA 
BRANCH   8  12
ATOM     12  CB  GLU A   1     -11.786   9.053  71.962  1.00  0.00    -0.426 C  
BRANCH  12  13
ATOM     13  CG  GLU A   1     -13.043   9.762  71.461  1.00  0.00    -0.506 C  
ATOM     14  CD  GLU A   1     -12.903  11.262  71.489  1.00  0.00    -0.414 C  
ATOM     15  OE2 GLU A   1     -13.586  11.990  72.192  1.00  0.00    -0.406 OA 
ATOM     16  OE1 GLU A   1     -11.979  11.740  70.629  1.00  0.00    -0.350 OA 
ENDBRANCH  12  13
ENDBRANCH   8  12
ENDBRANCH   6   8
ENDBRANCH   2   6
TORSDOF 4
ENDMDL
MODEL       94
REMARK 921   NORMALIZED FREE ENERGY PREDICTED BY IDOCK:   -4.15 KCAL/MOL
REMARK 922        TOTAL FREE ENERGY PREDICTED BY IDOCK:   -4.96 KCAL/MOL
REMARK 923 INTER-LIGAND FREE ENERGY PREDICTED BY IDOCK:   -4.37 KCAL/MOL
REMARK 924 INTRA-LIGAND FREE ENERGY PREDICTED BY IDOCK:   -0.59 KCAL/MOL
REMARK 927      BINDING AFFINITY PREDICTED BY RF-SCORE:    0.00 PKD
ROOT
HETATM    1  N   UNK A   0     -13.116  11.104  71.575  1.00  0.00    -0.424 N  
HETATM    2  C   UNK A   0     -13.066   9.792  71.903  1.00  0.00    -0.446 C  
HETATM    3  H2  UNK A   0     -14.017  11.582  71.595  1.00  0.00     0.000 HD 
HETATM    4  H1  UNK A   0     -12.284  11.630  71.308  1.00  0.00     0.000 HD 
HETATM    5  O   UNK A   0     -14.063   9.162  72.223  1.00  0.00    -0.437 OA 
ENDROOT
BRANCH   2   6
ATOM      6  N   GLU A   1     -11.810   9.281  71.847  1.00  0.00    -0.370 N  
ATOM      7  H   GLU A   1     -11.272   9.184  72.707  1.00  0.00     0.000 HD 
BRANCH   6   8
ATOM      8  CA  GLU A   1     -11.217   8.867  70.582  1.00  0.00    -0.266 C  
ATOM      9  O   GLU A   1     -11.508   6.651  69.653  1.00  0.00    -0.338 OA 
ATOM     10  C   GLU A   1     -10.960   7.363  70.664  1.00  0.00    -0.256 C  
ATOM     11  OXT GLU A   1     -10.293   6.837  71.546  1.00  0.00    -0.207 OA 
BRANCH   8  12
ATOM     12  CB  GLU A   1      -9.903   9.614  70.320  1.00  0.00    -0.321 C  
BRANCH  12  13
ATOM     13  CG  GLU A   1      -9.903  10.323  68.966  1.00  0.00    -0.215 C  
ATOM     14  CD  GLU A   1     -11.165  11.111  68.733  1.00  0.00    -0.253 C  
ATOM     15  OE2 GLU A   1     -11.965  10.857  67.846  1.00  0.00    -0.585 OA 
ATOM     16  OE1 GLU A   1     -11.316  12.159  69.570  1.00  0.00    -0.257 OA 
ENDBRANCH  12  13
ENDBRANCH   8  12
ENDBRANCH   6   8
ENDBRANCH   2   6
TORSDOF 4
ENDMDL
MODEL       95
REMARK 921   NORMALIZED FREE ENERGY PREDICTED BY IDOCK:   -4.15 KCAL/MOL
REMARK 922        TOTAL FREE ENERGY PREDICTED BY IDOCK:   -4.96 KCAL/MOL
REMARK 923 INTER-LIGAND FREE ENERGY PREDICTED BY IDOCK:   -4.57 KCAL/MOL
REMARK 924 INTRA-LIGAND FREE ENERGY PREDICTED BY IDOCK:   -0.39 KCAL/MOL
REMARK 927      BINDING AFFINITY PREDICTED BY RF-SCORE:    0.00 PKD
ROOT
HETATM    1  N   UNK A   0     -10.921  10.528  68.949  1.00  0.00    -0.230 N  
HETATM    2  C   UNK A   0     -11.423  11.783  69.004  1.00  0.00    -0.297 C  
HETATM    3  H2  UNK A   0     -10.964   9.944  69.785  1.00  0.00     0.000 HD 
HETATM    4  H1  UNK A   0     -10.502  10.146  68.102  1.00  0.00     0.000 HD 
HETATM    5  O   UNK A   0     -11.927  12.241  70.019  1.00  0.00    -0.327 OA 
ENDROOT
BRANCH   2   6
ATOM      6  N   GLU A   1     -11.314  12.447  67.826  1.00  0.00    -0.277 N  
ATOM      7  H   GLU A   1     -12.140  12.886  67.421  1.00  0.00     0.000 HD 
BRANCH   6   8
ATOM      8  CA  GLU A   1     -10.038  12.547  67.129  1.00  0.00    -0.214 C  
ATOM      9  O   GLU A   1      -7.905  12.513  68.272  1.00  0.00    -0.130 OA 
ATOM     10  C   GLU A   1      -9.045  13.216  68.079  1.00  0.00    -0.207 C  
ATOM     11  OXT GLU A   1      -9.238  14.306  68.603  1.00  0.00    -0.200 OA 
BRANCH   8  12
ATOM     12  CB  GLU A   1     -10.177  13.374  65.843  1.00  0.00    -0.302 C  
BRANCH  12  13
ATOM     13  CG  GLU A   1     -11.400  14.288  65.875  1.00  0.00    -0.328 C  
ATOM     14  CD  GLU A   1     -12.378  13.975  64.772  1.00  0.00    -0.413 C  
ATOM     15  OE2 GLU A   1     -12.654  14.754  63.873  1.00  0.00    -0.834 OA 
ATOM     16  OE1 GLU A   1     -12.961  12.763  64.889  1.00  0.00    -0.805 OA 
ENDBRANCH  12  13
ENDBRANCH   8  12
ENDBRANCH   6   8
ENDBRANCH   2   6
TORSDOF 4
ENDMDL
MODEL       96
REMARK 921   NORMALIZED FREE ENERGY PREDICTED BY IDOCK:   -4.12 KCAL/MOL
REMARK 922        TOTAL FREE ENERGY PREDICTED BY IDOCK:   -4.92 KCAL/MOL
REMARK 923 INTER-LIGAND FREE ENERGY PREDICTED BY IDOCK:   -4.49 KCAL/MOL
REMARK 924 INTRA-LIGAND FREE ENERGY PREDICTED BY IDOCK:   -0.43 KCAL/MOL
REMARK 927      BINDING AFFINITY PREDICTED BY RF-SCORE:    0.00 PKD
ROOT
HETATM    1  N   UNK A   0     -11.944  11.569  63.082  1.00  0.00    -0.917 N  
HETATM    2  C   UNK A   0     -10.759  12.145  63.387  1.00  0.00    -0.409 C  
HETATM    3  H2  UNK A   0     -11.956  10.781  62.433  1.00  0.00     0.000 HD 
HETATM    4  H1  UNK A   0     -12.826  11.894  63.478  1.00  0.00     0.000 HD 
HETATM    5  O   UNK A   0      -9.702  11.754  62.913  1.00  0.00    -0.357 OA 
ENDROOT
BRANCH   2   6
ATOM      6  N   GLU A   1     -10.882  13.171  64.266  1.00  0.00    -0.394 N  
ATOM      7  H   GLU A   1     -11.185  14.084  63.928  1.00  0.00     0.000 HD 
BRANCH   6   8
ATOM      8  CA  GLU A   1     -10.589  12.995  65.682  1.00  0.00    -0.282 C  
ATOM      9  O   GLU A   1     -12.270  12.368  67.307  1.00  0.00    -0.478 OA 
ATOM     10  C   GLU A   1     -11.858  13.340  66.462  1.00  0.00    -0.398 C  
ATOM     11  OXT GLU A   1     -12.444  14.410  66.361  1.00  0.00    -0.389 OA 
BRANCH   8  12
ATOM     12  CB  GLU A   1      -9.434  13.904  66.124  1.00  0.00    -0.194 C  
BRANCH  12  13
ATOM     13  CG  GLU A   1      -8.979  13.606  67.551  1.00  0.00    -0.209 C  
ATOM     14  CD  GLU A   1      -8.455  12.202  67.703  1.00  0.00    -0.163 C  
ATOM     15  OE2 GLU A   1      -8.983  11.357  68.410  1.00  0.00    -0.162 OA 
ATOM     16  OE1 GLU A   1      -7.317  11.967  67.016  1.00  0.00    -0.143 OA 
ENDBRANCH  12  13
ENDBRANCH   8  12
ENDBRANCH   6   8
ENDBRANCH   2   6
TORSDOF 4
ENDMDL
MODEL       97
REMARK 921   NORMALIZED FREE ENERGY PREDICTED BY IDOCK:   -4.12 KCAL/MOL
REMARK 922        TOTAL FREE ENERGY PREDICTED BY IDOCK:   -4.92 KCAL/MOL
REMARK 923 INTER-LIGAND FREE ENERGY PREDICTED BY IDOCK:   -4.54 KCAL/MOL
REMARK 924 INTRA-LIGAND FREE ENERGY PREDICTED BY IDOCK:   -0.38 KCAL/MOL
REMARK 927      BINDING AFFINITY PREDICTED BY RF-SCORE:    0.00 PKD
ROOT
HETATM    1  N   UNK A   0     -10.551  19.847  65.635  1.00  0.00    -0.438 N  
HETATM    2  C   UNK A   0      -9.592  19.415  66.486  1.00  0.00    -0.370 C  
HETATM    3  H2  UNK A   0     -10.993  20.750  65.809  1.00  0.00     0.000 HD 
HETATM    4  H1  UNK A   0     -10.846  19.302  64.825  1.00  0.00     0.000 HD 
HETATM    5  O   UNK A   0      -9.238  20.068  67.456  1.00  0.00    -0.336 OA 
ENDROOT
BRANCH   2   6
ATOM      6  N   GLU A   1      -9.080  18.208  66.136  1.00  0.00    -0.179 N  
ATOM      7  H   GLU A   1      -8.207  18.170  65.610  1.00  0.00     0.000 HD 
BRANCH   6   8
ATOM      8  CA  GLU A   1      -9.752  16.966  66.496  1.00  0.00    -0.281 C  
ATOM      9  O   GLU A   1     -10.105  15.157  64.928  1.00  0.00    -0.300 OA 
ATOM     10  C   GLU A   1     -10.436  16.431  65.239  1.00  0.00    -0.261 C  
ATOM     11  OXT GLU A   1     -11.239  17.078  64.577  1.00  0.00    -1.091 OA 
BRANCH   8  12
ATOM     12  CB  GLU A   1     -10.789  17.202  67.602  1.00  0.00    -0.241 C  
BRANCH  12  13
ATOM     13  CG  GLU A   1     -11.397  15.896  68.110  1.00  0.00    -0.311 C  
ATOM     14  CD  GLU A   1     -10.359  14.969  68.688  1.00  0.00    -0.236 C  
ATOM     15  OE2 GLU A   1     -10.090  13.877  68.213  1.00  0.00    -0.228 OA 
ATOM     16  OE1 GLU A   1      -9.777  15.435  69.814  1.00  0.00    -0.272 OA 
ENDBRANCH  12  13
ENDBRANCH   8  12
ENDBRANCH   6   8
ENDBRANCH   2   6
TORSDOF 4
ENDMDL
MODEL       98
REMARK 921   NORMALIZED FREE ENERGY PREDICTED BY IDOCK:   -4.11 KCAL/MOL
REMARK 922        TOTAL FREE ENERGY PREDICTED BY IDOCK:   -4.92 KCAL/MOL
REMARK 923 INTER-LIGAND FREE ENERGY PREDICTED BY IDOCK:   -4.35 KCAL/MOL
REMARK 924 INTRA-LIGAND FREE ENERGY PREDICTED BY IDOCK:   -0.57 KCAL/MOL
REMARK 927      BINDING AFFINITY PREDICTED BY RF-SCORE:    0.00 PKD
ROOT
HETATM    1  N   UNK A   0     -11.138   9.424  67.792  1.00  0.00    -0.487 N  
HETATM    2  C   UNK A   0     -11.235  10.635  68.387  1.00  0.00    -0.288 C  
HETATM    3  H2  UNK A   0     -10.502   9.313  67.002  1.00  0.00     0.000 HD 
HETATM    4  H1  UNK A   0     -11.679   8.619  68.107  1.00  0.00     0.000 HD 
HETATM    5  O   UNK A   0     -10.587  11.600  68.010  1.00  0.00    -0.189 OA 
ENDROOT
BRANCH   2   6
ATOM      6  N   GLU A   1     -12.105  10.645  69.428  1.00  0.00    -0.521 N  
ATOM      7  H   GLU A   1     -12.801  11.388  69.490  1.00  0.00     0.000 HD 
BRANCH   6   8
ATOM      8  CA  GLU A   1     -12.065   9.615  70.457  1.00  0.00    -0.129 C  
ATOM      9  O   GLU A   1     -14.014   8.946  71.727  1.00  0.00    -0.397 OA 
ATOM     10  C   GLU A   1     -13.143   9.952  71.488  1.00  0.00    -0.418 C  
ATOM     11  OXT GLU A   1     -13.205  11.025  72.075  1.00  0.00    -0.499 OA 
BRANCH   8  12
ATOM     12  CB  GLU A   1     -10.688   9.562  71.131  1.00  0.00    -0.408 C  
BRANCH  12  13
ATOM     13  CG  GLU A   1     -10.340   8.159  71.623  1.00  0.00    -0.284 C  
ATOM     14  CD  GLU A   1     -10.666   7.098  70.604  1.00  0.00    -0.235 C  
ATOM     15  OE2 GLU A   1     -11.502   6.226  70.781  1.00  0.00    -0.333 OA 
ATOM     16  OE1 GLU A   1      -9.917   7.170  69.483  1.00  0.00    -0.161 OA 
ENDBRANCH  12  13
ENDBRANCH   8  12
ENDBRANCH   6   8
ENDBRANCH   2   6
TORSDOF 4
ENDMDL
MODEL       99
REMARK 921   NORMALIZED FREE ENERGY PREDICTED BY IDOCK:   -4.11 KCAL/MOL
REMARK 922        TOTAL FREE ENERGY PREDICTED BY IDOCK:   -4.92 KCAL/MOL
REMARK 923 INTER-LIGAND FREE ENERGY PREDICTED BY IDOCK:   -4.62 KCAL/MOL
REMARK 924 INTRA-LIGAND FREE ENERGY PREDICTED BY IDOCK:   -0.30 KCAL/MOL
REMARK 927      BINDING AFFINITY PREDICTED BY RF-SCORE:    0.00 PKD
ROOT
HETATM    1  N   UNK A   0     -11.308  14.997  65.650  1.00  0.00    -0.330 N  
HETATM    2  C   UNK A   0     -10.826  16.168  65.177  1.00  0.00    -0.361 C  
HETATM    3  H2  UNK A   0     -12.105  14.567  65.181  1.00  0.00     0.000 HD 
HETATM    4  H1  UNK A   0     -10.902  14.529  66.460  1.00  0.00     0.000 HD 
HETATM    5  O   UNK A   0     -11.312  16.729  64.206  1.00  0.00    -1.170 OA 
ENDROOT
BRANCH   2   6
ATOM      6  N   GLU A   1      -9.761  16.625  65.883  1.00  0.00    -0.272 N  
ATOM      7  H   GLU A   1      -8.819  16.361  65.593  1.00  0.00     0.000 HD 
BRANCH   6   8
ATOM      8  CA  GLU A   1      -9.936  17.486  67.045  1.00  0.00    -0.311 C  
ATOM      9  O   GLU A   1     -11.161  19.572  66.968  1.00  0.00    -0.424 OA 
ATOM     10  C   GLU A   1     -10.053  18.924  66.541  1.00  0.00    -0.398 C  
ATOM     11  OXT GLU A   1      -9.211  19.465  65.835  1.00  0.00    -0.423 OA 
BRANCH   8  12
ATOM     12  CB  GLU A   1      -8.747  17.359  68.008  1.00  0.00    -0.241 C  
BRANCH  12  13
ATOM     13  CG  GLU A   1      -8.800  16.067  68.821  1.00  0.00    -0.227 C  
ATOM     14  CD  GLU A   1      -7.445  15.422  68.957  1.00  0.00    -0.165 C  
ATOM     15  OE2 GLU A   1      -7.168  14.328  68.491  1.00  0.00    -0.102 OA 
ATOM     16  OE1 GLU A   1      -6.567  16.146  69.684  1.00  0.00    -0.199 OA 
ENDBRANCH  12  13
ENDBRANCH   8  12
ENDBRANCH   6   8
ENDBRANCH   2   6
TORSDOF 4
ENDMDL
MODEL      100
REMARK 921   NORMALIZED FREE ENERGY PREDICTED BY IDOCK:   -4.11 KCAL/MOL
REMARK 922        TOTAL FREE ENERGY PREDICTED BY IDOCK:   -4.91 KCAL/MOL
REMARK 923 INTER-LIGAND FREE ENERGY PREDICTED BY IDOCK:   -4.84 KCAL/MOL
REMARK 924 INTRA-LIGAND FREE ENERGY PREDICTED BY IDOCK:   -0.07 KCAL/MOL
REMARK 927      BINDING AFFINITY PREDICTED BY RF-SCORE:    0.00 PKD
ROOT
HETATM    1  N   UNK A   0     -11.462  11.609  69.826  1.00  0.00    -0.416 N  
HETATM    2  C   UNK A   0     -12.457  11.254  70.671  1.00  0.00    -0.348 C  
HETATM    3  H2  UNK A   0     -10.989  12.501  69.969  1.00  0.00     0.000 HD 
HETATM    4  H1  UNK A   0     -11.169  11.014  69.051  1.00  0.00     0.000 HD 
HETATM    5  O   UNK A   0     -12.809  11.967  71.600  1.00  0.00    -0.374 OA 
ENDROOT
BRANCH   2   6
ATOM      6  N   GLU A   1     -12.994  10.043  70.377  1.00  0.00    -0.585 N  
ATOM      7  H   GLU A   1     -13.678   9.969  69.625  1.00  0.00     0.000 HD 
BRANCH   6   8
ATOM      8  CA  GLU A   1     -12.610   8.846  71.115  1.00  0.00    -0.185 C  
ATOM      9  O   GLU A   1     -14.189   7.119  71.735  1.00  0.00    -0.406 OA 
ATOM     10  C   GLU A   1     -13.820   8.405  71.938  1.00  0.00    -0.408 C  
ATOM     11  OXT GLU A   1     -14.397   9.132  72.737  1.00  0.00    -0.563 OA 
BRANCH   8  12
ATOM     12  CB  GLU A   1     -11.417   9.127  72.038  1.00  0.00    -0.351 C  
BRANCH  12  13
ATOM     13  CG  GLU A   1     -10.219   8.235  71.718  1.00  0.00    -0.297 C  
ATOM     14  CD  GLU A   1      -9.294   8.075  72.896  1.00  0.00    -0.271 C  
ATOM     15  OE2 GLU A   1      -8.140   8.476  72.908  1.00  0.00    -0.341 OA 
ATOM     16  OE1 GLU A   1      -9.841   7.406  73.933  1.00  0.00    -0.294 OA 
ENDBRANCH  12  13
ENDBRANCH   8  12
ENDBRANCH   6   8
ENDBRANCH   2   6
TORSDOF 4
ENDMDL
MODEL      101
REMARK 921   NORMALIZED FREE ENERGY PREDICTED BY IDOCK:   -4.11 KCAL/MOL
REMARK 922        TOTAL FREE ENERGY PREDICTED BY IDOCK:   -4.91 KCAL/MOL
REMARK 923 INTER-LIGAND FREE ENERGY PREDICTED BY IDOCK:   -4.63 KCAL/MOL
REMARK 924 INTRA-LIGAND FREE ENERGY PREDICTED BY IDOCK:   -0.28 KCAL/MOL
REMARK 927      BINDING AFFINITY PREDICTED BY RF-SCORE:    0.00 PKD
ROOT
HETATM    1  N   UNK A   0      -7.203  14.399  67.266  1.00  0.00    -0.283 N  
HETATM    2  C   UNK A   0      -7.455  15.713  67.063  1.00  0.00    -0.193 C  
HETATM    3  H2  UNK A   0      -6.234  14.081  67.287  1.00  0.00     0.000 HD 
HETATM    4  H1  UNK A   0      -7.949  13.716  67.398  1.00  0.00     0.000 HD 
HETATM    5  O   UNK A   0      -6.561  16.531  66.905  1.00  0.00    -0.186 OA 
ENDROOT
BRANCH   2   6
ATOM      6  N   GLU A   1      -8.780  16.004  67.068  1.00  0.00    -0.195 N  
ATOM      7  H   GLU A   1      -9.367  15.647  67.822  1.00  0.00     0.000 HD 
BRANCH   6   8
ATOM      8  CA  GLU A   1      -9.381  16.815  66.017  1.00  0.00    -0.210 C  
ATOM      9  O   GLU A   1      -9.058  19.208  65.853  1.00  0.00    -0.436 OA 
ATOM     10  C   GLU A   1      -9.607  18.215  66.588  1.00  0.00    -0.306 C  
ATOM     11  OXT GLU A   1     -10.252  18.434  67.606  1.00  0.00    -0.341 OA 
BRANCH   8  12
ATOM     12  CB  GLU A   1     -10.714  16.213  65.552  1.00  0.00    -0.355 C  
BRANCH  12  13
ATOM     13  CG  GLU A   1     -10.554  14.781  65.044  1.00  0.00    -0.452 C  
ATOM     14  CD  GLU A   1     -11.879  14.125  64.754  1.00  0.00    -0.417 C  
ATOM     15  OE2 GLU A   1     -12.296  13.150  65.360  1.00  0.00    -0.433 OA 
ATOM     16  OE1 GLU A   1     -12.553  14.687  63.728  1.00  0.00    -0.820 OA 
ENDBRANCH  12  13
ENDBRANCH   8  12
ENDBRANCH   6   8
ENDBRANCH   2   6
TORSDOF 4
ENDMDL
MODEL      102
REMARK 921   NORMALIZED FREE ENERGY PREDICTED BY IDOCK:   -4.10 KCAL/MOL
REMARK 922        TOTAL FREE ENERGY PREDICTED BY IDOCK:   -4.90 KCAL/MOL
REMARK 923 INTER-LIGAND FREE ENERGY PREDICTED BY IDOCK:   -4.60 KCAL/MOL
REMARK 924 INTRA-LIGAND FREE ENERGY PREDICTED BY IDOCK:   -0.30 KCAL/MOL
REMARK 927      BINDING AFFINITY PREDICTED BY RF-SCORE:    0.00 PKD
ROOT
HETATM    1  N   UNK A   0     -11.562  13.788  66.237  1.00  0.00    -0.336 N  
HETATM    2  C   UNK A   0     -10.834  14.928  66.225  1.00  0.00    -0.331 C  
HETATM    3  H2  UNK A   0     -11.914  13.419  65.353  1.00  0.00     0.000 HD 
HETATM    4  H1  UNK A   0     -11.771  13.283  67.098  1.00  0.00     0.000 HD 
HETATM    5  O   UNK A   0     -10.584  15.532  65.193  1.00  0.00    -0.394 OA 
ENDROOT
BRANCH   2   6
ATOM      6  N   GLU A   1     -10.419  15.301  67.462  1.00  0.00    -0.260 N  
ATOM      7  H   GLU A   1      -9.633  14.814  67.893  1.00  0.00     0.000 HD 
BRANCH   6   8
ATOM      8  CA  GLU A   1     -11.071  16.385  68.185  1.00  0.00    -0.320 C  
ATOM      9  O   GLU A   1     -10.716  18.721  67.661  1.00  0.00    -0.429 OA 
ATOM     10  C   GLU A   1     -10.140  17.595  68.141  1.00  0.00    -0.347 C  
ATOM     11  OXT GLU A   1      -8.979  17.571  68.531  1.00  0.00    -0.271 OA 
BRANCH   8  12
ATOM     12  CB  GLU A   1     -11.351  15.985  69.640  1.00  0.00    -0.332 C  
BRANCH  12  13
ATOM     13  CG  GLU A   1     -12.256  14.758  69.737  1.00  0.00    -0.337 C  
ATOM     14  CD  GLU A   1     -12.943  14.659  71.075  1.00  0.00    -0.356 C  
ATOM     15  OE2 GLU A   1     -12.752  13.748  71.866  1.00  0.00    -0.311 OA 
ATOM     16  OE1 GLU A   1     -13.830  15.650  71.307  1.00  0.00    -0.573 OA 
ENDBRANCH  12  13
ENDBRANCH   8  12
ENDBRANCH   6   8
ENDBRANCH   2   6
TORSDOF 4
ENDMDL
MODEL      103
REMARK 921   NORMALIZED FREE ENERGY PREDICTED BY IDOCK:   -4.10 KCAL/MOL
REMARK 922        TOTAL FREE ENERGY PREDICTED BY IDOCK:   -4.90 KCAL/MOL
REMARK 923 INTER-LIGAND FREE ENERGY PREDICTED BY IDOCK:   -4.61 KCAL/MOL
REMARK 924 INTRA-LIGAND FREE ENERGY PREDICTED BY IDOCK:   -0.29 KCAL/MOL
REMARK 927      BINDING AFFINITY PREDICTED BY RF-SCORE:    0.00 PKD
ROOT
HETATM    1  N   UNK A   0     -11.363   6.375  67.978  1.00  0.00    -0.599 N  
HETATM    2  C   UNK A   0     -11.285   6.462  69.325  1.00  0.00    -0.375 C  
HETATM    3  H2  UNK A   0     -11.229   5.465  67.535  1.00  0.00     0.000 HD 
HETATM    4  H1  UNK A   0     -11.550   7.187  67.390  1.00  0.00     0.000 HD 
HETATM    5  O   UNK A   0     -11.060   5.489  70.030  1.00  0.00    -0.256 OA 
ENDROOT
BRANCH   2   6
ATOM      6  N   GLU A   1     -11.492   7.722  69.786  1.00  0.00    -0.444 N  
ATOM      7  H   GLU A   1     -12.308   8.243  69.466  1.00  0.00     0.000 HD 
BRANCH   6   8
ATOM      8  CA  GLU A   1     -10.572   8.344  70.729  1.00  0.00    -0.207 C  
ATOM      9  O   GLU A   1     -10.675   7.962  73.117  1.00  0.00    -0.368 OA 
ATOM     10  C   GLU A   1     -11.313   8.507  72.056  1.00  0.00    -0.355 C  
ATOM     11  OXT GLU A   1     -12.377   9.102  72.168  1.00  0.00    -0.369 OA 
BRANCH   8  12
ATOM     12  CB  GLU A   1     -10.099   9.711  70.217  1.00  0.00    -0.331 C  
BRANCH  12  13
ATOM     13  CG  GLU A   1     -10.362   9.889  68.722  1.00  0.00    -0.222 C  
ATOM     14  CD  GLU A   1     -11.015  11.210  68.410  1.00  0.00    -0.227 C  
ATOM     15  OE2 GLU A   1     -12.136  11.314  67.936  1.00  0.00    -0.634 OA 
ATOM     16  OE1 GLU A   1     -10.230  12.279  68.661  1.00  0.00    -0.219 OA 
ENDBRANCH  12  13
ENDBRANCH   8  12
ENDBRANCH   6   8
ENDBRANCH   2   6
TORSDOF 4
ENDMDL
MODEL      104
REMARK 921   NORMALIZED FREE ENERGY PREDICTED BY IDOCK:   -4.09 KCAL/MOL
REMARK 922        TOTAL FREE ENERGY PREDICTED BY IDOCK:   -4.89 KCAL/MOL
REMARK 923 INTER-LIGAND FREE ENERGY PREDICTED BY IDOCK:   -4.95 KCAL/MOL
REMARK 924 INTRA-LIGAND FREE ENERGY PREDICTED BY IDOCK:    0.05 KCAL/MOL
REMARK 927      BINDING AFFINITY PREDICTED BY RF-SCORE:    0.00 PKD
ROOT
HETATM    1  N   UNK A   0     -13.548  15.490  70.526  1.00  0.00    -0.825 N  
HETATM    2  C   UNK A   0     -12.339  14.947  70.255  1.00  0.00    -0.341 C  
HETATM    3  H2  UNK A   0     -13.733  15.835  71.468  1.00  0.00     0.000 HD 
HETATM    4  H1  UNK A   0     -14.280  15.567  69.820  1.00  0.00     0.000 HD 
HETATM    5  O   UNK A   0     -11.461  14.855  71.101  1.00  0.00    -0.309 OA 
ENDROOT
BRANCH   2   6
ATOM      6  N   GLU A   1     -12.219  14.540  68.967  1.00  0.00    -0.553 N  
ATOM      7  H   GLU A   1     -12.467  13.581  68.721  1.00  0.00     0.000 HD 
BRANCH   6   8
ATOM      8  CA  GLU A   1     -11.744  15.443  67.927  1.00  0.00    -0.184 C  
ATOM      9  O   GLU A   1     -11.100  14.689  65.719  1.00  0.00    -0.317 OA 
ATOM     10  C   GLU A   1     -10.786  14.655  67.034  1.00  0.00    -0.290 C  
ATOM     11  OXT GLU A   1      -9.799  14.065  67.455  1.00  0.00    -0.229 OA 
BRANCH   8  12
ATOM     12  CB  GLU A   1     -11.023  16.653  68.537  1.00  0.00    -0.339 C  
BRANCH  12  13
ATOM     13  CG  GLU A   1     -10.127  17.361  67.522  1.00  0.00    -0.322 C  
ATOM     14  CD  GLU A   1     -10.479  18.818  67.366  1.00  0.00    -0.431 C  
ATOM     15  OE2 GLU A   1     -10.899  19.303  66.327  1.00  0.00    -0.383 OA 
ATOM     16  OE1 GLU A   1     -10.248  19.557  68.472  1.00  0.00    -0.425 OA 
ENDBRANCH  12  13
ENDBRANCH   8  12
ENDBRANCH   6   8
ENDBRANCH   2   6
TORSDOF 4
ENDMDL
MODEL      105
REMARK 921   NORMALIZED FREE ENERGY PREDICTED BY IDOCK:   -4.09 KCAL/MOL
REMARK 922        TOTAL FREE ENERGY PREDICTED BY IDOCK:   -4.89 KCAL/MOL
REMARK 923 INTER-LIGAND FREE ENERGY PREDICTED BY IDOCK:   -4.61 KCAL/MOL
REMARK 924 INTRA-LIGAND FREE ENERGY PREDICTED BY IDOCK:   -0.27 KCAL/MOL
REMARK 927      BINDING AFFINITY PREDICTED BY RF-SCORE:    0.00 PKD
ROOT
HETATM    1  N   UNK A   0     -10.453  17.400  67.178  1.00  0.00    -0.327 N  
HETATM    2  C   UNK A   0     -10.568  16.719  68.341  1.00  0.00    -0.354 C  
HETATM    3  H2  UNK A   0      -9.765  18.151  67.113  1.00  0.00     0.000 HD 
HETATM    4  H1  UNK A   0     -11.030  17.189  66.364  1.00  0.00     0.000 HD 
HETATM    5  O   UNK A   0      -9.876  16.972  69.316  1.00  0.00    -0.222 OA 
ENDROOT
BRANCH   2   6
ATOM      6  N   GLU A   1     -11.508  15.742  68.290  1.00  0.00    -0.360 N  
ATOM      7  H   GLU A   1     -12.471  15.988  68.059  1.00  0.00     0.000 HD 
BRANCH   6   8
ATOM      8  CA  GLU A   1     -11.171  14.351  68.560  1.00  0.00    -0.265 C  
ATOM      9  O   GLU A   1     -10.253  12.869  66.881  1.00  0.00    -0.237 OA 
ATOM     10  C   GLU A   1     -11.345  13.574  67.255  1.00  0.00    -0.315 C  
ATOM     11  OXT GLU A   1     -12.386  13.557  66.611  1.00  0.00    -0.376 OA 
BRANCH   8  12
ATOM     12  CB  GLU A   1     -12.079  13.765  69.649  1.00  0.00    -0.392 C  
BRANCH  12  13
ATOM     13  CG  GLU A   1     -12.062  14.603  70.926  1.00  0.00    -0.393 C  
ATOM     14  CD  GLU A   1     -13.332  14.457  71.724  1.00  0.00    -0.366 C  
ATOM     15  OE2 GLU A   1     -14.109  15.376  71.930  1.00  0.00    -0.490 OA 
ATOM     16  OE1 GLU A   1     -13.518  13.220  72.231  1.00  0.00    -0.516 OA 
ENDBRANCH  12  13
ENDBRANCH   8  12
ENDBRANCH   6   8
ENDBRANCH   2   6
TORSDOF 4
ENDMDL
MODEL      106
REMARK 921   NORMALIZED FREE ENERGY PREDICTED BY IDOCK:   -4.08 KCAL/MOL
REMARK 922        TOTAL FREE ENERGY PREDICTED BY IDOCK:   -4.88 KCAL/MOL
REMARK 923 INTER-LIGAND FREE ENERGY PREDICTED BY IDOCK:   -4.52 KCAL/MOL
REMARK 924 INTRA-LIGAND FREE ENERGY PREDICTED BY IDOCK:   -0.36 KCAL/MOL
REMARK 927      BINDING AFFINITY PREDICTED BY RF-SCORE:    0.00 PKD
ROOT
HETATM    1  N   UNK A   0     -13.274  11.309  72.010  1.00  0.00    -0.542 N  
HETATM    2  C   UNK A   0     -13.061  12.623  71.769  1.00  0.00    -0.360 C  
HETATM    3  H2  UNK A   0     -14.029  11.041  72.642  1.00  0.00     0.000 HD 
HETATM    4  H1  UNK A   0     -12.707  10.578  71.582  1.00  0.00     0.000 HD 
HETATM    5  O   UNK A   0     -13.741  13.499  72.282  1.00  0.00    -0.516 OA 
ENDROOT
BRANCH   2   6
ATOM      6  N   GLU A   1     -12.037  12.842  70.905  1.00  0.00    -0.446 N  
ATOM      7  H   GLU A   1     -11.078  12.798  71.247  1.00  0.00     0.000 HD 
BRANCH   6   8
ATOM      8  CA  GLU A   1     -12.282  13.137  69.500  1.00  0.00    -0.158 C  
ATOM      9  O   GLU A   1     -12.071  11.480  67.749  1.00  0.00    -0.626 OA 
ATOM     10  C   GLU A   1     -11.399  12.204  68.672  1.00  0.00    -0.280 C  
ATOM     11  OXT GLU A   1     -10.183  12.130  68.802  1.00  0.00    -0.201 OA 
BRANCH   8  12
ATOM     12  CB  GLU A   1     -11.950  14.601  69.179  1.00  0.00    -0.329 C  
BRANCH  12  13
ATOM     13  CG  GLU A   1     -10.961  15.200  70.177  1.00  0.00    -0.277 C  
ATOM     14  CD  GLU A   1      -9.756  15.799  69.500  1.00  0.00    -0.276 C  
ATOM     15  OE2 GLU A   1      -8.619  15.378  69.649  1.00  0.00    -0.249 OA 
ATOM     16  OE1 GLU A   1     -10.038  16.878  68.740  1.00  0.00    -0.261 OA 
ENDBRANCH  12  13
ENDBRANCH   8  12
ENDBRANCH   6   8
ENDBRANCH   2   6
TORSDOF 4
ENDMDL
MODEL      107
REMARK 921   NORMALIZED FREE ENERGY PREDICTED BY IDOCK:   -4.07 KCAL/MOL
REMARK 922        TOTAL FREE ENERGY PREDICTED BY IDOCK:   -4.86 KCAL/MOL
REMARK 923 INTER-LIGAND FREE ENERGY PREDICTED BY IDOCK:   -4.45 KCAL/MOL
REMARK 924 INTRA-LIGAND FREE ENERGY PREDICTED BY IDOCK:   -0.42 KCAL/MOL
REMARK 927      BINDING AFFINITY PREDICTED BY RF-SCORE:    0.00 PKD
ROOT
HETATM    1  N   UNK A   0     -12.289  13.186  65.229  1.00  0.00    -0.457 N  
HETATM    2  C   UNK A   0     -11.189  13.783  64.716  1.00  0.00    -0.366 C  
HETATM    3  H2  UNK A   0     -12.387  12.174  65.141  1.00  0.00     0.000 HD 
HETATM    4  H1  UNK A   0     -13.023  13.713  65.702  1.00  0.00     0.000 HD 
HETATM    5  O   UNK A   0     -10.308  13.152  64.150  1.00  0.00    -0.421 OA 
ENDROOT
BRANCH   2   6
ATOM      6  N   GLU A   1     -11.177  15.125  64.910  1.00  0.00    -0.443 N  
ATOM      7  H   GLU A   1     -11.812  15.713  64.371  1.00  0.00     0.000 HD 
BRANCH   6   8
ATOM      8  CA  GLU A   1     -10.276  15.743  65.874  1.00  0.00    -0.355 C  
ATOM      9  O   GLU A   1      -9.554  14.635  67.901  1.00  0.00    -0.206 OA 
ATOM     10  C   GLU A   1     -10.612  15.172  67.251  1.00  0.00    -0.286 C  
ATOM     11  OXT GLU A   1     -11.730  15.215  67.748  1.00  0.00    -0.331 OA 
BRANCH   8  12
ATOM     12  CB  GLU A   1     -10.440  17.269  65.882  1.00  0.00    -0.267 C  
BRANCH  12  13
ATOM     13  CG  GLU A   1      -9.230  17.976  66.489  1.00  0.00    -0.286 C  
ATOM     14  CD  GLU A   1      -9.626  19.024  67.497  1.00  0.00    -0.305 C  
ATOM     15  OE2 GLU A   1      -9.406  20.217  67.353  1.00  0.00    -0.348 OA 
ATOM     16  OE1 GLU A   1     -10.212  18.521  68.605  1.00  0.00    -0.377 OA 
ENDBRANCH  12  13
ENDBRANCH   8  12
ENDBRANCH   6   8
ENDBRANCH   2   6
TORSDOF 4
ENDMDL
MODEL      108
REMARK 921   NORMALIZED FREE ENERGY PREDICTED BY IDOCK:   -4.05 KCAL/MOL
REMARK 922        TOTAL FREE ENERGY PREDICTED BY IDOCK:   -4.84 KCAL/MOL
REMARK 923 INTER-LIGAND FREE ENERGY PREDICTED BY IDOCK:   -4.38 KCAL/MOL
REMARK 924 INTRA-LIGAND FREE ENERGY PREDICTED BY IDOCK:   -0.46 KCAL/MOL
REMARK 927      BINDING AFFINITY PREDICTED BY RF-SCORE:    0.00 PKD
ROOT
HETATM    1  N   UNK A   0      -9.305  12.872  68.609  1.00  0.00    -0.408 N  
HETATM    2  C   UNK A   0     -10.492  13.520  68.607  1.00  0.00    -0.232 C  
HETATM    3  H2  UNK A   0      -8.885  12.610  67.717  1.00  0.00     0.000 HD 
HETATM    4  H1  UNK A   0      -8.814  12.638  69.472  1.00  0.00     0.000 HD 
HETATM    5  O   UNK A   0     -11.080  13.802  67.573  1.00  0.00    -0.267 OA 
ENDROOT
BRANCH   2   6
ATOM      6  N   GLU A   1     -10.932  13.820  69.855  1.00  0.00    -0.446 N  
ATOM      7  H   GLU A   1     -10.309  14.302  70.502  1.00  0.00     0.000 HD 
BRANCH   6   8
ATOM      8  CA  GLU A   1     -12.279  13.469  70.287  1.00  0.00    -0.347 C  
ATOM      9  O   GLU A   1     -13.916  15.117  70.967  1.00  0.00    -0.402 OA 
ATOM     10  C   GLU A   1     -12.736  14.536  71.282  1.00  0.00    -0.342 C  
ATOM     11  OXT GLU A   1     -12.113  14.828  72.295  1.00  0.00    -0.332 OA 
BRANCH   8  12
ATOM     12  CB  GLU A   1     -12.300  12.085  70.950  1.00  0.00    -0.384 C  
BRANCH  12  13
ATOM     13  CG  GLU A   1     -12.221  10.955  69.926  1.00  0.00    -0.408 C  
ATOM     14  CD  GLU A   1     -11.015  10.076  70.136  1.00  0.00    -0.310 C  
ATOM     15  OE2 GLU A   1     -10.107   9.971  69.326  1.00  0.00    -0.188 OA 
ATOM     16  OE1 GLU A   1     -11.045   9.375  71.290  1.00  0.00    -0.319 OA 
ENDBRANCH  12  13
ENDBRANCH   8  12
ENDBRANCH   6   8
ENDBRANCH   2   6
TORSDOF 4
ENDMDL
MODEL      109
REMARK 921   NORMALIZED FREE ENERGY PREDICTED BY IDOCK:   -4.04 KCAL/MOL
REMARK 922        TOTAL FREE ENERGY PREDICTED BY IDOCK:   -4.83 KCAL/MOL
REMARK 923 INTER-LIGAND FREE ENERGY PREDICTED BY IDOCK:   -4.43 KCAL/MOL
REMARK 924 INTRA-LIGAND FREE ENERGY PREDICTED BY IDOCK:   -0.40 KCAL/MOL
REMARK 927      BINDING AFFINITY PREDICTED BY RF-SCORE:    0.00 PKD
ROOT
HETATM    1  N   UNK A   0      -9.456  11.535  68.832  1.00  0.00    -0.399 N  
HETATM    2  C   UNK A   0     -10.383  12.455  68.481  1.00  0.00    -0.221 C  
HETATM    3  H2  UNK A   0      -9.757  10.701  69.338  1.00  0.00     0.000 HD 
HETATM    4  H1  UNK A   0      -8.467  11.645  68.608  1.00  0.00     0.000 HD 
HETATM    5  O   UNK A   0     -11.568  12.323  68.749  1.00  0.00    -0.281 OA 
ENDROOT
BRANCH   2   6
ATOM      6  N   GLU A   1      -9.854  13.506  67.805  1.00  0.00    -0.227 N  
ATOM      7  H   GLU A   1      -8.846  13.548  67.656  1.00  0.00     0.000 HD 
BRANCH   6   8
ATOM      8  CA  GLU A   1     -10.698  14.576  67.288  1.00  0.00    -0.287 C  
ATOM      9  O   GLU A   1     -12.466  14.198  65.678  1.00  0.00    -0.457 OA 
ATOM     10  C   GLU A   1     -11.128  14.182  65.875  1.00  0.00    -0.306 C  
ATOM     11  OXT GLU A   1     -10.339  13.902  64.981  1.00  0.00    -0.370 OA 
BRANCH   8  12
ATOM     12  CB  GLU A   1      -9.939  15.909  67.256  1.00  0.00    -0.240 C  
BRANCH  12  13
ATOM     13  CG  GLU A   1     -10.883  17.109  67.211  1.00  0.00    -0.118 C  
ATOM     14  CD  GLU A   1     -10.632  17.989  66.014  1.00  0.00    -0.251 C  
ATOM     15  OE2 GLU A   1     -10.248  19.146  66.095  1.00  0.00    -0.415 OA 
ATOM     16  OE1 GLU A   1     -10.913  17.397  64.833  1.00  0.00    -0.862 OA 
ENDBRANCH  12  13
ENDBRANCH   8  12
ENDBRANCH   6   8
ENDBRANCH   2   6
TORSDOF 4
ENDMDL
MODEL      110
REMARK 921   NORMALIZED FREE ENERGY PREDICTED BY IDOCK:   -4.04 KCAL/MOL
REMARK 922        TOTAL FREE ENERGY PREDICTED BY IDOCK:   -4.83 KCAL/MOL
REMARK 923 INTER-LIGAND FREE ENERGY PREDICTED BY IDOCK:   -4.58 KCAL/MOL
REMARK 924 INTRA-LIGAND FREE ENERGY PREDICTED BY IDOCK:   -0.25 KCAL/MOL
REMARK 927      BINDING AFFINITY PREDICTED BY RF-SCORE:    0.00 PKD
ROOT
HETATM    1  N   UNK A   0     -10.818  14.613  65.585  1.00  0.00    -0.315 N  
HETATM    2  C   UNK A   0     -12.106  14.282  65.831  1.00  0.00    -0.404 C  
HETATM    3  H2  UNK A   0     -10.497  14.660  64.618  1.00  0.00     0.000 HD 
HETATM    4  H1  UNK A   0     -10.156  14.819  66.334  1.00  0.00     0.000 HD 
HETATM    5  O   UNK A   0     -12.899  14.036  64.934  1.00  0.00    -0.692 OA 
ENDROOT
BRANCH   2   6
ATOM      6  N   GLU A   1     -12.404  14.268  67.154  1.00  0.00    -0.586 N  
ATOM      7  H   GLU A   1     -13.361  14.072  67.448  1.00  0.00     0.000 HD 
BRANCH   6   8
ATOM      8  CA  GLU A   1     -11.385  14.525  68.164  1.00  0.00    -0.298 C  
ATOM      9  O   GLU A   1      -9.498  13.055  68.535  1.00  0.00    -0.190 OA 
ATOM     10  C   GLU A   1     -10.843  13.172  68.626  1.00  0.00    -0.259 C  
ATOM     11  OXT GLU A   1     -11.549  12.276  69.069  1.00  0.00    -0.270 OA 
BRANCH   8  12
ATOM     12  CB  GLU A   1     -11.972  15.293  69.355  1.00  0.00    -0.342 C  
BRANCH  12  13
ATOM     13  CG  GLU A   1     -11.024  16.377  69.865  1.00  0.00    -0.339 C  
ATOM     14  CD  GLU A   1     -10.203  16.986  68.758  1.00  0.00    -0.317 C  
ATOM     15  OE2 GLU A   1      -8.987  16.896  68.691  1.00  0.00    -0.251 OA 
ATOM     16  OE1 GLU A   1     -10.931  17.685  67.861  1.00  0.00    -0.316 OA 
ENDBRANCH  12  13
ENDBRANCH   8  12
ENDBRANCH   6   8
ENDBRANCH   2   6
TORSDOF 4
ENDMDL
MODEL      111
REMARK 921   NORMALIZED FREE ENERGY PREDICTED BY IDOCK:   -4.02 KCAL/MOL
REMARK 922        TOTAL FREE ENERGY PREDICTED BY IDOCK:   -4.81 KCAL/MOL
REMARK 923 INTER-LIGAND FREE ENERGY PREDICTED BY IDOCK:   -4.64 KCAL/MOL
REMARK 924 INTRA-LIGAND FREE ENERGY PREDICTED BY IDOCK:   -0.17 KCAL/MOL
REMARK 927      BINDING AFFINITY PREDICTED BY RF-SCORE:    0.00 PKD
ROOT
HETATM    1  N   UNK A   0     -12.344  15.108  68.989  1.00  0.00    -0.596 N  
HETATM    2  C   UNK A   0     -11.695  13.944  68.755  1.00  0.00    -0.357 C  
HETATM    3  H2  UNK A   0     -13.276  15.077  69.402  1.00  0.00     0.000 HD 
HETATM    4  H1  UNK A   0     -11.933  16.015  68.767  1.00  0.00     0.000 HD 
HETATM    5  O   UNK A   0     -12.187  12.858  69.021  1.00  0.00    -0.205 OA 
ENDROOT
BRANCH   2   6
ATOM      6  N   GLU A   1     -10.463  14.126  68.216  1.00  0.00    -0.243 N  
ATOM      7  H   GLU A   1      -9.777  14.690  68.716  1.00  0.00     0.000 HD 
BRANCH   6   8
ATOM      8  CA  GLU A   1     -10.101  13.530  66.936  1.00  0.00    -0.256 C  
ATOM      9  O   GLU A   1      -8.950  11.409  66.749  1.00  0.00    -0.165 OA 
ATOM     10  C   GLU A   1      -8.841  12.694  67.157  1.00  0.00    -0.204 C  
ATOM     11  OXT GLU A   1      -7.806  13.143  67.633  1.00  0.00    -0.142 OA 
BRANCH   8  12
ATOM     12  CB  GLU A   1      -9.840  14.611  65.879  1.00  0.00    -0.358 C  
BRANCH  12  13
ATOM     13  CG  GLU A   1     -10.962  15.646  65.824  1.00  0.00    -0.250 C  
ATOM     14  CD  GLU A   1     -11.786  15.530  64.567  1.00  0.00    -0.253 C  
ATOM     15  OE2 GLU A   1     -11.847  16.404  63.717  1.00  0.00    -1.002 OA 
ATOM     16  OE1 GLU A   1     -12.491  14.382  64.482  1.00  0.00    -0.608 OA 
ENDBRANCH  12  13
ENDBRANCH   8  12
ENDBRANCH   6   8
ENDBRANCH   2   6
TORSDOF 4
ENDMDL
MODEL      112
REMARK 921   NORMALIZED FREE ENERGY PREDICTED BY IDOCK:   -4.01 KCAL/MOL
REMARK 922        TOTAL FREE ENERGY PREDICTED BY IDOCK:   -4.79 KCAL/MOL
REMARK 923 INTER-LIGAND FREE ENERGY PREDICTED BY IDOCK:   -4.36 KCAL/MOL
REMARK 924 INTRA-LIGAND FREE ENERGY PREDICTED BY IDOCK:   -0.43 KCAL/MOL
REMARK 927      BINDING AFFINITY PREDICTED BY RF-SCORE:    0.00 PKD
ROOT
HETATM    1  N   UNK A   0     -14.350   7.363  71.222  1.00  0.00    -0.598 N  
HETATM    2  C   UNK A   0     -13.011   7.233  71.366  1.00  0.00    -0.373 C  
HETATM    3  H2  UNK A   0     -14.964   6.721  71.723  1.00  0.00     0.000 HD 
HETATM    4  H1  UNK A   0     -14.766   8.082  70.630  1.00  0.00     0.000 HD 
HETATM    5  O   UNK A   0     -12.512   6.371  72.076  1.00  0.00    -0.333 OA 
ENDROOT
BRANCH   2   6
ATOM      6  N   GLU A   1     -12.311   8.153  70.658  1.00  0.00    -0.481 N  
ATOM      7  H   GLU A   1     -12.167   8.010  69.658  1.00  0.00     0.000 HD 
BRANCH   6   8
ATOM      8  CA  GLU A   1     -11.761   9.343  71.295  1.00  0.00    -0.360 C  
ATOM      9  O   GLU A   1     -13.120  11.239  71.941  1.00  0.00    -0.493 OA 
ATOM     10  C   GLU A   1     -12.640  10.528  70.896  1.00  0.00    -0.398 C  
ATOM     11  OXT GLU A   1     -12.873  10.836  69.734  1.00  0.00    -0.174 OA 
BRANCH   8  12
ATOM     12  CB  GLU A   1     -10.312   9.586  70.851  1.00  0.00    -0.372 C  
BRANCH  12  13
ATOM     13  CG  GLU A   1      -9.919   8.709  69.663  1.00  0.00    -0.191 C  
ATOM     14  CD  GLU A   1      -9.984   9.455  68.356  1.00  0.00    -0.170 C  
ATOM     15  OE2 GLU A   1     -10.754   9.168  67.453  1.00  0.00    -0.277 OA 
ATOM     16  OE1 GLU A   1      -9.079  10.451  68.250  1.00  0.00    -0.138 OA 
ENDBRANCH  12  13
ENDBRANCH   8  12
ENDBRANCH   6   8
ENDBRANCH   2   6
TORSDOF 4
ENDMDL
MODEL      113
REMARK 921   NORMALIZED FREE ENERGY PREDICTED BY IDOCK:   -4.00 KCAL/MOL
REMARK 922        TOTAL FREE ENERGY PREDICTED BY IDOCK:   -4.78 KCAL/MOL
REMARK 923 INTER-LIGAND FREE ENERGY PREDICTED BY IDOCK:   -4.47 KCAL/MOL
REMARK 924 INTRA-LIGAND FREE ENERGY PREDICTED BY IDOCK:   -0.31 KCAL/MOL
REMARK 927      BINDING AFFINITY PREDICTED BY RF-SCORE:    0.00 PKD
ROOT
HETATM    1  N   UNK A   0     -12.622  14.785  69.643  1.00  0.00    -0.579 N  
HETATM    2  C   UNK A   0     -12.340  13.801  70.527  1.00  0.00    -0.359 C  
HETATM    3  H2  UNK A   0     -13.159  15.592  69.960  1.00  0.00     0.000 HD 
HETATM    4  H1  UNK A   0     -12.316  14.747  68.671  1.00  0.00     0.000 HD 
HETATM    5  O   UNK A   0     -12.706  13.845  71.692  1.00  0.00    -0.332 OA 
ENDROOT
BRANCH   2   6
ATOM      6  N   GLU A   1     -11.613  12.793  69.982  1.00  0.00    -0.530 N  
ATOM      7  H   GLU A   1     -10.596  12.863  69.967  1.00  0.00     0.000 HD 
BRANCH   6   8
ATOM      8  CA  GLU A   1     -12.257  11.614  69.417  1.00  0.00    -0.182 C  
ATOM      9  O   GLU A   1     -13.317   9.914  70.776  1.00  0.00    -0.313 OA 
ATOM     10  C   GLU A   1     -12.138  10.488  70.444  1.00  0.00    -0.329 C  
ATOM     11  OXT GLU A   1     -11.071  10.108  70.911  1.00  0.00    -0.338 OA 
BRANCH   8  12
ATOM     12  CB  GLU A   1     -11.589  11.200  68.099  1.00  0.00    -0.350 C  
BRANCH  12  13
ATOM     13  CG  GLU A   1     -11.556  12.343  67.086  1.00  0.00    -0.435 C  
ATOM     14  CD  GLU A   1     -10.500  12.141  66.030  1.00  0.00    -0.247 C  
ATOM     15  OE2 GLU A   1      -9.538  12.880  65.887  1.00  0.00    -0.224 OA 
ATOM     16  OE1 GLU A   1     -10.733  11.087  65.220  1.00  0.00    -0.246 OA 
ENDBRANCH  12  13
ENDBRANCH   8  12
ENDBRANCH   6   8
ENDBRANCH   2   6
TORSDOF 4
ENDMDL
MODEL      114
REMARK 921   NORMALIZED FREE ENERGY PREDICTED BY IDOCK:   -3.99 KCAL/MOL
REMARK 922        TOTAL FREE ENERGY PREDICTED BY IDOCK:   -4.76 KCAL/MOL
REMARK 923 INTER-LIGAND FREE ENERGY PREDICTED BY IDOCK:   -4.08 KCAL/MOL
REMARK 924 INTRA-LIGAND FREE ENERGY PREDICTED BY IDOCK:   -0.68 KCAL/MOL
REMARK 927      BINDING AFFINITY PREDICTED BY RF-SCORE:    0.00 PKD
ROOT
HETATM    1  N   UNK A   0      -8.668  13.596  68.576  1.00  0.00    -0.302 N  
HETATM    2  C   UNK A   0      -8.578  13.017  67.357  1.00  0.00    -0.199 C  
HETATM    3  H2  UNK A   0      -8.237  13.131  69.376  1.00  0.00     0.000 HD 
HETATM    4  H1  UNK A   0      -9.152  14.482  68.724  1.00  0.00     0.000 HD 
HETATM    5  O   UNK A   0      -7.998  11.955  67.181  1.00  0.00    -0.158 OA 
ENDROOT
BRANCH   2   6
ATOM      6  N   GLU A   1      -9.182  13.741  66.382  1.00  0.00    -0.461 N  
ATOM      7  H   GLU A   1      -8.608  14.250  65.710  1.00  0.00     0.000 HD 
BRANCH   6   8
ATOM      8  CA  GLU A   1     -10.633  13.806  66.275  1.00  0.00    -0.289 C  
ATOM      9  O   GLU A   1     -11.999  11.895  65.693  1.00  0.00    -0.429 OA 
ATOM     10  C   GLU A   1     -11.067  12.766  65.244  1.00  0.00    -0.287 C  
ATOM     11  OXT GLU A   1     -10.638  12.730  64.097  1.00  0.00    -0.371 OA 
BRANCH   8  12
ATOM     12  CB  GLU A   1     -11.091  15.205  65.840  1.00  0.00    -0.319 C  
BRANCH  12  13
ATOM     13  CG  GLU A   1     -10.031  16.270  66.115  1.00  0.00    -0.355 C  
ATOM     14  CD  GLU A   1     -10.241  16.956  67.440  1.00  0.00    -0.298 C  
ATOM     15  OE2 GLU A   1     -10.500  18.144  67.551  1.00  0.00    -0.380 OA 
ATOM     16  OE1 GLU A   1     -10.073  16.146  68.507  1.00  0.00    -0.228 OA 
ENDBRANCH  12  13
ENDBRANCH   8  12
ENDBRANCH   6   8
ENDBRANCH   2   6
TORSDOF 4
ENDMDL
MODEL      115
REMARK 921   NORMALIZED FREE ENERGY PREDICTED BY IDOCK:   -3.96 KCAL/MOL
REMARK 922        TOTAL FREE ENERGY PREDICTED BY IDOCK:   -4.73 KCAL/MOL
REMARK 923 INTER-LIGAND FREE ENERGY PREDICTED BY IDOCK:   -4.47 KCAL/MOL
REMARK 924 INTRA-LIGAND FREE ENERGY PREDICTED BY IDOCK:   -0.26 KCAL/MOL
REMARK 927      BINDING AFFINITY PREDICTED BY RF-SCORE:    0.00 PKD
ROOT
HETATM    1  N   UNK A   0     -10.087  17.334  65.888  1.00  0.00    -0.255 N  
HETATM    2  C   UNK A   0     -10.019  16.040  66.276  1.00  0.00    -0.310 C  
HETATM    3  H2  UNK A   0      -9.308  17.955  66.106  1.00  0.00     0.000 HD 
HETATM    4  H1  UNK A   0     -10.891  17.710  65.385  1.00  0.00     0.000 HD 
HETATM    5  O   UNK A   0      -9.056  15.590  66.879  1.00  0.00    -0.211 OA 
ENDROOT
BRANCH   2   6
ATOM      6  N   GLU A   1     -11.112  15.322  65.916  1.00  0.00    -0.320 N  
ATOM      7  H   GLU A   1     -11.694  15.651  65.145  1.00  0.00     0.000 HD 
BRANCH   6   8
ATOM      8  CA  GLU A   1     -11.472  14.091  66.607  1.00  0.00    -0.364 C  
ATOM      9  O   GLU A   1     -11.929  12.015  65.450  1.00  0.00    -0.399 OA 
ATOM     10  C   GLU A   1     -12.362  13.278  65.668  1.00  0.00    -0.465 C  
ATOM     11  OXT GLU A   1     -13.395  13.709  65.171  1.00  0.00    -0.677 OA 
BRANCH   8  12
ATOM     12  CB  GLU A   1     -12.219  14.392  67.914  1.00  0.00    -0.178 C  
BRANCH  12  13
ATOM     13  CG  GLU A   1     -11.399  14.017  69.146  1.00  0.00    -0.323 C  
ATOM     14  CD  GLU A   1     -11.695  14.909  70.324  1.00  0.00    -0.303 C  
ATOM     15  OE2 GLU A   1     -10.871  15.655  70.830  1.00  0.00    -0.315 OA 
ATOM     16  OE1 GLU A   1     -12.951  14.780  70.803  1.00  0.00    -0.349 OA 
ENDBRANCH  12  13
ENDBRANCH   8  12
ENDBRANCH   6   8
ENDBRANCH   2   6
TORSDOF 4
ENDMDL
MODEL      116
REMARK 921   NORMALIZED FREE ENERGY PREDICTED BY IDOCK:   -3.95 KCAL/MOL
REMARK 922        TOTAL FREE ENERGY PREDICTED BY IDOCK:   -4.72 KCAL/MOL
REMARK 923 INTER-LIGAND FREE ENERGY PREDICTED BY IDOCK:   -4.39 KCAL/MOL
REMARK 924 INTRA-LIGAND FREE ENERGY PREDICTED BY IDOCK:   -0.34 KCAL/MOL
REMARK 927      BINDING AFFINITY PREDICTED BY RF-SCORE:    0.00 PKD
ROOT
HETATM    1  N   UNK A   0      -7.402  19.531  68.992  1.00  0.00    -0.365 N  
HETATM    2  C   UNK A   0      -7.529  18.514  68.110  1.00  0.00    -0.268 C  
HETATM    3  H2  UNK A   0      -6.682  20.236  68.830  1.00  0.00     0.000 HD 
HETATM    4  H1  UNK A   0      -8.000  19.618  69.813  1.00  0.00     0.000 HD 
HETATM    5  O   UNK A   0      -6.812  18.409  67.126  1.00  0.00    -0.191 OA 
ENDROOT
BRANCH   2   6
ATOM      6  N   GLU A   1      -8.528  17.655  68.435  1.00  0.00    -0.280 N  
ATOM      7  H   GLU A   1      -8.461  17.115  69.298  1.00  0.00     0.000 HD 
BRANCH   6   8
ATOM      8  CA  GLU A   1      -9.694  17.489  67.578  1.00  0.00    -0.278 C  
ATOM      9  O   GLU A   1     -10.474  19.212  66.068  1.00  0.00    -0.456 OA 
ATOM     10  C   GLU A   1     -10.311  18.872  67.366  1.00  0.00    -0.427 C  
ATOM     11  OXT GLU A   1     -10.658  19.605  68.283  1.00  0.00    -0.390 OA 
BRANCH   8  12
ATOM     12  CB  GLU A   1     -10.720  16.546  68.220  1.00  0.00    -0.345 C  
BRANCH  12  13
ATOM     13  CG  GLU A   1     -10.284  16.077  69.607  1.00  0.00    -0.265 C  
ATOM     14  CD  GLU A   1     -11.454  15.702  70.479  1.00  0.00    -0.360 C  
ATOM     15  OE2 GLU A   1     -11.747  16.292  71.507  1.00  0.00    -0.469 OA 
ATOM     16  OE1 GLU A   1     -12.132  14.618  70.044  1.00  0.00    -0.293 OA 
ENDBRANCH  12  13
ENDBRANCH   8  12
ENDBRANCH   6   8
ENDBRANCH   2   6
TORSDOF 4
ENDMDL
MODEL      117
REMARK 921   NORMALIZED FREE ENERGY PREDICTED BY IDOCK:   -3.95 KCAL/MOL
REMARK 922        TOTAL FREE ENERGY PREDICTED BY IDOCK:   -4.72 KCAL/MOL
REMARK 923 INTER-LIGAND FREE ENERGY PREDICTED BY IDOCK:   -4.37 KCAL/MOL
REMARK 924 INTRA-LIGAND FREE ENERGY PREDICTED BY IDOCK:   -0.35 KCAL/MOL
REMARK 927      BINDING AFFINITY PREDICTED BY RF-SCORE:    0.00 PKD
ROOT
HETATM    1  N   UNK A   0     -11.699  13.871  64.237  1.00  0.00    -0.519 N  
HETATM    2  C   UNK A   0     -12.221  12.683  64.617  1.00  0.00    -0.452 C  
HETATM    3  H2  UNK A   0     -12.226  14.457  63.589  1.00  0.00     0.000 HD 
HETATM    4  H1  UNK A   0     -10.795  14.201  64.575  1.00  0.00     0.000 HD 
HETATM    5  O   UNK A   0     -13.304  12.287  64.211  1.00  0.00    -0.777 OA 
ENDROOT
BRANCH   2   6
ATOM      6  N   GLU A   1     -11.426  12.010  65.486  1.00  0.00    -0.338 N  
ATOM      7  H   GLU A   1     -11.833  11.623  66.337  1.00  0.00     0.000 HD 
BRANCH   6   8
ATOM      8  CA  GLU A   1     -10.004  11.828  65.227  1.00  0.00    -0.253 C  
ATOM      9  O   GLU A   1      -9.150  10.211  63.641  1.00  0.00    -0.217 OA 
ATOM     10  C   GLU A   1      -9.792  10.370  64.821  1.00  0.00    -0.340 C  
ATOM     11  OXT GLU A   1     -10.142   9.418  65.508  1.00  0.00    -0.217 OA 
BRANCH   8  12
ATOM     12  CB  GLU A   1      -9.171  12.156  66.473  1.00  0.00    -0.216 C  
BRANCH  12  13
ATOM     13  CG  GLU A   1     -10.034  12.670  67.624  1.00  0.00    -0.216 C  
ATOM     14  CD  GLU A   1     -10.639  11.549  68.430  1.00  0.00    -0.201 C  
ATOM     15  OE2 GLU A   1     -11.841  11.346  68.507  1.00  0.00    -0.416 OA 
ATOM     16  OE1 GLU A   1      -9.732  10.808  69.101  1.00  0.00    -0.207 OA 
ENDBRANCH  12  13
ENDBRANCH   8  12
ENDBRANCH   6   8
ENDBRANCH   2   6
TORSDOF 4
ENDMDL
MODEL      118
REMARK 921   NORMALIZED FREE ENERGY PREDICTED BY IDOCK:   -3.95 KCAL/MOL
REMARK 922        TOTAL FREE ENERGY PREDICTED BY IDOCK:   -4.72 KCAL/MOL
REMARK 923 INTER-LIGAND FREE ENERGY PREDICTED BY IDOCK:   -4.32 KCAL/MOL
REMARK 924 INTRA-LIGAND FREE ENERGY PREDICTED BY IDOCK:   -0.39 KCAL/MOL
REMARK 927      BINDING AFFINITY PREDICTED BY RF-SCORE:    0.00 PKD
ROOT
HETATM    1  N   UNK A   0     -12.854  15.853  70.465  1.00  0.00    -0.664 N  
HETATM    2  C   UNK A   0     -12.622  14.542  70.225  1.00  0.00    -0.323 C  
HETATM    3  H2  UNK A   0     -12.933  16.171  71.431  1.00  0.00     0.000 HD 
HETATM    4  H1  UNK A   0     -12.953  16.534  69.712  1.00  0.00     0.000 HD 
HETATM    5  O   UNK A   0     -12.504  13.725  71.127  1.00  0.00    -0.350 OA 
ENDROOT
BRANCH   2   6
ATOM      6  N   GLU A   1     -12.528  14.255  68.903  1.00  0.00    -0.530 N  
ATOM      7  H   GLU A   1     -13.296  14.507  68.281  1.00  0.00     0.000 HD 
BRANCH   6   8
ATOM      8  CA  GLU A   1     -11.352  13.594  68.352  1.00  0.00    -0.295 C  
ATOM      9  O   GLU A   1      -9.187  14.667  68.203  1.00  0.00    -0.181 OA 
ATOM     10  C   GLU A   1     -10.459  14.675  67.743  1.00  0.00    -0.246 C  
ATOM     11  OXT GLU A   1     -10.841  15.467  66.890  1.00  0.00    -0.313 OA 
BRANCH   8  12
ATOM     12  CB  GLU A   1     -11.746  12.569  67.281  1.00  0.00    -0.431 C  
BRANCH  12  13
ATOM     13  CG  GLU A   1     -10.877  11.314  67.336  1.00  0.00    -0.311 C  
ATOM     14  CD  GLU A   1     -10.133  11.076  66.047  1.00  0.00    -0.247 C  
ATOM     15  OE2 GLU A   1     -10.317  10.104  65.331  1.00  0.00    -0.257 OA 
ATOM     16  OE1 GLU A   1      -9.206  12.018  65.771  1.00  0.00    -0.178 OA 
ENDBRANCH  12  13
ENDBRANCH   8  12
ENDBRANCH   6   8
ENDBRANCH   2   6
TORSDOF 4
ENDMDL
MODEL      119
REMARK 921   NORMALIZED FREE ENERGY PREDICTED BY IDOCK:   -3.94 KCAL/MOL
REMARK 922        TOTAL FREE ENERGY PREDICTED BY IDOCK:   -4.71 KCAL/MOL
REMARK 923 INTER-LIGAND FREE ENERGY PREDICTED BY IDOCK:   -4.35 KCAL/MOL
REMARK 924 INTRA-LIGAND FREE ENERGY PREDICTED BY IDOCK:   -0.36 KCAL/MOL
REMARK 927      BINDING AFFINITY PREDICTED BY RF-SCORE:    0.00 PKD
ROOT
HETATM    1  N   UNK A   0      -6.185  18.717  69.665  1.00  0.00    -0.261 N  
HETATM    2  C   UNK A   0      -6.832  19.670  68.957  1.00  0.00    -0.343 C  
HETATM    3  H2  UNK A   0      -5.176  18.798  69.792  1.00  0.00     0.000 HD 
HETATM    4  H1  UNK A   0      -6.671  17.921  70.077  1.00  0.00     0.000 HD 
HETATM    5  O   UNK A   0      -6.250  20.624  68.463  1.00  0.00    -0.315 OA 
ENDROOT
BRANCH   2   6
ATOM      6  N   GLU A   1      -8.168  19.450  68.873  1.00  0.00    -0.352 N  
ATOM      7  H   GLU A   1      -8.809  20.069  69.369  1.00  0.00     0.000 HD 
BRANCH   6   8
ATOM      8  CA  GLU A   1      -8.707  18.347  68.088  1.00  0.00    -0.302 C  
ATOM      9  O   GLU A   1      -8.109  17.961  65.774  1.00  0.00    -0.537 OA 
ATOM     10  C   GLU A   1      -8.745  18.796  66.627  1.00  0.00    -0.303 C  
ATOM     11  OXT GLU A   1      -9.322  19.806  66.245  1.00  0.00    -0.367 OA 
BRANCH   8  12
ATOM     12  CB  GLU A   1     -10.117  17.971  68.561  1.00  0.00    -0.399 C  
BRANCH  12  13
ATOM     13  CG  GLU A   1     -10.185  16.539  69.089  1.00  0.00    -0.298 C  
ATOM     14  CD  GLU A   1     -11.174  15.694  68.328  1.00  0.00    -0.353 C  
ATOM     15  OE2 GLU A   1     -12.178  15.214  68.830  1.00  0.00    -0.204 OA 
ATOM     16  OE1 GLU A   1     -10.829  15.477  67.041  1.00  0.00    -0.320 OA 
ENDBRANCH  12  13
ENDBRANCH   8  12
ENDBRANCH   6   8
ENDBRANCH   2   6
TORSDOF 4
ENDMDL
MODEL      120
REMARK 921   NORMALIZED FREE ENERGY PREDICTED BY IDOCK:   -3.93 KCAL/MOL
REMARK 922        TOTAL FREE ENERGY PREDICTED BY IDOCK:   -4.69 KCAL/MOL
REMARK 923 INTER-LIGAND FREE ENERGY PREDICTED BY IDOCK:   -4.47 KCAL/MOL
REMARK 924 INTRA-LIGAND FREE ENERGY PREDICTED BY IDOCK:   -0.22 KCAL/MOL
REMARK 927      BINDING AFFINITY PREDICTED BY RF-SCORE:    0.00 PKD
ROOT
HETATM    1  N   UNK A   0      -8.879  13.105  66.691  1.00  0.00    -0.416 N  
HETATM    2  C   UNK A   0      -8.727  13.189  68.032  1.00  0.00    -0.190 C  
HETATM    3  H2  UNK A   0      -8.158  13.503  66.088  1.00  0.00     0.000 HD 
HETATM    4  H1  UNK A   0      -9.688  12.657  66.261  1.00  0.00     0.000 HD 
HETATM    5  O   UNK A   0      -7.757  13.725  68.547  1.00  0.00    -0.131 OA 
ENDROOT
BRANCH   2   6
ATOM      6  N   GLU A   1      -9.747  12.613  68.716  1.00  0.00    -0.419 N  
ATOM      7  H   GLU A   1      -9.603  12.332  69.686  1.00  0.00     0.000 HD 
BRANCH   6   8
ATOM      8  CA  GLU A   1     -11.045  12.387  68.093  1.00  0.00    -0.247 C  
ATOM      9  O   GLU A   1     -12.288  14.132  66.968  1.00  0.00    -0.396 OA 
ATOM     10  C   GLU A   1     -11.825  13.699  68.163  1.00  0.00    -0.372 C  
ATOM     11  OXT GLU A   1     -12.043  14.302  69.206  1.00  0.00    -0.325 OA 
BRANCH   8  12
ATOM     12  CB  GLU A   1     -11.817  11.275  68.816  1.00  0.00    -0.396 C  
BRANCH  12  13
ATOM     13  CG  GLU A   1     -11.537  11.262  70.318  1.00  0.00    -0.366 C  
ATOM     14  CD  GLU A   1     -12.797  11.131  71.134  1.00  0.00    -0.374 C  
ATOM     15  OE2 GLU A   1     -13.200  11.995  71.897  1.00  0.00    -0.480 OA 
ATOM     16  OE1 GLU A   1     -13.425   9.946  70.980  1.00  0.00    -0.363 OA 
ENDBRANCH  12  13
ENDBRANCH   8  12
ENDBRANCH   6   8
ENDBRANCH   2   6
TORSDOF 4
ENDMDL
MODEL      121
REMARK 921   NORMALIZED FREE ENERGY PREDICTED BY IDOCK:   -3.93 KCAL/MOL
REMARK 922        TOTAL FREE ENERGY PREDICTED BY IDOCK:   -4.69 KCAL/MOL
REMARK 923 INTER-LIGAND FREE ENERGY PREDICTED BY IDOCK:   -4.27 KCAL/MOL
REMARK 924 INTRA-LIGAND FREE ENERGY PREDICTED BY IDOCK:   -0.42 KCAL/MOL
REMARK 927      BINDING AFFINITY PREDICTED BY RF-SCORE:    0.00 PKD
ROOT
HETATM    1  N   UNK A   0      -9.175  11.030  66.439  1.00  0.00    -0.170 N  
HETATM    2  C   UNK A   0      -9.717  11.937  65.595  1.00  0.00    -0.227 C  
HETATM    3  H2  UNK A   0      -9.352  10.038  66.276  1.00  0.00     0.000 HD 
HETATM    4  H1  UNK A   0      -8.595  11.303  67.232  1.00  0.00     0.000 HD 
HETATM    5  O   UNK A   0     -10.412  11.610  64.644  1.00  0.00    -0.269 OA 
ENDROOT
BRANCH   2   6
ATOM      6  N   GLU A   1      -9.396  13.216  65.916  1.00  0.00    -0.467 N  
ATOM      7  H   GLU A   1      -8.419  13.460  66.074  1.00  0.00     0.000 HD 
BRANCH   6   8
ATOM      8  CA  GLU A   1     -10.419  14.246  66.038  1.00  0.00    -0.301 C  
ATOM      9  O   GLU A   1     -10.566  16.141  64.539  1.00  0.00    -0.509 OA 
ATOM     10  C   GLU A   1      -9.826  15.550  65.504  1.00  0.00    -0.313 C  
ATOM     11  OXT GLU A   1      -8.788  16.043  65.926  1.00  0.00    -0.311 OA 
BRANCH   8  12
ATOM     12  CB  GLU A   1     -10.852  14.421  67.499  1.00  0.00    -0.285 C  
BRANCH  12  13
ATOM     13  CG  GLU A   1     -12.142  13.666  67.813  1.00  0.00    -0.325 C  
ATOM     14  CD  GLU A   1     -11.906  12.476  68.707  1.00  0.00    -0.303 C  
ATOM     15  OE2 GLU A   1     -12.105  11.322  68.362  1.00  0.00    -0.598 OA 
ATOM     16  OE1 GLU A   1     -11.491  12.802  69.950  1.00  0.00    -0.195 OA 
ENDBRANCH  12  13
ENDBRANCH   8  12
ENDBRANCH   6   8
ENDBRANCH   2   6
TORSDOF 4
ENDMDL
MODEL      122
REMARK 921   NORMALIZED FREE ENERGY PREDICTED BY IDOCK:   -3.91 KCAL/MOL
REMARK 922        TOTAL FREE ENERGY PREDICTED BY IDOCK:   -4.66 KCAL/MOL
REMARK 923 INTER-LIGAND FREE ENERGY PREDICTED BY IDOCK:   -4.38 KCAL/MOL
REMARK 924 INTRA-LIGAND FREE ENERGY PREDICTED BY IDOCK:   -0.28 KCAL/MOL
REMARK 927      BINDING AFFINITY PREDICTED BY RF-SCORE:    0.00 PKD
ROOT
HETATM    1  N   UNK A   0      -7.945  14.341  66.888  1.00  0.00    -0.354 N  
HETATM    2  C   UNK A   0      -7.555  15.629  67.025  1.00  0.00    -0.210 C  
HETATM    3  H2  UNK A   0      -7.233  13.623  66.752  1.00  0.00     0.000 HD 
HETATM    4  H1  UNK A   0      -8.926  14.063  66.917  1.00  0.00     0.000 HD 
HETATM    5  O   UNK A   0      -6.380  15.962  66.991  1.00  0.00    -0.309 OA 
ENDROOT
BRANCH   2   6
ATOM      6  N   GLU A   1      -8.596  16.479  67.210  1.00  0.00    -0.180 N  
ATOM      7  H   GLU A   1      -8.411  17.469  67.366  1.00  0.00     0.000 HD 
BRANCH   6   8
ATOM      8  CA  GLU A   1      -9.974  16.005  67.190  1.00  0.00    -0.249 C  
ATOM      9  O   GLU A   1     -11.143  15.437  65.148  1.00  0.00    -0.375 OA 
ATOM     10  C   GLU A   1     -10.594  16.445  65.864  1.00  0.00    -0.285 C  
ATOM     11  OXT GLU A   1     -10.624  17.608  65.484  1.00  0.00    -0.622 OA 
BRANCH   8  12
ATOM     12  CB  GLU A   1     -10.773  16.586  68.365  1.00  0.00    -0.339 C  
BRANCH  12  13
ATOM     13  CG  GLU A   1     -10.493  15.848  69.673  1.00  0.00    -0.295 C  
ATOM     14  CD  GLU A   1     -11.677  15.865  70.605  1.00  0.00    -0.384 C  
ATOM     15  OE2 GLU A   1     -11.670  16.416  71.694  1.00  0.00    -0.465 OA 
ATOM     16  OE1 GLU A   1     -12.743  15.177  70.145  1.00  0.00    -0.311 OA 
ENDBRANCH  12  13
ENDBRANCH   8  12
ENDBRANCH   6   8
ENDBRANCH   2   6
TORSDOF 4
ENDMDL
MODEL      123
REMARK 921   NORMALIZED FREE ENERGY PREDICTED BY IDOCK:   -3.91 KCAL/MOL
REMARK 922        TOTAL FREE ENERGY PREDICTED BY IDOCK:   -4.66 KCAL/MOL
REMARK 923 INTER-LIGAND FREE ENERGY PREDICTED BY IDOCK:   -4.12 KCAL/MOL
REMARK 924 INTRA-LIGAND FREE ENERGY PREDICTED BY IDOCK:   -0.54 KCAL/MOL
REMARK 927      BINDING AFFINITY PREDICTED BY RF-SCORE:    0.00 PKD
ROOT
HETATM    1  N   UNK A   0     -11.504   6.650  67.051  1.00  0.00    -0.754 N  
HETATM    2  C   UNK A   0     -10.729   7.681  67.460  1.00  0.00    -0.209 C  
HETATM    3  H2  UNK A   0     -11.356   6.262  66.120  1.00  0.00     0.000 HD 
HETATM    4  H1  UNK A   0     -12.231   6.248  67.643  1.00  0.00     0.000 HD 
HETATM    5  O   UNK A   0      -9.857   8.163  66.751  1.00  0.00    -0.214 OA 
ENDROOT
BRANCH   2   6
ATOM      6  N   GLU A   1     -11.021   8.095  68.718  1.00  0.00    -0.419 N  
ATOM      7  H   GLU A   1     -11.964   8.419  68.931  1.00  0.00     0.000 HD 
BRANCH   6   8
ATOM      8  CA  GLU A   1     -10.015   8.086  69.772  1.00  0.00    -0.191 C  
ATOM      9  O   GLU A   1      -8.478   6.247  70.110  1.00  0.00    -0.130 OA 
ATOM     10  C   GLU A   1      -9.774   6.629  70.167  1.00  0.00    -0.164 C  
ATOM     11  OXT GLU A   1     -10.664   5.872  70.533  1.00  0.00    -0.255 OA 
BRANCH   8  12
ATOM     12  CB  GLU A   1     -10.485   8.893  70.990  1.00  0.00    -0.316 C  
BRANCH  12  13
ATOM     13  CG  GLU A   1     -11.996   9.113  70.986  1.00  0.00    -0.344 C  
ATOM     14  CD  GLU A   1     -12.363  10.564  70.807  1.00  0.00    -0.378 C  
ATOM     15  OE2 GLU A   1     -12.944  11.223  71.654  1.00  0.00    -0.448 OA 
ATOM     16  OE1 GLU A   1     -12.028  11.065  69.599  1.00  0.00    -0.303 OA 
ENDBRANCH  12  13
ENDBRANCH   8  12
ENDBRANCH   6   8
ENDBRANCH   2   6
TORSDOF 4
ENDMDL
MODEL      124
REMARK 921   NORMALIZED FREE ENERGY PREDICTED BY IDOCK:   -3.90 KCAL/MOL
REMARK 922        TOTAL FREE ENERGY PREDICTED BY IDOCK:   -4.65 KCAL/MOL
REMARK 923 INTER-LIGAND FREE ENERGY PREDICTED BY IDOCK:   -4.23 KCAL/MOL
REMARK 924 INTRA-LIGAND FREE ENERGY PREDICTED BY IDOCK:   -0.42 KCAL/MOL
REMARK 927      BINDING AFFINITY PREDICTED BY RF-SCORE:    0.00 PKD
ROOT
HETATM    1  N   UNK A   0      -7.335  19.327  68.863  1.00  0.00    -0.348 N  
HETATM    2  C   UNK A   0      -7.251  18.705  67.664  1.00  0.00    -0.215 C  
HETATM    3  H2  UNK A   0      -6.928  20.257  68.965  1.00  0.00     0.000 HD 
HETATM    4  H1  UNK A   0      -7.790  18.897  69.668  1.00  0.00     0.000 HD 
HETATM    5  O   UNK A   0      -6.705  19.220  66.699  1.00  0.00    -0.189 OA 
ENDROOT
BRANCH   2   6
ATOM      6  N   GLU A   1      -7.839  17.483  67.661  1.00  0.00    -0.199 N  
ATOM      7  H   GLU A   1      -7.475  16.752  68.272  1.00  0.00     0.000 HD 
BRANCH   6   8
ATOM      8  CA  GLU A   1      -8.979  17.193  66.802  1.00  0.00    -0.241 C  
ATOM      9  O   GLU A   1     -10.461  18.909  65.955  1.00  0.00    -0.455 OA 
ATOM     10  C   GLU A   1     -10.039  18.263  67.065  1.00  0.00    -0.360 C  
ATOM     11  OXT GLU A   1     -10.495  18.504  68.176  1.00  0.00    -0.372 OA 
BRANCH   8  12
ATOM     12  CB  GLU A   1      -9.551  15.800  67.097  1.00  0.00    -0.224 C  
BRANCH  12  13
ATOM     13  CG  GLU A   1     -10.885  15.562  66.391  1.00  0.00    -0.277 C  
ATOM     14  CD  GLU A   1     -10.716  15.342  64.910  1.00  0.00    -0.400 C  
ATOM     15  OE2 GLU A   1     -11.165  16.095  64.060  1.00  0.00    -0.609 OA 
ATOM     16  OE1 GLU A   1     -10.055  14.206  64.599  1.00  0.00    -0.343 OA 
ENDBRANCH  12  13
ENDBRANCH   8  12
ENDBRANCH   6   8
ENDBRANCH   2   6
TORSDOF 4
ENDMDL
MODEL      125
REMARK 921   NORMALIZED FREE ENERGY PREDICTED BY IDOCK:   -3.90 KCAL/MOL
REMARK 922        TOTAL FREE ENERGY PREDICTED BY IDOCK:   -4.65 KCAL/MOL
REMARK 923 INTER-LIGAND FREE ENERGY PREDICTED BY IDOCK:   -4.36 KCAL/MOL
REMARK 924 INTRA-LIGAND FREE ENERGY PREDICTED BY IDOCK:   -0.29 KCAL/MOL
REMARK 927      BINDING AFFINITY PREDICTED BY RF-SCORE:    0.00 PKD
ROOT
HETATM    1  N   UNK A   0     -12.360  12.282  64.460  1.00  0.00    -0.410 N  
HETATM    2  C   UNK A   0     -12.322  13.096  65.540  1.00  0.00    -0.474 C  
HETATM    3  H2  UNK A   0     -12.737  12.644  63.584  1.00  0.00     0.000 HD 
HETATM    4  H1  UNK A   0     -12.023  11.320  64.491  1.00  0.00     0.000 HD 
HETATM    5  O   UNK A   0     -12.726  14.249  65.502  1.00  0.00    -0.472 OA 
ENDROOT
BRANCH   2   6
ATOM      6  N   GLU A   1     -11.788  12.498  66.634  1.00  0.00    -0.386 N  
ATOM      7  H   GLU A   1     -11.916  11.495  66.767  1.00  0.00     0.000 HD 
BRANCH   6   8
ATOM      8  CA  GLU A   1     -11.036  13.259  67.622  1.00  0.00    -0.262 C  
ATOM      9  O   GLU A   1      -8.795  14.084  67.224  1.00  0.00    -0.197 OA 
ATOM     10  C   GLU A   1      -9.552  12.975  67.391  1.00  0.00    -0.211 C  
ATOM     11  OXT GLU A   1      -9.071  11.849  67.384  1.00  0.00    -0.170 OA 
BRANCH   8  12
ATOM     12  CB  GLU A   1     -11.434  12.855  69.049  1.00  0.00    -0.358 C  
BRANCH  12  13
ATOM     13  CG  GLU A   1     -12.109  11.485  69.092  1.00  0.00    -0.329 C  
ATOM     14  CD  GLU A   1     -12.094  10.884  70.474  1.00  0.00    -0.371 C  
ATOM     15  OE2 GLU A   1     -11.499   9.855  70.755  1.00  0.00    -0.298 OA 
ATOM     16  OE1 GLU A   1     -12.836  11.564  71.373  1.00  0.00    -0.419 OA 
ENDBRANCH  12  13
ENDBRANCH   8  12
ENDBRANCH   6   8
ENDBRANCH   2   6
TORSDOF 4
ENDMDL
MODEL      126
REMARK 921   NORMALIZED FREE ENERGY PREDICTED BY IDOCK:   -3.89 KCAL/MOL
REMARK 922        TOTAL FREE ENERGY PREDICTED BY IDOCK:   -4.64 KCAL/MOL
REMARK 923 INTER-LIGAND FREE ENERGY PREDICTED BY IDOCK:   -4.53 KCAL/MOL
REMARK 924 INTRA-LIGAND FREE ENERGY PREDICTED BY IDOCK:   -0.11 KCAL/MOL
REMARK 927      BINDING AFFINITY PREDICTED BY RF-SCORE:    0.00 PKD
ROOT
HETATM    1  N   UNK A   0      -9.046  10.272  68.992  1.00  0.00    -0.173 N  
HETATM    2  C   UNK A   0      -9.375   9.578  70.105  1.00  0.00    -0.247 C  
HETATM    3  H2  UNK A   0      -8.320   9.902  68.377  1.00  0.00     0.000 HD 
HETATM    4  H1  UNK A   0      -9.499  11.152  68.746  1.00  0.00     0.000 HD 
HETATM    5  O   UNK A   0      -8.833   8.523  70.400  1.00  0.00    -0.138 OA 
ENDROOT
BRANCH   2   6
ATOM      6  N   GLU A   1     -10.358  10.171  70.827  1.00  0.00    -0.322 N  
ATOM      7  H   GLU A   1     -10.139  10.560  71.744  1.00  0.00     0.000 HD 
BRANCH   6   8
ATOM      8  CA  GLU A   1     -11.720  10.265  70.318  1.00  0.00    -0.306 C  
ATOM      9  O   GLU A   1     -12.251  11.137  68.124  1.00  0.00    -0.612 OA 
ATOM     10  C   GLU A   1     -11.771  11.446  69.350  1.00  0.00    -0.338 C  
ATOM     11  OXT GLU A   1     -11.437  12.585  69.654  1.00  0.00    -0.250 OA 
BRANCH   8  12
ATOM     12  CB  GLU A   1     -12.722  10.476  71.462  1.00  0.00    -0.558 C  
BRANCH  12  13
ATOM     13  CG  GLU A   1     -13.414   9.176  71.869  1.00  0.00    -0.492 C  
ATOM     14  CD  GLU A   1     -12.460   8.011  71.920  1.00  0.00    -0.330 C  
ATOM     15  OE2 GLU A   1     -12.541   7.039  71.185  1.00  0.00    -0.377 OA 
ATOM     16  OE1 GLU A   1     -11.522   8.116  72.886  1.00  0.00    -0.389 OA 
ENDBRANCH  12  13
ENDBRANCH   8  12
ENDBRANCH   6   8
ENDBRANCH   2   6
TORSDOF 4
ENDMDL
MODEL      127
REMARK 921   NORMALIZED FREE ENERGY PREDICTED BY IDOCK:   -3.89 KCAL/MOL
REMARK 922        TOTAL FREE ENERGY PREDICTED BY IDOCK:   -4.64 KCAL/MOL
REMARK 923 INTER-LIGAND FREE ENERGY PREDICTED BY IDOCK:   -4.29 KCAL/MOL
REMARK 924 INTRA-LIGAND FREE ENERGY PREDICTED BY IDOCK:   -0.35 KCAL/MOL
REMARK 927      BINDING AFFINITY PREDICTED BY RF-SCORE:    0.00 PKD
ROOT
HETATM    1  N   UNK A   0      -8.429   8.849  66.036  1.00  0.00    -0.123 N  
HETATM    2  C   UNK A   0      -9.679   9.367  66.023  1.00  0.00    -0.275 C  
HETATM    3  H2  UNK A   0      -8.173   8.199  66.780  1.00  0.00     0.000 HD 
HETATM    4  H1  UNK A   0      -7.735   9.085  65.327  1.00  0.00     0.000 HD 
HETATM    5  O   UNK A   0     -10.511   9.084  66.872  1.00  0.00    -0.260 OA 
ENDROOT
BRANCH   2   6
ATOM      6  N   GLU A   1      -9.893  10.205  64.978  1.00  0.00    -0.315 N  
ATOM      7  H   GLU A   1      -9.349  10.086  64.124  1.00  0.00     0.000 HD 
BRANCH   6   8
ATOM      8  CA  GLU A   1     -10.885  11.269  65.051  1.00  0.00    -0.216 C  
ATOM      9  O   GLU A   1     -12.306  11.876  63.188  1.00  0.00    -0.485 OA 
ATOM     10  C   GLU A   1     -11.035  11.857  63.648  1.00  0.00    -0.440 C  
ATOM     11  OXT GLU A   1     -10.098  12.303  62.998  1.00  0.00    -0.300 OA 
BRANCH   8  12
ATOM     12  CB  GLU A   1     -10.449  12.361  66.038  1.00  0.00    -0.281 C  
BRANCH  12  13
ATOM     13  CG  GLU A   1     -11.519  12.647  67.090  1.00  0.00    -0.406 C  
ATOM     14  CD  GLU A   1     -12.153  14.002  66.908  1.00  0.00    -0.430 C  
ATOM     15  OE2 GLU A   1     -12.063  14.905  67.725  1.00  0.00    -0.260 OA 
ATOM     16  OE1 GLU A   1     -12.873  14.119  65.771  1.00  0.00    -0.502 OA 
ENDBRANCH  12  13
ENDBRANCH   8  12
ENDBRANCH   6   8
ENDBRANCH   2   6
TORSDOF 4
ENDMDL
MODEL      128
REMARK 921   NORMALIZED FREE ENERGY PREDICTED BY IDOCK:   -3.87 KCAL/MOL
REMARK 922        TOTAL FREE ENERGY PREDICTED BY IDOCK:   -4.62 KCAL/MOL
REMARK 923 INTER-LIGAND FREE ENERGY PREDICTED BY IDOCK:   -4.44 KCAL/MOL
REMARK 924 INTRA-LIGAND FREE ENERGY PREDICTED BY IDOCK:   -0.18 KCAL/MOL
REMARK 927      BINDING AFFINITY PREDICTED BY RF-SCORE:    0.00 PKD
ROOT
HETATM    1  N   UNK A   0     -11.373   5.785  71.323  1.00  0.00    -0.164 N  
HETATM    2  C   UNK A   0     -11.452   6.405  70.123  1.00  0.00    -0.417 C  
HETATM    3  H2  UNK A   0     -11.038   4.822  71.359  1.00  0.00     0.000 HD 
HETATM    4  H1  UNK A   0     -11.638   6.247  72.193  1.00  0.00     0.000 HD 
HETATM    5  O   UNK A   0     -11.135   5.851  69.081  1.00  0.00    -0.351 OA 
ENDROOT
BRANCH   2   6
ATOM      6  N   GLU A   1     -11.901   7.681  70.216  1.00  0.00    -0.490 N  
ATOM      7  H   GLU A   1     -12.251   8.150  69.381  1.00  0.00     0.000 HD 
BRANCH   6   8
ATOM      8  CA  GLU A   1     -11.894   8.396  71.486  1.00  0.00    -0.297 C  
ATOM      9  O   GLU A   1     -13.917   8.992  72.673  1.00  0.00    -0.463 OA 
ATOM     10  C   GLU A   1     -13.182   9.216  71.561  1.00  0.00    -0.352 C  
ATOM     11  OXT GLU A   1     -13.517  10.029  70.709  1.00  0.00    -0.316 OA 
BRANCH   8  12
ATOM     12  CB  GLU A   1     -10.673   9.320  71.591  1.00  0.00    -0.393 C  
BRANCH  12  13
ATOM     13  CG  GLU A   1      -9.363   8.538  71.655  1.00  0.00    -0.311 C  
ATOM     14  CD  GLU A   1      -9.008   8.129  73.061  1.00  0.00    -0.266 C  
ATOM     15  OE2 GLU A   1      -8.018   8.531  73.652  1.00  0.00    -0.373 OA 
ATOM     16  OE1 GLU A   1      -9.866   7.237  73.602  1.00  0.00    -0.252 OA 
ENDBRANCH  12  13
ENDBRANCH   8  12
ENDBRANCH   6   8
ENDBRANCH   2   6
TORSDOF 4
ENDMDL
MODEL      129
REMARK 921   NORMALIZED FREE ENERGY PREDICTED BY IDOCK:   -3.86 KCAL/MOL
REMARK 922        TOTAL FREE ENERGY PREDICTED BY IDOCK:   -4.60 KCAL/MOL
REMARK 923 INTER-LIGAND FREE ENERGY PREDICTED BY IDOCK:   -4.56 KCAL/MOL
REMARK 924 INTRA-LIGAND FREE ENERGY PREDICTED BY IDOCK:   -0.05 KCAL/MOL
REMARK 927      BINDING AFFINITY PREDICTED BY RF-SCORE:    0.00 PKD
ROOT
HETATM    1  N   UNK A   0      -9.248  14.171  67.210  1.00  0.00    -0.210 N  
HETATM    2  C   UNK A   0      -9.256  12.971  66.584  1.00  0.00    -0.219 C  
HETATM    3  H2  UNK A   0      -8.561  14.337  67.946  1.00  0.00     0.000 HD 
HETATM    4  H1  UNK A   0      -9.904  14.914  66.970  1.00  0.00     0.000 HD 
HETATM    5  O   UNK A   0      -8.470  12.081  66.871  1.00  0.00    -0.174 OA 
ENDROOT
BRANCH   2   6
ATOM      6  N   GLU A   1     -10.208  12.884  65.622  1.00  0.00    -0.283 N  
ATOM      7  H   GLU A   1     -10.043  13.320  64.715  1.00  0.00     0.000 HD 
BRANCH   6   8
ATOM      8  CA  GLU A   1     -11.461  12.179  65.857  1.00  0.00    -0.363 C  
ATOM      9  O   GLU A   1     -13.283  12.162  64.264  1.00  0.00    -0.768 OA 
ATOM     10  C   GLU A   1     -12.561  12.932  65.109  1.00  0.00    -0.471 C  
ATOM     11  OXT GLU A   1     -12.799  14.122  65.274  1.00  0.00    -0.670 OA 
BRANCH   8  12
ATOM     12  CB  GLU A   1     -11.787  12.120  67.356  1.00  0.00    -0.297 C  
BRANCH  12  13
ATOM     13  CG  GLU A   1     -11.528  10.736  67.948  1.00  0.00    -0.306 C  
ATOM     14  CD  GLU A   1     -11.163  10.797  69.408  1.00  0.00    -0.276 C  
ATOM     15  OE2 GLU A   1     -10.078  10.450  69.848  1.00  0.00    -0.209 OA 
ATOM     16  OE1 GLU A   1     -12.164  11.232  70.203  1.00  0.00    -0.313 OA 
ENDBRANCH  12  13
ENDBRANCH   8  12
ENDBRANCH   6   8
ENDBRANCH   2   6
TORSDOF 4
ENDMDL
MODEL      130
REMARK 921   NORMALIZED FREE ENERGY PREDICTED BY IDOCK:   -3.84 KCAL/MOL
REMARK 922        TOTAL FREE ENERGY PREDICTED BY IDOCK:   -4.58 KCAL/MOL
REMARK 923 INTER-LIGAND FREE ENERGY PREDICTED BY IDOCK:   -3.98 KCAL/MOL
REMARK 924 INTRA-LIGAND FREE ENERGY PREDICTED BY IDOCK:   -0.60 KCAL/MOL
REMARK 927      BINDING AFFINITY PREDICTED BY RF-SCORE:    0.00 PKD
ROOT
HETATM    1  N   UNK A   0     -12.636  10.623  69.772  1.00  0.00    -0.499 N  
HETATM    2  C   UNK A   0     -12.420  10.490  71.101  1.00  0.00    -0.412 C  
HETATM    3  H2  UNK A   0     -13.379  11.245  69.454  1.00  0.00     0.000 HD 
HETATM    4  H1  UNK A   0     -12.081  10.122  69.078  1.00  0.00     0.000 HD 
HETATM    5  O   UNK A   0     -13.085  11.089  71.933  1.00  0.00    -0.486 OA 
ENDROOT
BRANCH   2   6
ATOM      6  N   GLU A   1     -11.399   9.644  71.389  1.00  0.00    -0.379 N  
ATOM      7  H   GLU A   1     -10.616   9.978  71.950  1.00  0.00     0.000 HD 
BRANCH   6   8
ATOM      8  CA  GLU A   1     -11.399   8.267  70.912  1.00  0.00    -0.268 C  
ATOM      9  O   GLU A   1     -12.739   6.522  71.922  1.00  0.00    -0.325 OA 
ATOM     10  C   GLU A   1     -11.697   7.364  72.109  1.00  0.00    -0.290 C  
ATOM     11  OXT GLU A   1     -11.040   7.372  73.142  1.00  0.00    -0.353 OA 
BRANCH   8  12
ATOM     12  CB  GLU A   1     -10.042   7.897  70.296  1.00  0.00    -0.196 C  
BRANCH  12  13
ATOM     13  CG  GLU A   1     -10.115   7.772  68.776  1.00  0.00    -0.205 C  
ATOM     14  CD  GLU A   1      -9.957   9.101  68.084  1.00  0.00    -0.176 C  
ATOM     15  OE2 GLU A   1     -10.834   9.620  67.411  1.00  0.00    -0.274 OA 
ATOM     16  OE1 GLU A   1      -8.735   9.655  68.238  1.00  0.00    -0.119 OA 
ENDBRANCH  12  13
ENDBRANCH   8  12
ENDBRANCH   6   8
ENDBRANCH   2   6
TORSDOF 4
ENDMDL
MODEL      131
REMARK 921   NORMALIZED FREE ENERGY PREDICTED BY IDOCK:   -3.84 KCAL/MOL
REMARK 922        TOTAL FREE ENERGY PREDICTED BY IDOCK:   -4.58 KCAL/MOL
REMARK 923 INTER-LIGAND FREE ENERGY PREDICTED BY IDOCK:   -3.84 KCAL/MOL
REMARK 924 INTRA-LIGAND FREE ENERGY PREDICTED BY IDOCK:   -0.73 KCAL/MOL
REMARK 927      BINDING AFFINITY PREDICTED BY RF-SCORE:    0.00 PKD
ROOT
HETATM    1  N   UNK A   0      -9.510   7.704  66.261  1.00  0.00    -0.354 N  
HETATM    2  C   UNK A   0     -10.614   7.598  67.036  1.00  0.00    -0.336 C  
HETATM    3  H2  UNK A   0      -9.225   6.903  65.697  1.00  0.00     0.000 HD 
HETATM    4  H1  UNK A   0      -8.954   8.558  66.220  1.00  0.00     0.000 HD 
HETATM    5  O   UNK A   0     -11.280   6.575  67.085  1.00  0.00    -0.388 OA 
ENDROOT
BRANCH   2   6
ATOM      6  N   GLU A   1     -10.888   8.735  67.724  1.00  0.00    -0.491 N  
ATOM      7  H   GLU A   1     -11.855   9.045  67.810  1.00  0.00     0.000 HD 
BRANCH   6   8
ATOM      8  CA  GLU A   1      -9.828   9.520  68.343  1.00  0.00    -0.158 C  
ATOM      9  O   GLU A   1      -9.012   9.098  70.582  1.00  0.00    -0.205 OA 
ATOM     10  C   GLU A   1     -10.071   9.515  69.852  1.00  0.00    -0.232 C  
ATOM     11  OXT GLU A   1     -11.119   9.881  70.370  1.00  0.00    -0.270 OA 
BRANCH   8  12
ATOM     12  CB  GLU A   1      -9.828  10.960  67.813  1.00  0.00    -0.194 C  
BRANCH  12  13
ATOM     13  CG  GLU A   1     -11.036  11.246  66.922  1.00  0.00    -0.339 C  
ATOM     14  CD  GLU A   1     -10.655  11.393  65.472  1.00  0.00    -0.271 C  
ATOM     15  OE2 GLU A   1     -10.790  12.430  64.840  1.00  0.00    -0.279 OA 
ATOM     16  OE1 GLU A   1     -10.187  10.257  64.913  1.00  0.00    -0.327 OA 
ENDBRANCH  12  13
ENDBRANCH   8  12
ENDBRANCH   6   8
ENDBRANCH   2   6
TORSDOF 4
ENDMDL
MODEL      132
REMARK 921   NORMALIZED FREE ENERGY PREDICTED BY IDOCK:   -3.84 KCAL/MOL
REMARK 922        TOTAL FREE ENERGY PREDICTED BY IDOCK:   -4.57 KCAL/MOL
REMARK 923 INTER-LIGAND FREE ENERGY PREDICTED BY IDOCK:   -4.00 KCAL/MOL
REMARK 924 INTRA-LIGAND FREE ENERGY PREDICTED BY IDOCK:   -0.57 KCAL/MOL
REMARK 927      BINDING AFFINITY PREDICTED BY RF-SCORE:    0.00 PKD
ROOT
HETATM    1  N   UNK A   0     -12.622  10.335  70.171  1.00  0.00    -0.539 N  
HETATM    2  C   UNK A   0     -11.905  10.526  69.041  1.00  0.00    -0.111 C  
HETATM    3  H2  UNK A   0     -13.317  11.034  70.438  1.00  0.00     0.000 HD 
HETATM    4  H1  UNK A   0     -12.493   9.517  70.766  1.00  0.00     0.000 HD 
HETATM    5  O   UNK A   0     -12.060  11.507  68.328  1.00  0.00    -0.580 OA 
ENDROOT
BRANCH   2   6
ATOM      6  N   GLU A   1     -11.027   9.522  68.796  1.00  0.00    -0.426 N  
ATOM      7  H   GLU A   1     -10.683   9.379  67.847  1.00  0.00     0.000 HD 
BRANCH   6   8
ATOM      8  CA  GLU A   1     -10.565   8.643  69.862  1.00  0.00    -0.224 C  
ATOM      9  O   GLU A   1      -8.664   9.162  71.268  1.00  0.00    -0.270 OA 
ATOM     10  C   GLU A   1      -9.058   8.852  70.012  1.00  0.00    -0.166 C  
ATOM     11  OXT GLU A   1      -8.262   8.723  69.090  1.00  0.00    -0.115 OA 
BRANCH   8  12
ATOM     12  CB  GLU A   1     -10.864   7.174  69.534  1.00  0.00    -0.244 C  
BRANCH  12  13
ATOM     13  CG  GLU A   1     -11.163   6.353  70.787  1.00  0.00    -0.386 C  
ATOM     14  CD  GLU A   1     -11.970   7.125  71.798  1.00  0.00    -0.313 C  
ATOM     15  OE2 GLU A   1     -11.555   7.423  72.907  1.00  0.00    -0.262 OA 
ATOM     16  OE1 GLU A   1     -13.219   7.426  71.385  1.00  0.00    -0.364 OA 
ENDBRANCH  12  13
ENDBRANCH   8  12
ENDBRANCH   6   8
ENDBRANCH   2   6
TORSDOF 4
ENDMDL
MODEL      133
REMARK 921   NORMALIZED FREE ENERGY PREDICTED BY IDOCK:   -3.83 KCAL/MOL
REMARK 922        TOTAL FREE ENERGY PREDICTED BY IDOCK:   -4.57 KCAL/MOL
REMARK 923 INTER-LIGAND FREE ENERGY PREDICTED BY IDOCK:   -4.40 KCAL/MOL
REMARK 924 INTRA-LIGAND FREE ENERGY PREDICTED BY IDOCK:   -0.17 KCAL/MOL
REMARK 927      BINDING AFFINITY PREDICTED BY RF-SCORE:    0.00 PKD
ROOT
HETATM    1  N   UNK A   0     -11.718  14.778  64.355  1.00  0.00    -0.628 N  
HETATM    2  C   UNK A   0     -11.163  15.991  64.583  1.00  0.00    -0.330 C  
HETATM    3  H2  UNK A   0     -12.535  14.717  63.746  1.00  0.00     0.000 HD 
HETATM    4  H1  UNK A   0     -11.347  13.923  64.769  1.00  0.00     0.000 HD 
HETATM    5  O   UNK A   0     -11.607  17.015  64.086  1.00  0.00    -1.022 OA 
ENDROOT
BRANCH   2   6
ATOM      6  N   GLU A   1     -10.080  15.931  65.398  1.00  0.00    -0.314 N  
ATOM      7  H   GLU A   1      -9.153  15.813  64.989  1.00  0.00     0.000 HD 
BRANCH   6   8
ATOM      8  CA  GLU A   1     -10.214  16.033  66.845  1.00  0.00    -0.280 C  
ATOM      9  O   GLU A   1     -10.390  18.149  68.006  1.00  0.00    -0.363 OA 
ATOM     10  C   GLU A   1      -9.576  17.353  67.276  1.00  0.00    -0.258 C  
ATOM     11  OXT GLU A   1      -8.421  17.664  67.014  1.00  0.00    -0.223 OA 
BRANCH   8  12
ATOM     12  CB  GLU A   1      -9.520  14.858  67.547  1.00  0.00    -0.200 C  
BRANCH  12  13
ATOM     13  CG  GLU A   1      -9.608  13.567  66.734  1.00  0.00    -0.268 C  
ATOM     14  CD  GLU A   1      -8.783  12.457  67.330  1.00  0.00    -0.183 C  
ATOM     15  OE2 GLU A   1      -7.823  11.953  66.769  1.00  0.00    -0.146 OA 
ATOM     16  OE1 GLU A   1      -9.227  12.033  68.533  1.00  0.00    -0.185 OA 
ENDBRANCH  12  13
ENDBRANCH   8  12
ENDBRANCH   6   8
ENDBRANCH   2   6
TORSDOF 4
ENDMDL
MODEL      134
REMARK 921   NORMALIZED FREE ENERGY PREDICTED BY IDOCK:   -3.83 KCAL/MOL
REMARK 922        TOTAL FREE ENERGY PREDICTED BY IDOCK:   -4.57 KCAL/MOL
REMARK 923 INTER-LIGAND FREE ENERGY PREDICTED BY IDOCK:   -4.18 KCAL/MOL
REMARK 924 INTRA-LIGAND FREE ENERGY PREDICTED BY IDOCK:   -0.39 KCAL/MOL
REMARK 927      BINDING AFFINITY PREDICTED BY RF-SCORE:    0.00 PKD
ROOT
HETATM    1  N   UNK A   0      -8.826   7.638  65.756  1.00  0.00    -0.310 N  
HETATM    2  C   UNK A   0      -9.764   8.592  65.956  1.00  0.00    -0.125 C  
HETATM    3  H2  UNK A   0      -8.756   6.869  66.424  1.00  0.00     0.000 HD 
HETATM    4  H1  UNK A   0      -8.188   7.660  64.961  1.00  0.00     0.000 HD 
HETATM    5  O   UNK A   0     -10.529   8.565  66.909  1.00  0.00    -0.308 OA 
ENDROOT
BRANCH   2   6
ATOM      6  N   GLU A   1      -9.758   9.548  64.993  1.00  0.00    -0.447 N  
ATOM      7  H   GLU A   1      -9.301   9.356  64.102  1.00  0.00     0.000 HD 
BRANCH   6   8
ATOM      8  CA  GLU A   1     -10.392  10.842  65.207  1.00  0.00    -0.268 C  
ATOM      9  O   GLU A   1     -11.889  11.858  63.599  1.00  0.00    -0.457 OA 
ATOM     10  C   GLU A   1     -10.612  11.480  63.836  1.00  0.00    -0.391 C  
ATOM     11  OXT GLU A   1      -9.715  11.665  63.024  1.00  0.00    -0.396 OA 
BRANCH   8  12
ATOM     12  CB  GLU A   1      -9.511  11.750  66.076  1.00  0.00    -0.245 C  
BRANCH  12  13
ATOM     13  CG  GLU A   1     -10.327  12.529  67.107  1.00  0.00    -0.230 C  
ATOM     14  CD  GLU A   1     -10.877  11.640  68.192  1.00  0.00    -0.217 C  
ATOM     15  OE2 GLU A   1     -12.070  11.458  68.376  1.00  0.00    -0.575 OA 
ATOM     16  OE1 GLU A   1      -9.928  11.089  68.979  1.00  0.00    -0.205 OA 
ENDBRANCH  12  13
ENDBRANCH   8  12
ENDBRANCH   6   8
ENDBRANCH   2   6
TORSDOF 4
ENDMDL
MODEL      135
REMARK 921   NORMALIZED FREE ENERGY PREDICTED BY IDOCK:   -3.83 KCAL/MOL
REMARK 922        TOTAL FREE ENERGY PREDICTED BY IDOCK:   -4.56 KCAL/MOL
REMARK 923 INTER-LIGAND FREE ENERGY PREDICTED BY IDOCK:   -4.12 KCAL/MOL
REMARK 924 INTRA-LIGAND FREE ENERGY PREDICTED BY IDOCK:   -0.45 KCAL/MOL
REMARK 927      BINDING AFFINITY PREDICTED BY RF-SCORE:    0.00 PKD
ROOT
HETATM    1  N   UNK A   0      -8.244  13.392  68.748  1.00  0.00    -0.345 N  
HETATM    2  C   UNK A   0      -7.730  13.806  67.567  1.00  0.00    -0.176 C  
HETATM    3  H2  UNK A   0      -7.654  12.849  69.378  1.00  0.00     0.000 HD 
HETATM    4  H1  UNK A   0      -9.201  13.604  69.029  1.00  0.00     0.000 HD 
HETATM    5  O   UNK A   0      -6.583  13.552  67.230  1.00  0.00    -0.247 OA 
ENDROOT
BRANCH   2   6
ATOM      6  N   GLU A   1      -8.612  14.526  66.830  1.00  0.00    -0.395 N  
ATOM      7  H   GLU A   1      -8.373  15.478  66.555  1.00  0.00     0.000 HD 
BRANCH   6   8
ATOM      8  CA  GLU A   1      -9.894  13.965  66.423  1.00  0.00    -0.295 C  
ATOM      9  O   GLU A   1     -10.424  13.422  64.124  1.00  0.00    -0.393 OA 
ATOM     10  C   GLU A   1     -10.165  14.427  64.991  1.00  0.00    -0.374 C  
ATOM     11  OXT GLU A   1     -10.180  15.603  64.651  1.00  0.00    -0.284 OA 
BRANCH   8  12
ATOM     12  CB  GLU A   1     -11.021  14.435  67.352  1.00  0.00    -0.303 C  
BRANCH  12  13
ATOM     13  CG  GLU A   1     -12.068  13.348  67.585  1.00  0.00    -0.311 C  
ATOM     14  CD  GLU A   1     -11.458  12.066  68.092  1.00  0.00    -0.322 C  
ATOM     15  OE2 GLU A   1     -11.480  11.016  67.469  1.00  0.00    -0.468 OA 
ATOM     16  OE1 GLU A   1     -10.918  12.169  69.324  1.00  0.00    -0.200 OA 
ENDBRANCH  12  13
ENDBRANCH   8  12
ENDBRANCH   6   8
ENDBRANCH   2   6
TORSDOF 4
ENDMDL
MODEL      136
REMARK 921   NORMALIZED FREE ENERGY PREDICTED BY IDOCK:   -3.82 KCAL/MOL
REMARK 922        TOTAL FREE ENERGY PREDICTED BY IDOCK:   -4.55 KCAL/MOL
REMARK 923 INTER-LIGAND FREE ENERGY PREDICTED BY IDOCK:   -4.34 KCAL/MOL
REMARK 924 INTRA-LIGAND FREE ENERGY PREDICTED BY IDOCK:   -0.21 KCAL/MOL
REMARK 927      BINDING AFFINITY PREDICTED BY RF-SCORE:    0.00 PKD
ROOT
HETATM    1  N   UNK A   0     -12.278  10.193  69.799  1.00  0.00    -0.499 N  
HETATM    2  C   UNK A   0     -11.984  11.446  70.213  1.00  0.00    -0.373 C  
HETATM    3  H2  UNK A   0     -13.066   9.705  70.226  1.00  0.00     0.000 HD 
HETATM    4  H1  UNK A   0     -11.740   9.719  69.073  1.00  0.00     0.000 HD 
HETATM    5  O   UNK A   0     -12.629  12.014  71.082  1.00  0.00    -0.367 OA 
ENDROOT
BRANCH   2   6
ATOM      6  N   GLU A   1     -10.923  11.983  69.559  1.00  0.00    -0.457 N  
ATOM      7  H   GLU A   1      -9.979  11.773  69.881  1.00  0.00     0.000 HD 
BRANCH   6   8
ATOM      8  CA  GLU A   1     -11.107  12.854  68.405  1.00  0.00    -0.262 C  
ATOM      9  O   GLU A   1     -12.170  12.122  66.358  1.00  0.00    -0.592 OA 
ATOM     10  C   GLU A   1     -11.088  11.974  67.156  1.00  0.00    -0.290 C  
ATOM     11  OXT GLU A   1     -10.166  11.219  66.874  1.00  0.00    -0.206 OA 
BRANCH   8  12
ATOM     12  CB  GLU A   1      -9.993  13.907  68.327  1.00  0.00    -0.238 C  
BRANCH  12  13
ATOM     13  CG  GLU A   1     -10.540  15.304  68.040  1.00  0.00    -0.261 C  
ATOM     14  CD  GLU A   1     -10.013  16.334  69.006  1.00  0.00    -0.256 C  
ATOM     15  OE2 GLU A   1     -10.720  16.949  69.789  1.00  0.00    -0.291 OA 
ATOM     16  OE1 GLU A   1      -8.685  16.552  68.900  1.00  0.00    -0.245 OA 
ENDBRANCH  12  13
ENDBRANCH   8  12
ENDBRANCH   6   8
ENDBRANCH   2   6
TORSDOF 4
ENDMDL
MODEL      137
REMARK 921   NORMALIZED FREE ENERGY PREDICTED BY IDOCK:   -3.81 KCAL/MOL
REMARK 922        TOTAL FREE ENERGY PREDICTED BY IDOCK:   -4.54 KCAL/MOL
REMARK 923 INTER-LIGAND FREE ENERGY PREDICTED BY IDOCK:   -4.13 KCAL/MOL
REMARK 924 INTRA-LIGAND FREE ENERGY PREDICTED BY IDOCK:   -0.42 KCAL/MOL
REMARK 927      BINDING AFFINITY PREDICTED BY RF-SCORE:    0.00 PKD
ROOT
HETATM    1  N   UNK A   0     -10.102  16.707  65.818  1.00  0.00    -0.309 N  
HETATM    2  C   UNK A   0      -9.440  15.718  66.462  1.00  0.00    -0.272 C  
HETATM    3  H2  UNK A   0     -10.920  16.467  65.256  1.00  0.00     0.000 HD 
HETATM    4  H1  UNK A   0      -9.812  17.683  65.875  1.00  0.00     0.000 HD 
HETATM    5  O   UNK A   0      -9.788  14.548  66.394  1.00  0.00    -0.266 OA 
ENDROOT
BRANCH   2   6
ATOM      6  N   GLU A   1      -8.382  16.171  67.180  1.00  0.00    -0.182 N  
ATOM      7  H   GLU A   1      -7.877  15.526  67.786  1.00  0.00     0.000 HD 
BRANCH   6   8
ATOM      8  CA  GLU A   1      -7.954  17.562  67.103  1.00  0.00    -0.209 C  
ATOM      9  O   GLU A   1      -6.839  18.492  65.166  1.00  0.00    -0.528 OA 
ATOM     10  C   GLU A   1      -6.729  17.617  66.192  1.00  0.00    -0.285 C  
ATOM     11  OXT GLU A   1      -5.716  16.955  66.379  1.00  0.00    -0.330 OA 
BRANCH   8  12
ATOM     12  CB  GLU A   1      -7.604  18.108  68.494  1.00  0.00    -0.298 C  
BRANCH  12  13
ATOM     13  CG  GLU A   1      -8.327  19.419  68.797  1.00  0.00    -0.379 C  
ATOM     14  CD  GLU A   1      -9.613  19.556  68.023  1.00  0.00    -0.359 C  
ATOM     15  OE2 GLU A   1      -9.807  20.422  67.184  1.00  0.00    -0.433 OA 
ATOM     16  OE1 GLU A   1     -10.557  18.656  68.371  1.00  0.00    -0.277 OA 
ENDBRANCH  12  13
ENDBRANCH   8  12
ENDBRANCH   6   8
ENDBRANCH   2   6
TORSDOF 4
ENDMDL
MODEL      138
REMARK 921   NORMALIZED FREE ENERGY PREDICTED BY IDOCK:   -3.81 KCAL/MOL
REMARK 922        TOTAL FREE ENERGY PREDICTED BY IDOCK:   -4.54 KCAL/MOL
REMARK 923 INTER-LIGAND FREE ENERGY PREDICTED BY IDOCK:   -3.75 KCAL/MOL
REMARK 924 INTRA-LIGAND FREE ENERGY PREDICTED BY IDOCK:   -0.79 KCAL/MOL
REMARK 927      BINDING AFFINITY PREDICTED BY RF-SCORE:    0.00 PKD
ROOT
HETATM    1  N   UNK A   0      -9.933  11.175  67.306  1.00  0.00    -0.182 N  
HETATM    2  C   UNK A   0     -10.397   9.914  67.152  1.00  0.00    -0.243 C  
HETATM    3  H2  UNK A   0      -9.472  11.630  66.518  1.00  0.00     0.000 HD 
HETATM    4  H1  UNK A   0     -10.029  11.687  68.184  1.00  0.00     0.000 HD 
HETATM    5  O   UNK A   0     -10.282   9.301  66.101  1.00  0.00    -0.273 OA 
ENDROOT
BRANCH   2   6
ATOM      6  N   GLU A   1     -10.996   9.431  68.269  1.00  0.00    -0.471 N  
ATOM      7  H   GLU A   1     -12.013   9.364  68.301  1.00  0.00     0.000 HD 
BRANCH   6   8
ATOM      8  CA  GLU A   1     -10.216   9.005  69.424  1.00  0.00    -0.204 C  
ATOM      9  O   GLU A   1      -9.022   6.902  69.504  1.00  0.00    -0.142 OA 
ATOM     10  C   GLU A   1     -10.245   7.478  69.462  1.00  0.00    -0.207 C  
ATOM     11  OXT GLU A   1     -11.278   6.820  69.482  1.00  0.00    -0.285 OA 
BRANCH   8  12
ATOM     12  CB  GLU A   1     -10.799   9.577  70.723  1.00  0.00    -0.386 C  
BRANCH  12  13
ATOM     13  CG  GLU A   1     -12.191  10.171  70.517  1.00  0.00    -0.352 C  
ATOM     14  CD  GLU A   1     -12.194  11.674  70.625  1.00  0.00    -0.366 C  
ATOM     15  OE2 GLU A   1     -12.794  12.288  71.493  1.00  0.00    -0.370 OA 
ATOM     16  OE1 GLU A   1     -11.504  12.292  69.642  1.00  0.00    -0.266 OA 
ENDBRANCH  12  13
ENDBRANCH   8  12
ENDBRANCH   6   8
ENDBRANCH   2   6
TORSDOF 4
ENDMDL
MODEL      139
REMARK 921   NORMALIZED FREE ENERGY PREDICTED BY IDOCK:   -3.81 KCAL/MOL
REMARK 922        TOTAL FREE ENERGY PREDICTED BY IDOCK:   -4.54 KCAL/MOL
REMARK 923 INTER-LIGAND FREE ENERGY PREDICTED BY IDOCK:   -4.25 KCAL/MOL
REMARK 924 INTRA-LIGAND FREE ENERGY PREDICTED BY IDOCK:   -0.29 KCAL/MOL
REMARK 927      BINDING AFFINITY PREDICTED BY RF-SCORE:    0.00 PKD
ROOT
HETATM    1  N   UNK A   0     -12.764  15.444  70.285  1.00  0.00    -0.611 N  
HETATM    2  C   UNK A   0     -11.842  15.522  69.299  1.00  0.00    -0.353 C  
HETATM    3  H2  UNK A   0     -13.582  14.849  70.148  1.00  0.00     0.000 HD 
HETATM    4  H1  UNK A   0     -12.670  15.958  71.161  1.00  0.00     0.000 HD 
HETATM    5  O   UNK A   0     -11.954  14.906  68.250  1.00  0.00    -0.299 OA 
ENDROOT
BRANCH   2   6
ATOM      6  N   GLU A   1     -10.802  16.336  69.612  1.00  0.00    -0.326 N  
ATOM      7  H   GLU A   1     -10.500  16.409  70.583  1.00  0.00     0.000 HD 
BRANCH   6   8
ATOM      8  CA  GLU A   1     -10.109  17.106  68.588  1.00  0.00    -0.329 C  
ATOM      9  O   GLU A   1      -8.552  16.116  67.022  1.00  0.00    -0.178 OA 
ATOM     10  C   GLU A   1      -8.770  16.419  68.322  1.00  0.00    -0.201 C  
ATOM     11  OXT GLU A   1      -7.944  16.184  69.195  1.00  0.00    -0.227 OA 
BRANCH   8  12
ATOM     12  CB  GLU A   1      -9.878  18.552  69.049  1.00  0.00    -0.313 C  
BRANCH  12  13
ATOM     13  CG  GLU A   1      -8.948  19.315  68.108  1.00  0.00    -0.371 C  
ATOM     14  CD  GLU A   1      -9.530  19.467  66.726  1.00  0.00    -0.333 C  
ATOM     15  OE2 GLU A   1      -9.035  18.969  65.727  1.00  0.00    -0.388 OA 
ATOM     16  OE1 GLU A   1     -10.633  20.243  66.682  1.00  0.00    -0.323 OA 
ENDBRANCH  12  13
ENDBRANCH   8  12
ENDBRANCH   6   8
ENDBRANCH   2   6
TORSDOF 4
ENDMDL
MODEL      140
REMARK 921   NORMALIZED FREE ENERGY PREDICTED BY IDOCK:   -3.81 KCAL/MOL
REMARK 922        TOTAL FREE ENERGY PREDICTED BY IDOCK:   -4.54 KCAL/MOL
REMARK 923 INTER-LIGAND FREE ENERGY PREDICTED BY IDOCK:   -4.27 KCAL/MOL
REMARK 924 INTRA-LIGAND FREE ENERGY PREDICTED BY IDOCK:   -0.27 KCAL/MOL
REMARK 927      BINDING AFFINITY PREDICTED BY RF-SCORE:    0.00 PKD
ROOT
HETATM    1  N   UNK A   0     -12.292   8.106  72.665  1.00  0.00    -0.606 N  
HETATM    2  C   UNK A   0     -12.241   7.811  71.346  1.00  0.00    -0.319 C  
HETATM    3  H2  UNK A   0     -12.577   7.379  73.322  1.00  0.00     0.000 HD 
HETATM    4  H1  UNK A   0     -12.054   9.031  73.026  1.00  0.00     0.000 HD 
HETATM    5  O   UNK A   0     -12.525   6.703  70.915  1.00  0.00    -0.325 OA 
ENDROOT
BRANCH   2   6
ATOM      6  N   GLU A   1     -11.838   8.859  70.585  1.00  0.00    -0.450 N  
ATOM      7  H   GLU A   1     -12.409   9.703  70.555  1.00  0.00     0.000 HD 
BRANCH   6   8
ATOM      8  CA  GLU A   1     -10.606   8.802  69.810  1.00  0.00    -0.224 C  
ATOM      9  O   GLU A   1      -8.728   7.403  70.421  1.00  0.00    -0.142 OA 
ATOM     10  C   GLU A   1      -9.467   8.478  70.777  1.00  0.00    -0.178 C  
ATOM     11  OXT GLU A   1      -9.217   9.142  71.775  1.00  0.00    -0.338 OA 
BRANCH   8  12
ATOM     12  CB  GLU A   1     -10.336  10.140  69.107  1.00  0.00    -0.237 C  
BRANCH  12  13
ATOM     13  CG  GLU A   1     -10.814  10.134  67.656  1.00  0.00    -0.346 C  
ATOM     14  CD  GLU A   1     -10.940  11.525  67.089  1.00  0.00    -0.286 C  
ATOM     15  OE2 GLU A   1     -12.000  12.015  66.733  1.00  0.00    -0.616 OA 
ATOM     16  OE1 GLU A   1      -9.762  12.173  66.969  1.00  0.00    -0.197 OA 
ENDBRANCH  12  13
ENDBRANCH   8  12
ENDBRANCH   6   8
ENDBRANCH   2   6
TORSDOF 4
ENDMDL
MODEL      141
REMARK 921   NORMALIZED FREE ENERGY PREDICTED BY IDOCK:   -3.79 KCAL/MOL
REMARK 922        TOTAL FREE ENERGY PREDICTED BY IDOCK:   -4.52 KCAL/MOL
REMARK 923 INTER-LIGAND FREE ENERGY PREDICTED BY IDOCK:   -4.96 KCAL/MOL
REMARK 924 INTRA-LIGAND FREE ENERGY PREDICTED BY IDOCK:    0.44 KCAL/MOL
REMARK 927      BINDING AFFINITY PREDICTED BY RF-SCORE:    0.00 PKD
ROOT
HETATM    1  N   UNK A   0      -8.030  12.920  66.810  1.00  0.00    -0.396 N  
HETATM    2  C   UNK A   0      -8.771  14.003  67.139  1.00  0.00    -0.221 C  
HETATM    3  H2  UNK A   0      -7.231  13.041  66.187  1.00  0.00     0.000 HD 
HETATM    4  H1  UNK A   0      -8.242  11.987  67.164  1.00  0.00     0.000 HD 
HETATM    5  O   UNK A   0      -8.517  15.120  66.715  1.00  0.00    -0.242 OA 
ENDROOT
BRANCH   2   6
ATOM      6  N   GLU A   1      -9.794  13.707  67.980  1.00  0.00    -0.236 N  
ATOM      7  H   GLU A   1      -9.640  13.748  68.987  1.00  0.00     0.000 HD 
BRANCH   6   8
ATOM      8  CA  GLU A   1     -11.108  13.332  67.472  1.00  0.00    -0.270 C  
ATOM      9  O   GLU A   1     -12.267  11.326  68.172  1.00  0.00    -0.622 OA 
ATOM     10  C   GLU A   1     -11.195  11.807  67.501  1.00  0.00    -0.291 C  
ATOM     11  OXT GLU A   1     -10.388  11.072  66.946  1.00  0.00    -0.216 OA 
BRANCH   8  12
ATOM     12  CB  GLU A   1     -11.312  13.846  66.041  1.00  0.00    -0.324 C  
BRANCH  12  13
ATOM     13  CG  GLU A   1     -11.321  12.712  65.017  1.00  0.00    -0.345 C  
ATOM     14  CD  GLU A   1     -12.554  12.733  64.150  1.00  0.00    -0.305 C  
ATOM     15  OE2 GLU A   1     -13.391  11.845  64.146  1.00  0.00    -0.652 OA 
ATOM     16  OE1 GLU A   1     -12.631  13.810  63.340  1.00  0.00    -0.842 OA 
ENDBRANCH  12  13
ENDBRANCH   8  12
ENDBRANCH   6   8
ENDBRANCH   2   6
TORSDOF 4
ENDMDL
MODEL      142
REMARK 921   NORMALIZED FREE ENERGY PREDICTED BY IDOCK:   -3.78 KCAL/MOL
REMARK 922        TOTAL FREE ENERGY PREDICTED BY IDOCK:   -4.50 KCAL/MOL
REMARK 923 INTER-LIGAND FREE ENERGY PREDICTED BY IDOCK:   -4.09 KCAL/MOL
REMARK 924 INTRA-LIGAND FREE ENERGY PREDICTED BY IDOCK:   -0.42 KCAL/MOL
REMARK 927      BINDING AFFINITY PREDICTED BY RF-SCORE:    0.00 PKD
ROOT
HETATM    1  N   UNK A   0      -6.949  16.647  68.547  1.00  0.00    -0.153 N  
HETATM    2  C   UNK A   0      -7.573  17.829  68.337  1.00  0.00    -0.269 C  
HETATM    3  H2  UNK A   0      -5.950  16.576  68.351  1.00  0.00     0.000 HD 
HETATM    4  H1  UNK A   0      -7.442  15.825  68.896  1.00  0.00     0.000 HD 
HETATM    5  O   UNK A   0      -6.981  18.813  67.920  1.00  0.00    -0.217 OA 
ENDROOT
BRANCH   2   6
ATOM      6  N   GLU A   1      -8.893  17.791  68.647  1.00  0.00    -0.287 N  
ATOM      7  H   GLU A   1      -9.219  18.247  69.499  1.00  0.00     0.000 HD 
BRANCH   6   8
ATOM      8  CA  GLU A   1      -9.854  17.113  67.787  1.00  0.00    -0.274 C  
ATOM      9  O   GLU A   1     -10.331  17.829  65.524  1.00  0.00    -0.623 OA 
ATOM     10  C   GLU A   1     -10.434  18.157  66.832  1.00  0.00    -0.357 C  
ATOM     11  OXT GLU A   1     -10.975  19.190  67.207  1.00  0.00    -0.478 OA 
BRANCH   8  12
ATOM     12  CB  GLU A   1     -10.977  16.472  68.613  1.00  0.00    -0.344 C  
BRANCH  12  13
ATOM     13  CG  GLU A   1     -11.602  15.273  67.903  1.00  0.00    -0.301 C  
ATOM     14  CD  GLU A   1     -10.565  14.336  67.340  1.00  0.00    -0.276 C  
ATOM     15  OE2 GLU A   1     -10.427  14.120  66.146  1.00  0.00    -0.284 OA 
ATOM     16  OE1 GLU A   1      -9.822  13.717  68.281  1.00  0.00    -0.224 OA 
ENDBRANCH  12  13
ENDBRANCH   8  12
ENDBRANCH   6   8
ENDBRANCH   2   6
TORSDOF 4
ENDMDL
MODEL      143
REMARK 921   NORMALIZED FREE ENERGY PREDICTED BY IDOCK:   -3.77 KCAL/MOL
REMARK 922        TOTAL FREE ENERGY PREDICTED BY IDOCK:   -4.50 KCAL/MOL
REMARK 923 INTER-LIGAND FREE ENERGY PREDICTED BY IDOCK:   -4.30 KCAL/MOL
REMARK 924 INTRA-LIGAND FREE ENERGY PREDICTED BY IDOCK:   -0.20 KCAL/MOL
REMARK 927      BINDING AFFINITY PREDICTED BY RF-SCORE:    0.00 PKD
ROOT
HETATM    1  N   UNK A   0      -9.864  19.519  68.358  1.00  0.00    -0.402 N  
HETATM    2  C   UNK A   0      -9.665  18.204  68.608  1.00  0.00    -0.357 C  
HETATM    3  H2  UNK A   0     -10.737  19.951  68.661  1.00  0.00     0.000 HD 
HETATM    4  H1  UNK A   0      -9.170  20.092  67.878  1.00  0.00     0.000 HD 
HETATM    5  O   UNK A   0     -10.496  17.517  69.183  1.00  0.00    -0.347 OA 
ENDROOT
BRANCH   2   6
ATOM      6  N   GLU A   1      -8.463  17.758  68.165  1.00  0.00    -0.254 N  
ATOM      7  H   GLU A   1      -7.659  17.782  68.792  1.00  0.00     0.000 HD 
BRANCH   6   8
ATOM      8  CA  GLU A   1      -8.297  17.244  66.811  1.00  0.00    -0.245 C  
ATOM      9  O   GLU A   1      -6.566  18.022  65.309  1.00  0.00    -0.350 OA 
ATOM     10  C   GLU A   1      -7.699  18.366  65.962  1.00  0.00    -0.165 C  
ATOM     11  OXT GLU A   1      -8.207  19.475  65.851  1.00  0.00    -0.411 OA 
BRANCH   8  12
ATOM     12  CB  GLU A   1      -9.643  16.798  66.223  1.00  0.00    -0.313 C  
BRANCH  12  13
ATOM     13  CG  GLU A   1      -9.794  15.277  66.221  1.00  0.00    -0.316 C  
ATOM     14  CD  GLU A   1     -11.194  14.842  65.872  1.00  0.00    -0.328 C  
ATOM     15  OE2 GLU A   1     -11.926  14.242  66.644  1.00  0.00    -0.410 OA 
ATOM     16  OE1 GLU A   1     -11.558  15.138  64.606  1.00  0.00    -0.404 OA 
ENDBRANCH  12  13
ENDBRANCH   8  12
ENDBRANCH   6   8
ENDBRANCH   2   6
TORSDOF 4
ENDMDL
MODEL      144
REMARK 921   NORMALIZED FREE ENERGY PREDICTED BY IDOCK:   -3.77 KCAL/MOL
REMARK 922        TOTAL FREE ENERGY PREDICTED BY IDOCK:   -4.49 KCAL/MOL
REMARK 923 INTER-LIGAND FREE ENERGY PREDICTED BY IDOCK:   -4.18 KCAL/MOL
REMARK 924 INTRA-LIGAND FREE ENERGY PREDICTED BY IDOCK:   -0.32 KCAL/MOL
REMARK 927      BINDING AFFINITY PREDICTED BY RF-SCORE:    0.00 PKD
ROOT
HETATM    1  N   UNK A   0      -9.717  13.557  68.652  1.00  0.00    -0.385 N  
HETATM    2  C   UNK A   0      -9.133  13.858  67.470  1.00  0.00    -0.201 C  
HETATM    3  H2  UNK A   0      -9.131  13.478  69.484  1.00  0.00     0.000 HD 
HETATM    4  H1  UNK A   0     -10.722  13.406  68.740  1.00  0.00     0.000 HD 
HETATM    5  O   UNK A   0      -7.929  14.039  67.364  1.00  0.00    -0.172 OA 
ENDROOT
BRANCH   2   6
ATOM      6  N   GLU A   1     -10.022  13.944  66.448  1.00  0.00    -0.289 N  
ATOM      7  H   GLU A   1     -10.403  14.855  66.193  1.00  0.00     0.000 HD 
BRANCH   6   8
ATOM      8  CA  GLU A   1     -10.442  12.762  65.708  1.00  0.00    -0.276 C  
ATOM      9  O   GLU A   1     -12.744  12.344  65.090  1.00  0.00    -0.630 OA 
ATOM     10  C   GLU A   1     -11.878  12.444  66.123  1.00  0.00    -0.376 C  
ATOM     11  OXT GLU A   1     -12.223  12.265  67.285  1.00  0.00    -0.485 OA 
BRANCH   8  12
ATOM     12  CB  GLU A   1      -9.528  11.567  66.013  1.00  0.00    -0.249 C  
BRANCH  12  13
ATOM     13  CG  GLU A   1      -9.967  10.303  65.279  1.00  0.00    -0.387 C  
ATOM     14  CD  GLU A   1      -9.811   9.065  66.125  1.00  0.00    -0.278 C  
ATOM     15  OE2 GLU A   1      -9.048   8.152  65.850  1.00  0.00    -0.177 OA 
ATOM     16  OE1 GLU A   1     -10.626   9.034  67.200  1.00  0.00    -0.272 OA 
ENDBRANCH  12  13
ENDBRANCH   8  12
ENDBRANCH   6   8
ENDBRANCH   2   6
TORSDOF 4
ENDMDL
MODEL      145
REMARK 921   NORMALIZED FREE ENERGY PREDICTED BY IDOCK:   -3.75 KCAL/MOL
REMARK 922        TOTAL FREE ENERGY PREDICTED BY IDOCK:   -4.48 KCAL/MOL
REMARK 923 INTER-LIGAND FREE ENERGY PREDICTED BY IDOCK:   -4.23 KCAL/MOL
REMARK 924 INTRA-LIGAND FREE ENERGY PREDICTED BY IDOCK:   -0.24 KCAL/MOL
REMARK 927      BINDING AFFINITY PREDICTED BY RF-SCORE:    0.00 PKD
ROOT
HETATM    1  N   UNK A   0     -11.398   6.604  67.366  1.00  0.00    -0.763 N  
HETATM    2  C   UNK A   0     -10.848   6.500  68.597  1.00  0.00    -0.295 C  
HETATM    3  H2  UNK A   0     -11.925   5.814  66.993  1.00  0.00     0.000 HD 
HETATM    4  H1  UNK A   0     -11.306   7.446  66.797  1.00  0.00     0.000 HD 
HETATM    5  O   UNK A   0     -10.959   5.491  69.278  1.00  0.00    -0.255 OA 
ENDROOT
BRANCH   2   6
ATOM      6  N   GLU A   1     -10.186   7.622  68.976  1.00  0.00    -0.202 N  
ATOM      7  H   GLU A   1      -9.289   7.843  68.544  1.00  0.00     0.000 HD 
BRANCH   6   8
ATOM      8  CA  GLU A   1     -10.731   8.518  69.987  1.00  0.00    -0.232 C  
ATOM      9  O   GLU A   1     -11.074  10.883  69.605  1.00  0.00    -0.242 OA 
ATOM     10  C   GLU A   1     -10.146   9.908  69.736  1.00  0.00    -0.242 C  
ATOM     11  OXT GLU A   1      -8.945  10.137  69.684  1.00  0.00    -0.202 OA 
BRANCH   8  12
ATOM     12  CB  GLU A   1     -10.368   8.040  71.400  1.00  0.00    -0.243 C  
BRANCH  12  13
ATOM     13  CG  GLU A   1     -11.452   8.384  72.420  1.00  0.00    -0.451 C  
ATOM     14  CD  GLU A   1     -12.827   8.416  71.806  1.00  0.00    -0.345 C  
ATOM     15  OE2 GLU A   1     -13.513   9.424  71.739  1.00  0.00    -0.377 OA 
ATOM     16  OE1 GLU A   1     -13.258   7.214  71.369  1.00  0.00    -0.385 OA 
ENDBRANCH  12  13
ENDBRANCH   8  12
ENDBRANCH   6   8
ENDBRANCH   2   6
TORSDOF 4
ENDMDL
MODEL      146
REMARK 921   NORMALIZED FREE ENERGY PREDICTED BY IDOCK:   -3.75 KCAL/MOL
REMARK 922        TOTAL FREE ENERGY PREDICTED BY IDOCK:   -4.47 KCAL/MOL
REMARK 923 INTER-LIGAND FREE ENERGY PREDICTED BY IDOCK:   -4.19 KCAL/MOL
REMARK 924 INTRA-LIGAND FREE ENERGY PREDICTED BY IDOCK:   -0.28 KCAL/MOL
REMARK 927      BINDING AFFINITY PREDICTED BY RF-SCORE:    0.00 PKD
ROOT
HETATM    1  N   UNK A   0     -10.608  18.391  65.863  1.00  0.00    -0.395 N  
HETATM    2  C   UNK A   0     -10.893  17.175  65.344  1.00  0.00    -0.046 C  
HETATM    3  H2  UNK A   0     -10.833  19.224  65.320  1.00  0.00     0.000 HD 
HETATM    4  H1  UNK A   0     -10.175  18.503  66.781  1.00  0.00     0.000 HD 
HETATM    5  O   UNK A   0     -11.411  17.041  64.245  1.00  0.00    -1.124 OA 
ENDROOT
BRANCH   2   6
ATOM      6  N   GLU A   1     -10.554  16.154  66.170  1.00  0.00    -0.306 N  
ATOM      7  H   GLU A   1     -10.929  16.134  67.118  1.00  0.00     0.000 HD 
BRANCH   6   8
ATOM      8  CA  GLU A   1      -9.666  15.086  65.730  1.00  0.00    -0.340 C  
ATOM      9  O   GLU A   1     -10.429  13.187  64.437  1.00  0.00    -0.393 OA 
ATOM     10  C   GLU A   1     -10.496  13.806  65.638  1.00  0.00    -0.305 C  
ATOM     11  OXT GLU A   1     -11.145  13.352  66.572  1.00  0.00    -0.291 OA 
BRANCH   8  12
ATOM     12  CB  GLU A   1      -8.505  14.894  66.715  1.00  0.00    -0.215 C  
BRANCH  12  13
ATOM     13  CG  GLU A   1      -7.667  16.162  66.872  1.00  0.00    -0.284 C  
ATOM     14  CD  GLU A   1      -6.673  16.054  67.999  1.00  0.00    -0.127 C  
ATOM     15  OE2 GLU A   1      -6.705  16.758  68.997  1.00  0.00    -0.183 OA 
ATOM     16  OE1 GLU A   1      -5.708  15.134  67.790  1.00  0.00    -0.183 OA 
ENDBRANCH  12  13
ENDBRANCH   8  12
ENDBRANCH   6   8
ENDBRANCH   2   6
TORSDOF 4
ENDMDL
MODEL      147
REMARK 921   NORMALIZED FREE ENERGY PREDICTED BY IDOCK:   -3.74 KCAL/MOL
REMARK 922        TOTAL FREE ENERGY PREDICTED BY IDOCK:   -4.46 KCAL/MOL
REMARK 923 INTER-LIGAND FREE ENERGY PREDICTED BY IDOCK:   -3.88 KCAL/MOL
REMARK 924 INTRA-LIGAND FREE ENERGY PREDICTED BY IDOCK:   -0.58 KCAL/MOL
REMARK 927      BINDING AFFINITY PREDICTED BY RF-SCORE:    0.00 PKD
ROOT
HETATM    1  N   UNK A   0      -8.588  18.251  66.342  1.00  0.00    -0.267 N  
HETATM    2  C   UNK A   0      -9.934  18.220  66.216  1.00  0.00    -0.357 C  
HETATM    3  H2  UNK A   0      -8.130  19.145  66.520  1.00  0.00     0.000 HD 
HETATM    4  H1  UNK A   0      -8.015  17.410  66.265  1.00  0.00     0.000 HD 
HETATM    5  O   UNK A   0     -10.621  19.227  66.308  1.00  0.00    -0.441 OA 
ENDROOT
BRANCH   2   6
ATOM      6  N   GLU A   1     -10.416  16.972  65.992  1.00  0.00    -0.316 N  
ATOM      7  H   GLU A   1     -10.905  16.775  65.119  1.00  0.00     0.000 HD 
BRANCH   6   8
ATOM      8  CA  GLU A   1     -10.249  15.908  66.974  1.00  0.00    -0.283 C  
ATOM      9  O   GLU A   1     -10.071  13.572  66.367  1.00  0.00    -0.279 OA 
ATOM     10  C   GLU A   1     -10.892  14.646  66.400  1.00  0.00    -0.315 C  
ATOM     11  OXT GLU A   1     -12.057  14.590  66.026  1.00  0.00    -0.364 OA 
BRANCH   8  12
ATOM     12  CB  GLU A   1     -10.913  16.280  68.307  1.00  0.00    -0.348 C  
BRANCH  12  13
ATOM     13  CG  GLU A   1     -10.087  15.823  69.508  1.00  0.00    -0.279 C  
ATOM     14  CD  GLU A   1      -8.606  15.871  69.236  1.00  0.00    -0.247 C  
ATOM     15  OE2 GLU A   1      -7.891  14.881  69.219  1.00  0.00    -0.168 OA 
ATOM     16  OE1 GLU A   1      -8.125  17.119  69.054  1.00  0.00    -0.220 OA 
ENDBRANCH  12  13
ENDBRANCH   8  12
ENDBRANCH   6   8
ENDBRANCH   2   6
TORSDOF 4
ENDMDL
MODEL      148
REMARK 921   NORMALIZED FREE ENERGY PREDICTED BY IDOCK:   -3.72 KCAL/MOL
REMARK 922        TOTAL FREE ENERGY PREDICTED BY IDOCK:   -4.43 KCAL/MOL
REMARK 923 INTER-LIGAND FREE ENERGY PREDICTED BY IDOCK:   -4.70 KCAL/MOL
REMARK 924 INTRA-LIGAND FREE ENERGY PREDICTED BY IDOCK:    0.26 KCAL/MOL
REMARK 927      BINDING AFFINITY PREDICTED BY RF-SCORE:    0.00 PKD
ROOT
HETATM    1  N   UNK A   0     -13.354   9.498  72.539  1.00  0.00    -0.609 N  
HETATM    2  C   UNK A   0     -13.286  10.556  71.699  1.00  0.00    -0.391 C  
HETATM    3  H2  UNK A   0     -13.425   9.670  73.543  1.00  0.00     0.000 HD 
HETATM    4  H1  UNK A   0     -13.338   8.535  72.204  1.00  0.00     0.000 HD 
HETATM    5  O   UNK A   0     -13.305  11.710  72.100  1.00  0.00    -0.491 OA 
ENDROOT
BRANCH   2   6
ATOM      6  N   GLU A   1     -13.206  10.191  70.395  1.00  0.00    -0.557 N  
ATOM      7  H   GLU A   1     -13.981   9.681  69.971  1.00  0.00     0.000 HD 
BRANCH   6   8
ATOM      8  CA  GLU A   1     -12.036  10.512  69.588  1.00  0.00    -0.208 C  
ATOM      9  O   GLU A   1     -10.296   8.905  69.091  1.00  0.00    -0.212 OA 
ATOM     10  C   GLU A   1     -10.887   9.627  70.070  1.00  0.00    -0.264 C  
ATOM     11  OXT GLU A   1     -10.504   9.588  71.233  1.00  0.00    -0.320 OA 
BRANCH   8  12
ATOM     12  CB  GLU A   1     -11.658  11.993  69.732  1.00  0.00    -0.348 C  
BRANCH  12  13
ATOM     13  CG  GLU A   1     -10.999  12.544  68.469  1.00  0.00    -0.280 C  
ATOM     14  CD  GLU A   1     -11.558  13.885  68.070  1.00  0.00    -0.333 C  
ATOM     15  OE2 GLU A   1     -12.167  14.080  67.029  1.00  0.00    -0.430 OA 
ATOM     16  OE1 GLU A   1     -11.290  14.872  68.951  1.00  0.00    -0.255 OA 
ENDBRANCH  12  13
ENDBRANCH   8  12
ENDBRANCH   6   8
ENDBRANCH   2   6
TORSDOF 4
ENDMDL
MODEL      149
REMARK 921   NORMALIZED FREE ENERGY PREDICTED BY IDOCK:   -3.71 KCAL/MOL
REMARK 922        TOTAL FREE ENERGY PREDICTED BY IDOCK:   -4.42 KCAL/MOL
REMARK 923 INTER-LIGAND FREE ENERGY PREDICTED BY IDOCK:   -3.87 KCAL/MOL
REMARK 924 INTRA-LIGAND FREE ENERGY PREDICTED BY IDOCK:   -0.55 KCAL/MOL
REMARK 927      BINDING AFFINITY PREDICTED BY RF-SCORE:    0.00 PKD
ROOT
HETATM    1  N   UNK A   0      -9.049  14.492  69.120  1.00  0.00    -0.388 N  
HETATM    2  C   UNK A   0      -8.443  13.580  68.326  1.00  0.00    -0.168 C  
HETATM    3  H2  UNK A   0      -8.472  15.095  69.707  1.00  0.00     0.000 HD 
HETATM    4  H1  UNK A   0     -10.063  14.598  69.152  1.00  0.00     0.000 HD 
HETATM    5  O   UNK A   0      -7.228  13.453  68.287  1.00  0.00    -0.090 OA 
ENDROOT
BRANCH   2   6
ATOM      6  N   GLU A   1      -9.322  12.853  67.591  1.00  0.00    -0.187 N  
ATOM      7  H   GLU A   1      -9.426  13.051  66.596  1.00  0.00     0.000 HD 
BRANCH   6   8
ATOM      8  CA  GLU A   1     -10.120  11.793  68.195  1.00  0.00    -0.192 C  
ATOM      9  O   GLU A   1      -9.166  10.050  69.577  1.00  0.00    -0.200 OA 
ATOM     10  C   GLU A   1      -9.226  10.561  68.326  1.00  0.00    -0.152 C  
ATOM     11  OXT GLU A   1      -8.633  10.051  67.383  1.00  0.00    -0.125 OA 
BRANCH   8  12
ATOM     12  CB  GLU A   1     -11.346  11.467  67.331  1.00  0.00    -0.367 C  
BRANCH  12  13
ATOM     13  CG  GLU A   1     -11.216  12.021  65.914  1.00  0.00    -0.385 C  
ATOM     14  CD  GLU A   1     -12.199  13.130  65.640  1.00  0.00    -0.466 C  
ATOM     15  OE2 GLU A   1     -13.090  13.053  64.808  1.00  0.00    -0.742 OA 
ATOM     16  OE1 GLU A   1     -11.982  14.244  66.372  1.00  0.00    -0.402 OA 
ENDBRANCH  12  13
ENDBRANCH   8  12
ENDBRANCH   6   8
ENDBRANCH   2   6
TORSDOF 4
ENDMDL
MODEL      150
REMARK 921   NORMALIZED FREE ENERGY PREDICTED BY IDOCK:   -3.70 KCAL/MOL
REMARK 922        TOTAL FREE ENERGY PREDICTED BY IDOCK:   -4.41 KCAL/MOL
REMARK 923 INTER-LIGAND FREE ENERGY PREDICTED BY IDOCK:   -3.97 KCAL/MOL
REMARK 924 INTRA-LIGAND FREE ENERGY PREDICTED BY IDOCK:   -0.44 KCAL/MOL
REMARK 927      BINDING AFFINITY PREDICTED BY RF-SCORE:    0.00 PKD
ROOT
HETATM    1  N   UNK A   0     -11.406   6.657  67.228  1.00  0.00    -0.783 N  
HETATM    2  C   UNK A   0     -10.599   7.623  67.724  1.00  0.00    -0.196 C  
HETATM    3  H2  UNK A   0     -11.140   6.192  66.360  1.00  0.00     0.000 HD 
HETATM    4  H1  UNK A   0     -12.269   6.377  67.693  1.00  0.00     0.000 HD 
HETATM    5  O   UNK A   0      -9.564   7.958  67.167  1.00  0.00    -0.150 OA 
ENDROOT
BRANCH   2   6
ATOM      6  N   GLU A   1     -11.060   8.151  68.885  1.00  0.00    -0.403 N  
ATOM      7  H   GLU A   1     -11.810   8.842  68.857  1.00  0.00     0.000 HD 
BRANCH   6   8
ATOM      8  CA  GLU A   1     -10.505   7.752  70.172  1.00  0.00    -0.231 C  
ATOM      9  O   GLU A   1     -10.891   5.574  71.154  1.00  0.00    -0.239 OA 
ATOM     10  C   GLU A   1     -11.469   6.743  70.796  1.00  0.00    -0.342 C  
ATOM     11  OXT GLU A   1     -12.656   6.971  70.989  1.00  0.00    -0.375 OA 
BRANCH   8  12
ATOM     12  CB  GLU A   1     -10.336   8.964  71.099  1.00  0.00    -0.338 C  
BRANCH  12  13
ATOM     13  CG  GLU A   1      -9.757   8.574  72.457  1.00  0.00    -0.326 C  
ATOM     14  CD  GLU A   1      -8.339   8.075  72.353  1.00  0.00    -0.153 C  
ATOM     15  OE2 GLU A   1      -8.002   6.935  72.634  1.00  0.00    -0.101 OA 
ATOM     16  OE1 GLU A   1      -7.457   9.018  71.960  1.00  0.00    -0.337 OA 
ENDBRANCH  12  13
ENDBRANCH   8  12
ENDBRANCH   6   8
ENDBRANCH   2   6
TORSDOF 4
ENDMDL
MODEL      151
REMARK 921   NORMALIZED FREE ENERGY PREDICTED BY IDOCK:   -3.70 KCAL/MOL
REMARK 922        TOTAL FREE ENERGY PREDICTED BY IDOCK:   -4.41 KCAL/MOL
REMARK 923 INTER-LIGAND FREE ENERGY PREDICTED BY IDOCK:   -4.02 KCAL/MOL
REMARK 924 INTRA-LIGAND FREE ENERGY PREDICTED BY IDOCK:   -0.39 KCAL/MOL
REMARK 927      BINDING AFFINITY PREDICTED BY RF-SCORE:    0.00 PKD
ROOT
HETATM    1  N   UNK A   0     -11.204   6.528  66.615  1.00  0.00    -0.694 N  
HETATM    2  C   UNK A   0     -10.374   7.515  67.023  1.00  0.00    -0.324 C  
HETATM    3  H2  UNK A   0     -10.816   5.746  66.086  1.00  0.00     0.000 HD 
HETATM    4  H1  UNK A   0     -12.203   6.538  66.819  1.00  0.00     0.000 HD 
HETATM    5  O   UNK A   0      -9.176   7.503  66.779  1.00  0.00    -0.141 OA 
ENDROOT
BRANCH   2   6
ATOM      6  N   GLU A   1     -11.012   8.486  67.724  1.00  0.00    -0.486 N  
ATOM      7  H   GLU A   1     -11.885   8.264  68.202  1.00  0.00     0.000 HD 
BRANCH   6   8
ATOM      8  CA  GLU A   1     -10.475   9.837  67.808  1.00  0.00    -0.246 C  
ATOM      9  O   GLU A   1      -8.932  10.537  69.536  1.00  0.00    -0.145 OA 
ATOM     10  C   GLU A   1     -10.197  10.133  69.281  1.00  0.00    -0.223 C  
ATOM     11  OXT GLU A   1     -11.044  10.043  70.161  1.00  0.00    -0.265 OA 
BRANCH   8  12
ATOM     12  CB  GLU A   1     -11.469  10.861  67.242  1.00  0.00    -0.104 C  
BRANCH  12  13
ATOM     13  CG  GLU A   1     -10.851  12.251  67.108  1.00  0.00    -0.282 C  
ATOM     14  CD  GLU A   1     -11.746  13.331  67.659  1.00  0.00    -0.366 C  
ATOM     15  OE2 GLU A   1     -12.235  14.217  66.975  1.00  0.00    -0.432 OA 
ATOM     16  OE1 GLU A   1     -11.927  13.260  68.995  1.00  0.00    -0.310 OA 
ENDBRANCH  12  13
ENDBRANCH   8  12
ENDBRANCH   6   8
ENDBRANCH   2   6
TORSDOF 4
ENDMDL
MODEL      152
REMARK 921   NORMALIZED FREE ENERGY PREDICTED BY IDOCK:   -3.68 KCAL/MOL
REMARK 922        TOTAL FREE ENERGY PREDICTED BY IDOCK:   -4.38 KCAL/MOL
REMARK 923 INTER-LIGAND FREE ENERGY PREDICTED BY IDOCK:   -3.92 KCAL/MOL
REMARK 924 INTRA-LIGAND FREE ENERGY PREDICTED BY IDOCK:   -0.46 KCAL/MOL
REMARK 927      BINDING AFFINITY PREDICTED BY RF-SCORE:    0.00 PKD
ROOT
HETATM    1  N   UNK A   0      -9.620  10.144  69.883  1.00  0.00    -0.384 N  
HETATM    2  C   UNK A   0     -10.680   9.866  69.090  1.00  0.00    -0.224 C  
HETATM    3  H2  UNK A   0      -9.028  10.941  69.652  1.00  0.00     0.000 HD 
HETATM    4  H1  UNK A   0      -9.394   9.583  70.705  1.00  0.00     0.000 HD 
HETATM    5  O   UNK A   0     -10.952  10.537  68.106  1.00  0.00    -0.235 OA 
ENDROOT
BRANCH   2   6
ATOM      6  N   GLU A   1     -11.390   8.790  69.514  1.00  0.00    -0.423 N  
ATOM      7  H   GLU A   1     -12.403   8.864  69.604  1.00  0.00     0.000 HD 
BRANCH   6   8
ATOM      8  CA  GLU A   1     -10.734   7.531  69.843  1.00  0.00    -0.246 C  
ATOM      9  O   GLU A   1      -8.973   6.570  68.489  1.00  0.00    -0.127 OA 
ATOM     10  C   GLU A   1     -10.287   6.888  68.531  1.00  0.00    -0.186 C  
ATOM     11  OXT GLU A   1     -11.047   6.648  67.601  1.00  0.00    -0.305 OA 
BRANCH   8  12
ATOM     12  CB  GLU A   1     -11.688   6.592  70.593  1.00  0.00    -0.452 C  
BRANCH  12  13
ATOM     13  CG  GLU A   1     -11.360   6.507  72.083  1.00  0.00    -0.321 C  
ATOM     14  CD  GLU A   1     -11.038   7.855  72.676  1.00  0.00    -0.385 C  
ATOM     15  OE2 GLU A   1      -9.946   8.146  73.137  1.00  0.00    -0.282 OA 
ATOM     16  OE1 GLU A   1     -12.085   8.707  72.692  1.00  0.00    -0.351 OA 
ENDBRANCH  12  13
ENDBRANCH   8  12
ENDBRANCH   6   8
ENDBRANCH   2   6
TORSDOF 4
ENDMDL
MODEL      153
REMARK 921   NORMALIZED FREE ENERGY PREDICTED BY IDOCK:   -3.68 KCAL/MOL
REMARK 922        TOTAL FREE ENERGY PREDICTED BY IDOCK:   -4.38 KCAL/MOL
REMARK 923 INTER-LIGAND FREE ENERGY PREDICTED BY IDOCK:   -4.07 KCAL/MOL
REMARK 924 INTRA-LIGAND FREE ENERGY PREDICTED BY IDOCK:   -0.31 KCAL/MOL
REMARK 927      BINDING AFFINITY PREDICTED BY RF-SCORE:    0.00 PKD
ROOT
HETATM    1  N   UNK A   0      -9.982  10.896  69.520  1.00  0.00    -0.437 N  
HETATM    2  C   UNK A   0     -11.246  10.474  69.290  1.00  0.00    -0.262 C  
HETATM    3  H2  UNK A   0      -9.462  11.334  68.759  1.00  0.00     0.000 HD 
HETATM    4  H1  UNK A   0      -9.530  10.792  70.429  1.00  0.00     0.000 HD 
HETATM    5  O   UNK A   0     -11.788  10.599  68.202  1.00  0.00    -0.482 OA 
ENDROOT
BRANCH   2   6
ATOM      6  N   GLU A   1     -11.826   9.922  70.386  1.00  0.00    -0.376 N  
ATOM      7  H   GLU A   1     -12.443  10.492  70.964  1.00  0.00     0.000 HD 
BRANCH   6   8
ATOM      8  CA  GLU A   1     -11.586   8.532  70.751  1.00  0.00    -0.231 C  
ATOM      9  O   GLU A   1     -11.155   7.824  73.025  1.00  0.00    -0.398 OA 
ATOM     10  C   GLU A   1     -10.673   8.530  71.977  1.00  0.00    -0.340 C  
ATOM     11  OXT GLU A   1      -9.584   9.089  72.011  1.00  0.00    -0.306 OA 
BRANCH   8  12
ATOM     12  CB  GLU A   1     -10.924   7.766  69.598  1.00  0.00    -0.128 C  
BRANCH  12  13
ATOM     13  CG  GLU A   1     -11.392   6.314  69.526  1.00  0.00    -0.475 C  
ATOM     14  CD  GLU A   1     -10.275   5.339  69.792  1.00  0.00    -0.294 C  
ATOM     15  OE2 GLU A   1      -9.862   4.543  68.963  1.00  0.00    -0.173 OA 
ATOM     16  OE1 GLU A   1      -9.793   5.391  71.052  1.00  0.00    -0.170 OA 
ENDBRANCH  12  13
ENDBRANCH   8  12
ENDBRANCH   6   8
ENDBRANCH   2   6
TORSDOF 4
ENDMDL
MODEL      154
REMARK 921   NORMALIZED FREE ENERGY PREDICTED BY IDOCK:   -3.67 KCAL/MOL
REMARK 922        TOTAL FREE ENERGY PREDICTED BY IDOCK:   -4.37 KCAL/MOL
REMARK 923 INTER-LIGAND FREE ENERGY PREDICTED BY IDOCK:   -3.92 KCAL/MOL
REMARK 924 INTRA-LIGAND FREE ENERGY PREDICTED BY IDOCK:   -0.45 KCAL/MOL
REMARK 927      BINDING AFFINITY PREDICTED BY RF-SCORE:    0.00 PKD
ROOT
HETATM    1  N   UNK A   0      -9.986   8.721  71.505  1.00  0.00    -0.271 N  
HETATM    2  C   UNK A   0     -11.080   9.279  70.939  1.00  0.00    -0.306 C  
HETATM    3  H2  UNK A   0      -9.846   8.822  72.510  1.00  0.00     0.000 HD 
HETATM    4  H1  UNK A   0      -9.296   8.202  70.961  1.00  0.00     0.000 HD 
HETATM    5  O   UNK A   0     -11.907   9.901  71.591  1.00  0.00    -0.379 OA 
ENDROOT
BRANCH   2   6
ATOM      6  N   GLU A   1     -11.152   9.062  69.602  1.00  0.00    -0.417 N  
ATOM      7  H   GLU A   1     -11.787   8.348  69.245  1.00  0.00     0.000 HD 
BRANCH   6   8
ATOM      8  CA  GLU A   1     -10.341   9.829  68.665  1.00  0.00    -0.201 C  
ATOM      9  O   GLU A   1     -10.304  12.249  68.629  1.00  0.00    -0.225 OA 
ATOM     10  C   GLU A   1     -11.063  11.152  68.406  1.00  0.00    -0.247 C  
ATOM     11  OXT GLU A   1     -12.217  11.225  68.004  1.00  0.00    -0.621 OA 
BRANCH   8  12
ATOM     12  CB  GLU A   1     -10.150   9.065  67.348  1.00  0.00    -0.291 C  
BRANCH  12  13
ATOM     13  CG  GLU A   1      -9.069   9.692  66.470  1.00  0.00    -0.185 C  
ATOM     14  CD  GLU A   1      -9.522   9.870  65.044  1.00  0.00    -0.280 C  
ATOM     15  OE2 GLU A   1      -9.012   9.292  64.096  1.00  0.00    -0.191 OA 
ATOM     16  OE1 GLU A   1     -10.522  10.765  64.897  1.00  0.00    -0.311 OA 
ENDBRANCH  12  13
ENDBRANCH   8  12
ENDBRANCH   6   8
ENDBRANCH   2   6
TORSDOF 4
ENDMDL
MODEL      155
REMARK 921   NORMALIZED FREE ENERGY PREDICTED BY IDOCK:   -3.67 KCAL/MOL
REMARK 922        TOTAL FREE ENERGY PREDICTED BY IDOCK:   -4.37 KCAL/MOL
REMARK 923 INTER-LIGAND FREE ENERGY PREDICTED BY IDOCK:   -3.86 KCAL/MOL
REMARK 924 INTRA-LIGAND FREE ENERGY PREDICTED BY IDOCK:   -0.51 KCAL/MOL
REMARK 927      BINDING AFFINITY PREDICTED BY RF-SCORE:    0.00 PKD
ROOT
HETATM    1  N   UNK A   0     -10.169   9.183  71.232  1.00  0.00    -0.312 N  
HETATM    2  C   UNK A   0     -11.333   9.753  70.844  1.00  0.00    -0.365 C  
HETATM    3  H2  UNK A   0      -9.926   9.186  72.223  1.00  0.00     0.000 HD 
HETATM    4  H1  UNK A   0      -9.527   8.751  70.568  1.00  0.00     0.000 HD 
HETATM    5  O   UNK A   0     -12.103  10.271  71.639  1.00  0.00    -0.353 OA 
ENDROOT
BRANCH   2   6
ATOM      6  N   GLU A   1     -11.540   9.672  69.505  1.00  0.00    -0.444 N  
ATOM      7  H   GLU A   1     -12.431   9.316  69.159  1.00  0.00     0.000 HD 
BRANCH   6   8
ATOM      8  CA  GLU A   1     -10.517  10.085  68.554  1.00  0.00    -0.202 C  
ATOM      9  O   GLU A   1      -9.851  12.392  68.252  1.00  0.00    -0.218 OA 
ATOM     10  C   GLU A   1     -10.858  11.503  68.096  1.00  0.00    -0.215 C  
ATOM     11  OXT GLU A   1     -11.934  11.813  67.601  1.00  0.00    -0.599 OA 
BRANCH   8  12
ATOM     12  CB  GLU A   1     -10.472   9.136  67.348  1.00  0.00    -0.339 C  
BRANCH  12  13
ATOM     13  CG  GLU A   1      -9.511   7.970  67.568  1.00  0.00    -0.177 C  
ATOM     14  CD  GLU A   1     -10.052   6.960  68.548  1.00  0.00    -0.161 C  
ATOM     15  OE2 GLU A   1      -9.530   6.718  69.625  1.00  0.00    -0.147 OA 
ATOM     16  OE1 GLU A   1     -11.149   6.309  68.109  1.00  0.00    -0.329 OA 
ENDBRANCH  12  13
ENDBRANCH   8  12
ENDBRANCH   6   8
ENDBRANCH   2   6
TORSDOF 4
ENDMDL
MODEL      156
REMARK 921   NORMALIZED FREE ENERGY PREDICTED BY IDOCK:   -3.66 KCAL/MOL
REMARK 922        TOTAL FREE ENERGY PREDICTED BY IDOCK:   -4.36 KCAL/MOL
REMARK 923 INTER-LIGAND FREE ENERGY PREDICTED BY IDOCK:   -3.93 KCAL/MOL
REMARK 924 INTRA-LIGAND FREE ENERGY PREDICTED BY IDOCK:   -0.43 KCAL/MOL
REMARK 927      BINDING AFFINITY PREDICTED BY RF-SCORE:    0.00 PKD
ROOT
HETATM    1  N   UNK A   0     -10.408  14.506  68.430  1.00  0.00    -0.235 N  
HETATM    2  C   UNK A   0     -10.254  15.848  68.355  1.00  0.00    -0.226 C  
HETATM    3  H2  UNK A   0     -10.719  14.094  69.311  1.00  0.00     0.000 HD 
HETATM    4  H1  UNK A   0     -10.223  13.892  67.637  1.00  0.00     0.000 HD 
HETATM    5  O   UNK A   0     -10.475  16.584  69.305  1.00  0.00    -0.285 OA 
ENDROOT
BRANCH   2   6
ATOM      6  N   GLU A   1      -9.848  16.265  67.130  1.00  0.00    -0.239 N  
ATOM      7  H   GLU A   1      -9.896  15.620  66.341  1.00  0.00     0.000 HD 
BRANCH   6   8
ATOM      8  CA  GLU A   1      -9.345  17.616  66.918  1.00  0.00    -0.264 C  
ATOM      9  O   GLU A   1     -10.790  19.554  66.790  1.00  0.00    -0.460 OA 
ATOM     10  C   GLU A   1     -10.430  18.401  66.181  1.00  0.00    -0.395 C  
ATOM     11  OXT GLU A   1     -10.919  18.044  65.117  1.00  0.00    -0.645 OA 
BRANCH   8  12
ATOM     12  CB  GLU A   1      -8.052  17.600  66.092  1.00  0.00    -0.228 C  
BRANCH  12  13
ATOM     13  CG  GLU A   1      -7.426  18.988  65.974  1.00  0.00    -0.279 C  
ATOM     14  CD  GLU A   1      -7.171  19.616  67.320  1.00  0.00    -0.219 C  
ATOM     15  OE2 GLU A   1      -7.724  20.634  67.705  1.00  0.00    -0.244 OA 
ATOM     16  OE1 GLU A   1      -6.236  18.975  68.053  1.00  0.00    -0.211 OA 
ENDBRANCH  12  13
ENDBRANCH   8  12
ENDBRANCH   6   8
ENDBRANCH   2   6
TORSDOF 4
ENDMDL
MODEL      157
REMARK 921   NORMALIZED FREE ENERGY PREDICTED BY IDOCK:   -3.64 KCAL/MOL
REMARK 922        TOTAL FREE ENERGY PREDICTED BY IDOCK:   -4.33 KCAL/MOL
REMARK 923 INTER-LIGAND FREE ENERGY PREDICTED BY IDOCK:   -4.09 KCAL/MOL
REMARK 924 INTRA-LIGAND FREE ENERGY PREDICTED BY IDOCK:   -0.24 KCAL/MOL
REMARK 927      BINDING AFFINITY PREDICTED BY RF-SCORE:    0.00 PKD
ROOT
HETATM    1  N   UNK A   0     -10.000  10.684  66.622  1.00  0.00    -0.205 N  
HETATM    2  C   UNK A   0     -11.152  10.675  67.331  1.00  0.00    -0.272 C  
HETATM    3  H2  UNK A   0      -9.782  11.498  66.047  1.00  0.00     0.000 HD 
HETATM    4  H1  UNK A   0      -9.343   9.904  66.642  1.00  0.00     0.000 HD 
HETATM    5  O   UNK A   0     -11.940  11.609  67.307  1.00  0.00    -0.627 OA 
ENDROOT
BRANCH   2   6
ATOM      6  N   GLU A   1     -11.316   9.543  68.060  1.00  0.00    -0.434 N  
ATOM      7  H   GLU A   1     -12.248   9.290  68.387  1.00  0.00     0.000 HD 
BRANCH   6   8
ATOM      8  CA  GLU A   1     -10.186   8.681  68.385  1.00  0.00    -0.200 C  
ATOM      9  O   GLU A   1      -9.218   7.126  66.803  1.00  0.00    -0.145 OA 
ATOM     10  C   GLU A   1     -10.315   7.414  67.539  1.00  0.00    -0.251 C  
ATOM     11  OXT GLU A   1     -11.308   6.697  67.541  1.00  0.00    -0.271 OA 
BRANCH   8  12
ATOM     12  CB  GLU A   1     -10.179   8.322  69.877  1.00  0.00    -0.201 C  
BRANCH  12  13
ATOM     13  CG  GLU A   1     -10.680   9.472  70.749  1.00  0.00    -0.391 C  
ATOM     14  CD  GLU A   1     -11.803   9.051  71.661  1.00  0.00    -0.360 C  
ATOM     15  OE2 GLU A   1     -12.936   9.501  71.588  1.00  0.00    -0.342 OA 
ATOM     16  OE1 GLU A   1     -11.436   8.157  72.602  1.00  0.00    -0.392 OA 
ENDBRANCH  12  13
ENDBRANCH   8  12
ENDBRANCH   6   8
ENDBRANCH   2   6
TORSDOF 4
ENDMDL
MODEL      158
REMARK 921   NORMALIZED FREE ENERGY PREDICTED BY IDOCK:   -3.62 KCAL/MOL
REMARK 922        TOTAL FREE ENERGY PREDICTED BY IDOCK:   -4.30 KCAL/MOL
REMARK 923 INTER-LIGAND FREE ENERGY PREDICTED BY IDOCK:   -3.95 KCAL/MOL
REMARK 924 INTRA-LIGAND FREE ENERGY PREDICTED BY IDOCK:   -0.36 KCAL/MOL
REMARK 927      BINDING AFFINITY PREDICTED BY RF-SCORE:    0.00 PKD
ROOT
HETATM    1  N   UNK A   0      -8.596  18.016  66.447  1.00  0.00    -0.253 N  
HETATM    2  C   UNK A   0      -9.766  17.345  66.342  1.00  0.00    -0.290 C  
HETATM    3  H2  UNK A   0      -8.404  18.776  65.794  1.00  0.00     0.000 HD 
HETATM    4  H1  UNK A   0      -7.900  17.789  67.157  1.00  0.00     0.000 HD 
HETATM    5  O   UNK A   0     -10.600  17.618  65.492  1.00  0.00    -0.622 OA 
ENDROOT
BRANCH   2   6
ATOM      6  N   GLU A   1      -9.900  16.369  67.275  1.00  0.00    -0.240 N  
ATOM      7  H   GLU A   1     -10.281  15.464  67.000  1.00  0.00     0.000 HD 
BRANCH   6   8
ATOM      8  CA  GLU A   1      -9.511  16.588  68.662  1.00  0.00    -0.243 C  
ATOM      9  O   GLU A   1      -7.240  16.311  69.453  1.00  0.00    -0.225 OA 
ATOM     10  C   GLU A   1      -8.324  15.672  68.958  1.00  0.00    -0.235 C  
ATOM     11  OXT GLU A   1      -8.349  14.458  68.794  1.00  0.00    -0.157 OA 
BRANCH   8  12
ATOM     12  CB  GLU A   1     -10.672  16.274  69.616  1.00  0.00    -0.338 C  
BRANCH  12  13
ATOM     13  CG  GLU A   1     -11.889  15.719  68.879  1.00  0.00    -0.354 C  
ATOM     14  CD  GLU A   1     -11.855  14.217  68.767  1.00  0.00    -0.349 C  
ATOM     15  OE2 GLU A   1     -11.778  13.620  67.704  1.00  0.00    -0.321 OA 
ATOM     16  OE1 GLU A   1     -11.960  13.579  69.952  1.00  0.00    -0.316 OA 
ENDBRANCH  12  13
ENDBRANCH   8  12
ENDBRANCH   6   8
ENDBRANCH   2   6
TORSDOF 4
ENDMDL
MODEL      159
REMARK 921   NORMALIZED FREE ENERGY PREDICTED BY IDOCK:   -3.61 KCAL/MOL
REMARK 922        TOTAL FREE ENERGY PREDICTED BY IDOCK:   -4.29 KCAL/MOL
REMARK 923 INTER-LIGAND FREE ENERGY PREDICTED BY IDOCK:   -3.96 KCAL/MOL
REMARK 924 INTRA-LIGAND FREE ENERGY PREDICTED BY IDOCK:   -0.33 KCAL/MOL
REMARK 927      BINDING AFFINITY PREDICTED BY RF-SCORE:    0.00 PKD
ROOT
HETATM    1  N   UNK A   0      -7.781  12.372  66.709  1.00  0.00    -0.385 N  
HETATM    2  C   UNK A   0      -8.166  13.174  67.728  1.00  0.00    -0.168 C  
HETATM    3  H2  UNK A   0      -7.070  12.708  66.060  1.00  0.00     0.000 HD 
HETATM    4  H1  UNK A   0      -8.178  11.443  66.569  1.00  0.00     0.000 HD 
HETATM    5  O   UNK A   0      -7.690  14.288  67.897  1.00  0.00    -0.123 OA 
ENDROOT
BRANCH   2   6
ATOM      6  N   GLU A   1      -9.107  12.606  68.522  1.00  0.00    -0.370 N  
ATOM      7  H   GLU A   1      -8.814  12.034  69.314  1.00  0.00     0.000 HD 
BRANCH   6   8
ATOM      8  CA  GLU A   1     -10.529  12.796  68.267  1.00  0.00    -0.241 C  
ATOM      9  O   GLU A   1     -12.139  10.992  68.370  1.00  0.00    -0.594 OA 
ATOM     10  C   GLU A   1     -11.075  11.487  67.698  1.00  0.00    -0.266 C  
ATOM     11  OXT GLU A   1     -10.616  10.937  66.704  1.00  0.00    -0.246 OA 
BRANCH   8  12
ATOM     12  CB  GLU A   1     -10.761  13.941  67.272  1.00  0.00    -0.286 C  
BRANCH  12  13
ATOM     13  CG  GLU A   1     -11.943  14.822  67.673  1.00  0.00    -0.244 C  
ATOM     14  CD  GLU A   1     -11.671  15.608  68.930  1.00  0.00    -0.384 C  
ATOM     15  OE2 GLU A   1     -12.295  15.457  69.968  1.00  0.00    -0.359 OA 
ATOM     16  OE1 GLU A   1     -10.697  16.533  68.794  1.00  0.00    -0.296 OA 
ENDBRANCH  12  13
ENDBRANCH   8  12
ENDBRANCH   6   8
ENDBRANCH   2   6
TORSDOF 4
ENDMDL
MODEL      160
REMARK 921   NORMALIZED FREE ENERGY PREDICTED BY IDOCK:   -3.60 KCAL/MOL
REMARK 922        TOTAL FREE ENERGY PREDICTED BY IDOCK:   -4.29 KCAL/MOL
REMARK 923 INTER-LIGAND FREE ENERGY PREDICTED BY IDOCK:   -3.62 KCAL/MOL
REMARK 924 INTRA-LIGAND FREE ENERGY PREDICTED BY IDOCK:   -0.67 KCAL/MOL
REMARK 927      BINDING AFFINITY PREDICTED BY RF-SCORE:    0.00 PKD
ROOT
HETATM    1  N   UNK A   0      -6.626  18.326  69.286  1.00  0.00    -0.255 N  
HETATM    2  C   UNK A   0      -6.690  17.188  68.558  1.00  0.00    -0.178 C  
HETATM    3  H2  UNK A   0      -5.895  19.006  69.075  1.00  0.00     0.000 HD 
HETATM    4  H1  UNK A   0      -7.284  18.528  70.039  1.00  0.00     0.000 HD 
HETATM    5  O   UNK A   0      -5.902  16.946  67.655  1.00  0.00    -0.122 OA 
ENDROOT
BRANCH   2   6
ATOM      6  N   GLU A   1      -7.712  16.377  68.933  1.00  0.00    -0.219 N  
ATOM      7  H   GLU A   1      -7.502  15.463  69.332  1.00  0.00     0.000 HD 
BRANCH   6   8
ATOM      8  CA  GLU A   1      -9.101  16.788  68.776  1.00  0.00    -0.259 C  
ATOM      9  O   GLU A   1     -10.882  15.977  70.201  1.00  0.00    -0.321 OA 
ATOM     10  C   GLU A   1      -9.979  15.632  69.255  1.00  0.00    -0.265 C  
ATOM     11  OXT GLU A   1      -9.903  14.494  68.809  1.00  0.00    -0.224 OA 
BRANCH   8  12
ATOM     12  CB  GLU A   1      -9.416  17.119  67.311  1.00  0.00    -0.245 C  
BRANCH  12  13
ATOM     13  CG  GLU A   1     -10.305  18.354  67.178  1.00  0.00    -0.419 C  
ATOM     14  CD  GLU A   1      -9.773  19.529  67.957  1.00  0.00    -0.376 C  
ATOM     15  OE2 GLU A   1     -10.360  20.035  68.900  1.00  0.00    -0.411 OA 
ATOM     16  OE1 GLU A   1      -8.599  20.006  67.490  1.00  0.00    -0.322 OA 
ENDBRANCH  12  13
ENDBRANCH   8  12
ENDBRANCH   6   8
ENDBRANCH   2   6
TORSDOF 4
ENDMDL
MODEL      161
REMARK 921   NORMALIZED FREE ENERGY PREDICTED BY IDOCK:   -3.59 KCAL/MOL
REMARK 922        TOTAL FREE ENERGY PREDICTED BY IDOCK:   -4.27 KCAL/MOL
REMARK 923 INTER-LIGAND FREE ENERGY PREDICTED BY IDOCK:   -3.92 KCAL/MOL
REMARK 924 INTRA-LIGAND FREE ENERGY PREDICTED BY IDOCK:   -0.35 KCAL/MOL
REMARK 927      BINDING AFFINITY PREDICTED BY RF-SCORE:    0.00 PKD
ROOT
HETATM    1  N   UNK A   0      -9.312  13.843  66.930  1.00  0.00    -0.249 N  
HETATM    2  C   UNK A   0      -8.648  14.617  67.819  1.00  0.00    -0.173 C  
HETATM    3  H2  UNK A   0      -8.776  13.315  66.241  1.00  0.00     0.000 HD 
HETATM    4  H1  UNK A   0     -10.329  13.769  66.926  1.00  0.00     0.000 HD 
HETATM    5  O   UNK A   0      -7.429  14.705  67.825  1.00  0.00    -0.132 OA 
ENDROOT
BRANCH   2   6
ATOM      6  N   GLU A   1      -9.475  15.255  68.685  1.00  0.00    -0.196 N  
ATOM      7  H   GLU A   1      -9.248  15.263  69.679  1.00  0.00     0.000 HD 
BRANCH   6   8
ATOM      8  CA  GLU A   1     -10.681  15.930  68.222  1.00  0.00    -0.291 C  
ATOM      9  O   GLU A   1     -10.648  17.709  66.582  1.00  0.00    -0.305 OA 
ATOM     10  C   GLU A   1     -10.292  17.357  67.838  1.00  0.00    -0.369 C  
ATOM     11  OXT GLU A   1      -9.732  18.135  68.601  1.00  0.00    -0.333 OA 
BRANCH   8  12
ATOM     12  CB  GLU A   1     -11.754  15.953  69.319  1.00  0.00    -0.360 C  
BRANCH  12  13
ATOM     13  CG  GLU A   1     -11.269  15.302  70.613  1.00  0.00    -0.353 C  
ATOM     14  CD  GLU A   1     -12.308  15.355  71.704  1.00  0.00    -0.373 C  
ATOM     15  OE2 GLU A   1     -12.160  15.971  72.748  1.00  0.00    -0.447 OA 
ATOM     16  OE1 GLU A   1     -13.409  14.619  71.444  1.00  0.00    -0.339 OA 
ENDBRANCH  12  13
ENDBRANCH   8  12
ENDBRANCH   6   8
ENDBRANCH   2   6
TORSDOF 4
ENDMDL
MODEL      162
REMARK 921   NORMALIZED FREE ENERGY PREDICTED BY IDOCK:   -3.57 KCAL/MOL
REMARK 922        TOTAL FREE ENERGY PREDICTED BY IDOCK:   -4.25 KCAL/MOL
REMARK 923 INTER-LIGAND FREE ENERGY PREDICTED BY IDOCK:   -3.80 KCAL/MOL
REMARK 924 INTRA-LIGAND FREE ENERGY PREDICTED BY IDOCK:   -0.44 KCAL/MOL
REMARK 927      BINDING AFFINITY PREDICTED BY RF-SCORE:    0.00 PKD
ROOT
HETATM    1  N   UNK A   0      -9.110  16.845  68.932  1.00  0.00    -0.252 N  
HETATM    2  C   UNK A   0      -9.976  16.925  67.896  1.00  0.00    -0.274 C  
HETATM    3  H2  UNK A   0      -9.206  17.503  69.706  1.00  0.00     0.000 HD 
HETATM    4  H1  UNK A   0      -8.365  16.149  68.966  1.00  0.00     0.000 HD 
HETATM    5  O   UNK A   0     -10.869  17.759  67.856  1.00  0.00    -0.365 OA 
ENDROOT
BRANCH   2   6
ATOM      6  N   GLU A   1      -9.746  15.989  66.942  1.00  0.00    -0.229 N  
ATOM      7  H   GLU A   1      -8.923  16.076  66.346  1.00  0.00     0.000 HD 
BRANCH   6   8
ATOM      8  CA  GLU A   1     -10.651  14.863  66.752  1.00  0.00    -0.305 C  
ATOM      9  O   GLU A   1     -11.837  13.803  68.576  1.00  0.00    -0.336 OA 
ATOM     10  C   GLU A   1     -10.620  14.026  68.030  1.00  0.00    -0.247 C  
ATOM     11  OXT GLU A   1      -9.593  13.566  68.513  1.00  0.00    -0.214 OA 
BRANCH   8  12
ATOM     12  CB  GLU A   1     -10.222  14.009  65.551  1.00  0.00    -0.362 C  
BRANCH  12  13
ATOM     13  CG  GLU A   1     -11.270  12.958  65.187  1.00  0.00    -0.319 C  
ATOM     14  CD  GLU A   1     -10.671  11.586  65.021  1.00  0.00    -0.290 C  
ATOM     15  OE2 GLU A   1     -10.666  10.975  63.963  1.00  0.00    -0.379 OA 
ATOM     16  OE1 GLU A   1     -10.173  11.066  66.163  1.00  0.00    -0.232 OA 
ENDBRANCH  12  13
ENDBRANCH   8  12
ENDBRANCH   6   8
ENDBRANCH   2   6
TORSDOF 4
ENDMDL
MODEL      163
REMARK 921   NORMALIZED FREE ENERGY PREDICTED BY IDOCK:   -3.57 KCAL/MOL
REMARK 922        TOTAL FREE ENERGY PREDICTED BY IDOCK:   -4.25 KCAL/MOL
REMARK 923 INTER-LIGAND FREE ENERGY PREDICTED BY IDOCK:   -3.94 KCAL/MOL
REMARK 924 INTRA-LIGAND FREE ENERGY PREDICTED BY IDOCK:   -0.31 KCAL/MOL
REMARK 927      BINDING AFFINITY PREDICTED BY RF-SCORE:    0.00 PKD
ROOT
HETATM    1  N   UNK A   0     -10.580  19.599  69.075  1.00  0.00    -0.412 N  
HETATM    2  C   UNK A   0     -10.063  18.371  68.838  1.00  0.00    -0.321 C  
HETATM    3  H2  UNK A   0     -11.381  19.684  69.701  1.00  0.00     0.000 HD 
HETATM    4  H1  UNK A   0     -10.195  20.442  68.649  1.00  0.00     0.000 HD 
HETATM    5  O   UNK A   0     -10.523  17.361  69.348  1.00  0.00    -0.303 OA 
ENDROOT
BRANCH   2   6
ATOM      6  N   GLU A   1      -8.998  18.399  67.999  1.00  0.00    -0.284 N  
ATOM      7  H   GLU A   1      -8.083  18.109  68.344  1.00  0.00     0.000 HD 
BRANCH   6   8
ATOM      8  CA  GLU A   1      -9.134  18.835  66.615  1.00  0.00    -0.322 C  
ATOM      9  O   GLU A   1     -10.939  18.107  65.177  1.00  0.00    -0.637 OA 
ATOM     10  C   GLU A   1      -9.832  17.714  65.845  1.00  0.00    -0.073 C  
ATOM     11  OXT GLU A   1      -9.418  16.562  65.805  1.00  0.00    -0.484 OA 
BRANCH   8  12
ATOM     12  CB  GLU A   1      -7.763  19.129  65.992  1.00  0.00    -0.267 C  
BRANCH  12  13
ATOM     13  CG  GLU A   1      -7.221  20.495  66.411  1.00  0.00    -0.250 C  
ATOM     14  CD  GLU A   1      -6.327  20.409  67.621  1.00  0.00    -0.246 C  
ATOM     15  OE2 GLU A   1      -6.590  20.933  68.692  1.00  0.00    -0.176 OA 
ATOM     16  OE1 GLU A   1      -5.179  19.733  67.404  1.00  0.00    -0.162 OA 
ENDBRANCH  12  13
ENDBRANCH   8  12
ENDBRANCH   6   8
ENDBRANCH   2   6
TORSDOF 4
ENDMDL
MODEL      164
REMARK 921   NORMALIZED FREE ENERGY PREDICTED BY IDOCK:   -3.57 KCAL/MOL
REMARK 922        TOTAL FREE ENERGY PREDICTED BY IDOCK:   -4.24 KCAL/MOL
REMARK 923 INTER-LIGAND FREE ENERGY PREDICTED BY IDOCK:   -3.90 KCAL/MOL
REMARK 924 INTRA-LIGAND FREE ENERGY PREDICTED BY IDOCK:   -0.34 KCAL/MOL
REMARK 927      BINDING AFFINITY PREDICTED BY RF-SCORE:    0.00 PKD
ROOT
HETATM    1  N   UNK A   0     -12.263  14.409  67.050  1.00  0.00    -0.563 N  
HETATM    2  C   UNK A   0     -11.219  14.939  66.373  1.00  0.00    -0.331 C  
HETATM    3  H2  UNK A   0     -12.713  13.571  66.684  1.00  0.00     0.000 HD 
HETATM    4  H1  UNK A   0     -12.614  14.819  67.916  1.00  0.00     0.000 HD 
HETATM    5  O   UNK A   0     -10.797  14.448  65.336  1.00  0.00    -0.309 OA 
ENDROOT
BRANCH   2   6
ATOM      6  N   GLU A   1     -10.705  16.043  66.972  1.00  0.00    -0.308 N  
ATOM      7  H   GLU A   1     -11.283  16.879  67.058  1.00  0.00     0.000 HD 
BRANCH   6   8
ATOM      8  CA  GLU A   1      -9.346  16.057  67.495  1.00  0.00    -0.217 C  
ATOM      9  O   GLU A   1      -8.169  14.050  68.162  1.00  0.00    -0.137 OA 
ATOM     10  C   GLU A   1      -9.206  14.870  68.448  1.00  0.00    -0.189 C  
ATOM     11  OXT GLU A   1      -9.943  14.682  69.407  1.00  0.00    -0.147 OA 
BRANCH   8  12
ATOM     12  CB  GLU A   1      -9.056  17.368  68.239  1.00  0.00    -0.272 C  
BRANCH  12  13
ATOM     13  CG  GLU A   1      -9.744  18.565  67.586  1.00  0.00    -0.317 C  
ATOM     14  CD  GLU A   1      -8.763  19.498  66.924  1.00  0.00    -0.311 C  
ATOM     15  OE2 GLU A   1      -8.580  20.651  67.282  1.00  0.00    -0.334 OA 
ATOM     16  OE1 GLU A   1      -8.127  18.957  65.863  1.00  0.00    -0.468 OA 
ENDBRANCH  12  13
ENDBRANCH   8  12
ENDBRANCH   6   8
ENDBRANCH   2   6
TORSDOF 4
ENDMDL
MODEL      165
REMARK 921   NORMALIZED FREE ENERGY PREDICTED BY IDOCK:   -3.56 KCAL/MOL
REMARK 922        TOTAL FREE ENERGY PREDICTED BY IDOCK:   -4.24 KCAL/MOL
REMARK 923 INTER-LIGAND FREE ENERGY PREDICTED BY IDOCK:   -3.98 KCAL/MOL
REMARK 924 INTRA-LIGAND FREE ENERGY PREDICTED BY IDOCK:   -0.26 KCAL/MOL
REMARK 927      BINDING AFFINITY PREDICTED BY RF-SCORE:    0.00 PKD
ROOT
HETATM    1  N   UNK A   0     -11.382   6.940  67.376  1.00  0.00    -0.687 N  
HETATM    2  C   UNK A   0     -10.514   7.977  67.344  1.00  0.00    -0.287 C  
HETATM    3  H2  UNK A   0     -11.670   6.511  66.496  1.00  0.00     0.000 HD 
HETATM    4  H1  UNK A   0     -11.757   6.571  68.250  1.00  0.00     0.000 HD 
HETATM    5  O   UNK A   0     -10.065   8.419  66.297  1.00  0.00    -0.237 OA 
ENDROOT
BRANCH   2   6
ATOM      6  N   GLU A   1     -10.205   8.447  68.579  1.00  0.00    -0.198 N  
ATOM      7  H   GLU A   1      -9.681   7.854  69.221  1.00  0.00     0.000 HD 
BRANCH   6   8
ATOM      8  CA  GLU A   1     -10.608   9.781  69.005  1.00  0.00    -0.219 C  
ATOM      9  O   GLU A   1     -10.023  11.786  67.782  1.00  0.00    -0.183 OA 
ATOM     10  C   GLU A   1      -9.540  10.761  68.520  1.00  0.00    -0.183 C  
ATOM     11  OXT GLU A   1      -8.351  10.656  68.793  1.00  0.00    -0.127 OA 
BRANCH   8  12
ATOM     12  CB  GLU A   1     -10.739   9.855  70.532  1.00  0.00    -0.382 C  
BRANCH  12  13
ATOM     13  CG  GLU A   1     -12.147   9.501  71.007  1.00  0.00    -0.398 C  
ATOM     14  CD  GLU A   1     -12.212   8.135  71.639  1.00  0.00    -0.308 C  
ATOM     15  OE2 GLU A   1     -12.860   7.208  71.178  1.00  0.00    -0.370 OA 
ATOM     16  OE1 GLU A   1     -11.519   8.034  72.793  1.00  0.00    -0.402 OA 
ENDBRANCH  12  13
ENDBRANCH   8  12
ENDBRANCH   6   8
ENDBRANCH   2   6
TORSDOF 4
ENDMDL
MODEL      166
REMARK 921   NORMALIZED FREE ENERGY PREDICTED BY IDOCK:   -3.56 KCAL/MOL
REMARK 922        TOTAL FREE ENERGY PREDICTED BY IDOCK:   -4.24 KCAL/MOL
REMARK 923 INTER-LIGAND FREE ENERGY PREDICTED BY IDOCK:   -4.58 KCAL/MOL
REMARK 924 INTRA-LIGAND FREE ENERGY PREDICTED BY IDOCK:    0.34 KCAL/MOL
REMARK 927      BINDING AFFINITY PREDICTED BY RF-SCORE:    0.00 PKD
ROOT
HETATM    1  N   UNK A   0     -13.850   8.993  72.945  1.00  0.00    -0.923 N  
HETATM    2  C   UNK A   0     -13.040   9.174  71.878  1.00  0.00    -0.411 C  
HETATM    3  H2  UNK A   0     -13.950   9.750  73.622  1.00  0.00     0.000 HD 
HETATM    4  H1  UNK A   0     -14.365   8.125  73.096  1.00  0.00     0.000 HD 
HETATM    5  O   UNK A   0     -12.423  10.214  71.696  1.00  0.00    -0.383 OA 
ENDROOT
BRANCH   2   6
ATOM      6  N   GLU A   1     -13.004   8.099  71.052  1.00  0.00    -0.510 N  
ATOM      7  H   GLU A   1     -13.824   7.875  70.488  1.00  0.00     0.000 HD 
BRANCH   6   8
ATOM      8  CA  GLU A   1     -11.819   7.257  70.954  1.00  0.00    -0.316 C  
ATOM      9  O   GLU A   1     -11.302   5.517  72.554  1.00  0.00    -0.278 OA 
ATOM     10  C   GLU A   1     -11.423   6.851  72.373  1.00  0.00    -0.259 C  
ATOM     11  OXT GLU A   1     -11.202   7.655  73.270  1.00  0.00    -0.358 OA 
BRANCH   8  12
ATOM     12  CB  GLU A   1     -10.664   8.010  70.278  1.00  0.00    -0.239 C  
BRANCH  12  13
ATOM     13  CG  GLU A   1      -9.691   7.063  69.579  1.00  0.00    -0.160 C  
ATOM     14  CD  GLU A   1     -10.394   5.912  68.907  1.00  0.00    -0.228 C  
ATOM     15  OE2 GLU A   1     -10.244   4.745  69.236  1.00  0.00    -0.189 OA 
ATOM     16  OE1 GLU A   1     -11.180   6.281  67.873  1.00  0.00    -0.323 OA 
ENDBRANCH  12  13
ENDBRANCH   8  12
ENDBRANCH   6   8
ENDBRANCH   2   6
TORSDOF 4
ENDMDL
MODEL      167
REMARK 921   NORMALIZED FREE ENERGY PREDICTED BY IDOCK:   -3.56 KCAL/MOL
REMARK 922        TOTAL FREE ENERGY PREDICTED BY IDOCK:   -4.24 KCAL/MOL
REMARK 923 INTER-LIGAND FREE ENERGY PREDICTED BY IDOCK:   -4.37 KCAL/MOL
REMARK 924 INTRA-LIGAND FREE ENERGY PREDICTED BY IDOCK:    0.14 KCAL/MOL
REMARK 927      BINDING AFFINITY PREDICTED BY RF-SCORE:    0.00 PKD
ROOT
HETATM    1  N   UNK A   0      -8.858  12.538  66.423  1.00  0.00    -0.415 N  
HETATM    2  C   UNK A   0      -8.698  13.820  66.823  1.00  0.00    -0.087 C  
HETATM    3  H2  UNK A   0      -8.401  11.796  66.953  1.00  0.00     0.000 HD 
HETATM    4  H1  UNK A   0      -9.419  12.288  65.609  1.00  0.00     0.000 HD 
HETATM    5  O   UNK A   0      -8.025  14.120  67.799  1.00  0.00    -0.140 OA 
ENDROOT
BRANCH   2   6
ATOM      6  N   GLU A   1      -9.365  14.705  66.041  1.00  0.00    -0.487 N  
ATOM      7  H   GLU A   1      -8.900  15.097  65.222  1.00  0.00     0.000 HD 
BRANCH   6   8
ATOM      8  CA  GLU A   1     -10.732  15.106  66.346  1.00  0.00    -0.317 C  
ATOM      9  O   GLU A   1     -12.610  14.581  64.911  1.00  0.00    -0.526 OA 
ATOM     10  C   GLU A   1     -11.465  15.293  65.017  1.00  0.00    -0.300 C  
ATOM     11  OXT GLU A   1     -11.076  16.041  64.129  1.00  0.00    -0.507 OA 
BRANCH   8  12
ATOM     12  CB  GLU A   1     -10.757  16.412  67.151  1.00  0.00    -0.233 C  
BRANCH  12  13
ATOM     13  CG  GLU A   1      -9.352  16.899  67.502  1.00  0.00    -0.232 C  
ATOM     14  CD  GLU A   1      -8.832  17.909  66.511  1.00  0.00    -0.261 C  
ATOM     15  OE2 GLU A   1      -7.860  17.715  65.798  1.00  0.00    -0.548 OA 
ATOM     16  OE1 GLU A   1      -9.515  19.073  66.511  1.00  0.00    -0.322 OA 
ENDBRANCH  12  13
ENDBRANCH   8  12
ENDBRANCH   6   8
ENDBRANCH   2   6
TORSDOF 4
ENDMDL
MODEL      168
REMARK 921   NORMALIZED FREE ENERGY PREDICTED BY IDOCK:   -3.56 KCAL/MOL
REMARK 922        TOTAL FREE ENERGY PREDICTED BY IDOCK:   -4.24 KCAL/MOL
REMARK 923 INTER-LIGAND FREE ENERGY PREDICTED BY IDOCK:   -3.98 KCAL/MOL
REMARK 924 INTRA-LIGAND FREE ENERGY PREDICTED BY IDOCK:   -0.26 KCAL/MOL
REMARK 927      BINDING AFFINITY PREDICTED BY RF-SCORE:    0.00 PKD
ROOT
HETATM    1  N   UNK A   0      -9.873  10.924  66.093  1.00  0.00    -0.214 N  
HETATM    2  C   UNK A   0      -9.187  12.062  66.343  1.00  0.00    -0.216 C  
HETATM    3  H2  UNK A   0      -9.593  10.066  66.570  1.00  0.00     0.000 HD 
HETATM    4  H1  UNK A   0     -10.660  10.893  65.445  1.00  0.00     0.000 HD 
HETATM    5  O   UNK A   0      -8.244  12.099  67.120  1.00  0.00    -0.171 OA 
ENDROOT
BRANCH   2   6
ATOM      6  N   GLU A   1      -9.666  13.129  65.655  1.00  0.00    -0.469 N  
ATOM      7  H   GLU A   1      -9.101  13.537  64.910  1.00  0.00     0.000 HD 
BRANCH   6   8
ATOM      8  CA  GLU A   1     -10.970  13.703  65.959  1.00  0.00    -0.286 C  
ATOM      9  O   GLU A   1     -12.375  14.742  64.284  1.00  0.00    -0.571 OA 
ATOM     10  C   GLU A   1     -11.214  14.843  64.970  1.00  0.00    -0.404 C  
ATOM     11  OXT GLU A   1     -10.447  15.787  64.823  1.00  0.00    -0.490 OA 
BRANCH   8  12
ATOM     12  CB  GLU A   1     -11.016  14.234  67.399  1.00  0.00    -0.301 C  
BRANCH  12  13
ATOM     13  CG  GLU A   1     -12.329  13.889  68.098  1.00  0.00     0.001 C  
ATOM     14  CD  GLU A   1     -12.381  14.414  69.509  1.00  0.00    -0.222 C  
ATOM     15  OE2 GLU A   1     -12.445  13.696  70.495  1.00  0.00    -0.338 OA 
ATOM     16  OE1 GLU A   1     -12.395  15.762  69.589  1.00  0.00    -0.294 OA 
ENDBRANCH  12  13
ENDBRANCH   8  12
ENDBRANCH   6   8
ENDBRANCH   2   6
TORSDOF 4
ENDMDL
MODEL      169
REMARK 921   NORMALIZED FREE ENERGY PREDICTED BY IDOCK:   -3.56 KCAL/MOL
REMARK 922        TOTAL FREE ENERGY PREDICTED BY IDOCK:   -4.24 KCAL/MOL
REMARK 923 INTER-LIGAND FREE ENERGY PREDICTED BY IDOCK:   -3.94 KCAL/MOL
REMARK 924 INTRA-LIGAND FREE ENERGY PREDICTED BY IDOCK:   -0.30 KCAL/MOL
REMARK 927      BINDING AFFINITY PREDICTED BY RF-SCORE:    0.00 PKD
ROOT
HETATM    1  N   UNK A   0     -10.186   6.925  66.422  1.00  0.00    -0.455 N  
HETATM    2  C   UNK A   0      -9.051   7.656  66.345  1.00  0.00    -0.174 C  
HETATM    3  H2  UNK A   0     -10.114   5.912  66.512  1.00  0.00     0.000 HD 
HETATM    4  H1  UNK A   0     -11.112   7.353  66.393  1.00  0.00     0.000 HD 
HETATM    5  O   UNK A   0      -7.942   7.144  66.380  1.00  0.00    -0.106 OA 
ENDROOT
BRANCH   2   6
ATOM      6  N   GLU A   1      -9.286   8.988  66.239  1.00  0.00    -0.205 N  
ATOM      7  H   GLU A   1      -9.298   9.562  67.082  1.00  0.00     0.000 HD 
BRANCH   6   8
ATOM      8  CA  GLU A   1      -9.523   9.615  64.945  1.00  0.00    -0.220 C  
ATOM      9  O   GLU A   1      -8.137   9.196  63.005  1.00  0.00    -0.144 OA 
ATOM     10  C   GLU A   1      -8.172   9.743  64.241  1.00  0.00    -0.160 C  
ATOM     11  OXT GLU A   1      -7.206  10.315  64.730  1.00  0.00    -0.139 OA 
BRANCH   8  12
ATOM     12  CB  GLU A   1     -10.165  10.999  65.113  1.00  0.00    -0.352 C  
BRANCH  12  13
ATOM     13  CG  GLU A   1     -10.638  11.580  63.781  1.00  0.00    -0.465 C  
ATOM     14  CD  GLU A   1     -11.565  12.753  63.966  1.00  0.00    -0.424 C  
ATOM     15  OE2 GLU A   1     -12.734  12.752  63.614  1.00  0.00    -0.707 OA 
ATOM     16  OE1 GLU A   1     -10.974  13.833  64.521  1.00  0.00    -0.387 OA 
ENDBRANCH  12  13
ENDBRANCH   8  12
ENDBRANCH   6   8
ENDBRANCH   2   6
TORSDOF 4
ENDMDL
MODEL      170
REMARK 921   NORMALIZED FREE ENERGY PREDICTED BY IDOCK:   -3.56 KCAL/MOL
REMARK 922        TOTAL FREE ENERGY PREDICTED BY IDOCK:   -4.24 KCAL/MOL
REMARK 923 INTER-LIGAND FREE ENERGY PREDICTED BY IDOCK:   -3.94 KCAL/MOL
REMARK 924 INTRA-LIGAND FREE ENERGY PREDICTED BY IDOCK:   -0.30 KCAL/MOL
REMARK 927      BINDING AFFINITY PREDICTED BY RF-SCORE:    0.00 PKD
ROOT
HETATM    1  N   UNK A   0      -9.912  14.203  65.049  1.00  0.00    -0.587 N  
HETATM    2  C   UNK A   0     -10.980  14.748  65.675  1.00  0.00    -0.344 C  
HETATM    3  H2  UNK A   0      -9.970  13.236  64.728  1.00  0.00     0.000 HD 
HETATM    4  H1  UNK A   0      -9.052  14.726  64.886  1.00  0.00     0.000 HD 
HETATM    5  O   UNK A   0     -12.012  14.122  65.870  1.00  0.00    -0.376 OA 
ENDROOT
BRANCH   2   6
ATOM      6  N   GLU A   1     -10.777  16.039  66.039  1.00  0.00    -0.301 N  
ATOM      7  H   GLU A   1     -11.418  16.759  65.705  1.00  0.00     0.000 HD 
BRANCH   6   8
ATOM      8  CA  GLU A   1      -9.663  16.418  66.898  1.00  0.00    -0.251 C  
ATOM      9  O   GLU A   1      -9.318  15.476  69.101  1.00  0.00    -0.214 OA 
ATOM     10  C   GLU A   1     -10.123  16.259  68.347  1.00  0.00    -0.237 C  
ATOM     11  OXT GLU A   1     -11.115  16.810  68.806  1.00  0.00    -0.306 OA 
BRANCH   8  12
ATOM     12  CB  GLU A   1      -9.233  17.868  66.636  1.00  0.00    -0.288 C  
BRANCH  12  13
ATOM     13  CG  GLU A   1      -7.734  17.985  66.369  1.00  0.00    -0.304 C  
ATOM     14  CD  GLU A   1      -7.224  19.388  66.577  1.00  0.00    -0.229 C  
ATOM     15  OE2 GLU A   1      -6.756  20.075  65.683  1.00  0.00    -0.236 OA 
ATOM     16  OE1 GLU A   1      -7.290  19.808  67.858  1.00  0.00    -0.269 OA 
ENDBRANCH  12  13
ENDBRANCH   8  12
ENDBRANCH   6   8
ENDBRANCH   2   6
TORSDOF 4
ENDMDL
MODEL      171
REMARK 921   NORMALIZED FREE ENERGY PREDICTED BY IDOCK:   -3.55 KCAL/MOL
REMARK 922        TOTAL FREE ENERGY PREDICTED BY IDOCK:   -4.22 KCAL/MOL
REMARK 923 INTER-LIGAND FREE ENERGY PREDICTED BY IDOCK:   -3.85 KCAL/MOL
REMARK 924 INTRA-LIGAND FREE ENERGY PREDICTED BY IDOCK:   -0.38 KCAL/MOL
REMARK 927      BINDING AFFINITY PREDICTED BY RF-SCORE:    0.00 PKD
ROOT
HETATM    1  N   UNK A   0     -11.448   6.443  67.442  1.00  0.00    -0.697 N  
HETATM    2  C   UNK A   0     -10.775   7.582  67.726  1.00  0.00    -0.163 C  
HETATM    3  H2  UNK A   0     -11.406   6.070  66.493  1.00  0.00     0.000 HD 
HETATM    4  H1  UNK A   0     -11.994   5.944  68.144  1.00  0.00     0.000 HD 
HETATM    5  O   UNK A   0     -10.120   8.180  66.884  1.00  0.00    -0.242 OA 
ENDROOT
BRANCH   2   6
ATOM      6  N   GLU A   1     -10.903   7.963  69.021  1.00  0.00    -0.417 N  
ATOM      7  H   GLU A   1     -10.743   8.938  69.274  1.00  0.00     0.000 HD 
BRANCH   6   8
ATOM      8  CA  GLU A   1     -11.266   7.007  70.059  1.00  0.00    -0.269 C  
ATOM      9  O   GLU A   1     -13.319   7.161  71.333  1.00  0.00    -0.381 OA 
ATOM     10  C   GLU A   1     -12.124   7.745  71.087  1.00  0.00    -0.286 C  
ATOM     11  OXT GLU A   1     -11.762   8.762  71.665  1.00  0.00    -0.288 OA 
BRANCH   8  12
ATOM     12  CB  GLU A   1     -10.016   6.426  70.735  1.00  0.00    -0.212 C  
BRANCH  12  13
ATOM     13  CG  GLU A   1     -10.128   4.918  70.954  1.00  0.00    -0.292 C  
ATOM     14  CD  GLU A   1     -10.187   4.555  72.415  1.00  0.00    -0.190 C  
ATOM     15  OE2 GLU A   1      -9.328   3.897  72.982  1.00  0.00    -0.108 OA 
ATOM     16  OE1 GLU A   1     -11.302   4.988  73.040  1.00  0.00    -0.299 OA 
ENDBRANCH  12  13
ENDBRANCH   8  12
ENDBRANCH   6   8
ENDBRANCH   2   6
TORSDOF 4
ENDMDL
MODEL      172
REMARK 921   NORMALIZED FREE ENERGY PREDICTED BY IDOCK:   -3.55 KCAL/MOL
REMARK 922        TOTAL FREE ENERGY PREDICTED BY IDOCK:   -4.22 KCAL/MOL
REMARK 923 INTER-LIGAND FREE ENERGY PREDICTED BY IDOCK:   -3.99 KCAL/MOL
REMARK 924 INTRA-LIGAND FREE ENERGY PREDICTED BY IDOCK:   -0.23 KCAL/MOL
REMARK 927      BINDING AFFINITY PREDICTED BY RF-SCORE:    0.00 PKD
ROOT
HETATM    1  N   UNK A   0      -9.311  11.616  68.907  1.00  0.00    -0.404 N  
HETATM    2  C   UNK A   0     -10.583  12.025  68.696  1.00  0.00    -0.229 C  
HETATM    3  H2  UNK A   0      -9.144  10.830  69.536  1.00  0.00     0.000 HD 
HETATM    4  H1  UNK A   0      -8.513  12.066  68.458  1.00  0.00     0.000 HD 
HETATM    5  O   UNK A   0     -11.539  11.485  69.234  1.00  0.00    -0.264 OA 
ENDROOT
BRANCH   2   6
ATOM      6  N   GLU A   1     -10.667  13.068  67.832  1.00  0.00    -0.230 N  
ATOM      7  H   GLU A   1     -10.847  14.003  68.196  1.00  0.00     0.000 HD 
BRANCH   6   8
ATOM      8  CA  GLU A   1     -10.503  12.878  66.397  1.00  0.00    -0.267 C  
ATOM      9  O   GLU A   1     -10.151  14.712  64.857  1.00  0.00    -0.367 OA 
ATOM     10  C   GLU A   1     -11.033  14.133  65.703  1.00  0.00    -0.308 C  
ATOM     11  OXT GLU A   1     -12.166  14.569  65.867  1.00  0.00    -0.349 OA 
BRANCH   8  12
ATOM     12  CB  GLU A   1     -11.274  11.642  65.914  1.00  0.00    -0.296 C  
BRANCH  12  13
ATOM     13  CG  GLU A   1     -11.414  11.609  64.393  1.00  0.00    -0.302 C  
ATOM     14  CD  GLU A   1     -10.105  11.327  63.703  1.00  0.00    -0.382 C  
ATOM     15  OE2 GLU A   1      -9.547  12.123  62.963  1.00  0.00    -0.313 OA 
ATOM     16  OE1 GLU A   1      -9.617  10.092  63.942  1.00  0.00    -0.283 OA 
ENDBRANCH  12  13
ENDBRANCH   8  12
ENDBRANCH   6   8
ENDBRANCH   2   6
TORSDOF 4
ENDMDL
MODEL      173
REMARK 921   NORMALIZED FREE ENERGY PREDICTED BY IDOCK:   -3.54 KCAL/MOL
REMARK 922        TOTAL FREE ENERGY PREDICTED BY IDOCK:   -4.21 KCAL/MOL
REMARK 923 INTER-LIGAND FREE ENERGY PREDICTED BY IDOCK:   -3.85 KCAL/MOL
REMARK 924 INTRA-LIGAND FREE ENERGY PREDICTED BY IDOCK:   -0.37 KCAL/MOL
REMARK 927      BINDING AFFINITY PREDICTED BY RF-SCORE:    0.00 PKD
ROOT
HETATM    1  N   UNK A   0     -11.226  11.445  69.845  1.00  0.00    -0.462 N  
HETATM    2  C   UNK A   0     -11.622  12.554  69.178  1.00  0.00    -0.320 C  
HETATM    3  H2  UNK A   0     -11.261  11.445  70.864  1.00  0.00     0.000 HD 
HETATM    4  H1  UNK A   0     -10.893  10.610  69.363  1.00  0.00     0.000 HD 
HETATM    5  O   UNK A   0     -12.021  13.554  69.755  1.00  0.00    -0.310 OA 
ENDROOT
BRANCH   2   6
ATOM      6  N   GLU A   1     -11.536  12.419  67.831  1.00  0.00    -0.336 N  
ATOM      7  H   GLU A   1     -12.344  12.650  67.253  1.00  0.00     0.000 HD 
BRANCH   6   8
ATOM      8  CA  GLU A   1     -10.312  11.952  67.193  1.00  0.00    -0.210 C  
ATOM      9  O   GLU A   1      -8.180  13.066  67.459  1.00  0.00    -0.159 OA 
ATOM     10  C   GLU A   1      -9.427  13.173  66.945  1.00  0.00    -0.244 C  
ATOM     11  OXT GLU A   1      -9.791  14.156  66.313  1.00  0.00    -0.285 OA 
BRANCH   8  12
ATOM     12  CB  GLU A   1     -10.618  11.244  65.866  1.00  0.00    -0.309 C  
BRANCH  12  13
ATOM     13  CG  GLU A   1      -9.347  10.866  65.108  1.00  0.00    -0.252 C  
ATOM     14  CD  GLU A   1      -9.550  10.866  63.615  1.00  0.00    -0.302 C  
ATOM     15  OE2 GLU A   1      -9.458   9.866  62.921  1.00  0.00    -0.276 OA 
ATOM     16  OE1 GLU A   1      -9.802  12.088  63.099  1.00  0.00    -0.381 OA 
ENDBRANCH  12  13
ENDBRANCH   8  12
ENDBRANCH   6   8
ENDBRANCH   2   6
TORSDOF 4
ENDMDL
MODEL      174
REMARK 921   NORMALIZED FREE ENERGY PREDICTED BY IDOCK:   -3.54 KCAL/MOL
REMARK 922        TOTAL FREE ENERGY PREDICTED BY IDOCK:   -4.21 KCAL/MOL
REMARK 923 INTER-LIGAND FREE ENERGY PREDICTED BY IDOCK:   -4.05 KCAL/MOL
REMARK 924 INTRA-LIGAND FREE ENERGY PREDICTED BY IDOCK:   -0.15 KCAL/MOL
REMARK 927      BINDING AFFINITY PREDICTED BY RF-SCORE:    0.00 PKD
ROOT
HETATM    1  N   UNK A   0      -8.697  10.034  70.110  1.00  0.00    -0.347 N  
HETATM    2  C   UNK A   0      -9.004   9.038  70.973  1.00  0.00    -0.241 C  
HETATM    3  H2  UNK A   0      -7.882  10.618  70.301  1.00  0.00     0.000 HD 
HETATM    4  H1  UNK A   0      -9.251  10.221  69.274  1.00  0.00     0.000 HD 
HETATM    5  O   UNK A   0      -8.340   8.815  71.974  1.00  0.00    -0.324 OA 
ENDROOT
BRANCH   2   6
ATOM      6  N   GLU A   1     -10.100   8.333  70.597  1.00  0.00    -0.190 N  
ATOM      7  H   GLU A   1     -10.716   8.713  69.878  1.00  0.00     0.000 HD 
BRANCH   6   8
ATOM      8  CA  GLU A   1     -10.415   7.044  71.199  1.00  0.00    -0.211 C  
ATOM      9  O   GLU A   1      -9.828   4.932  70.172  1.00  0.00    -0.197 OA 
ATOM     10  C   GLU A   1     -10.599   6.038  70.063  1.00  0.00    -0.274 C  
ATOM     11  OXT GLU A   1     -11.394   6.193  69.144  1.00  0.00    -0.399 OA 
BRANCH   8  12
ATOM     12  CB  GLU A   1     -11.694   7.128  72.043  1.00  0.00    -0.326 C  
BRANCH  12  13
ATOM     13  CG  GLU A   1     -12.060   8.569  72.393  1.00  0.00    -0.436 C  
ATOM     14  CD  GLU A   1     -13.208   9.085  71.566  1.00  0.00    -0.334 C  
ATOM     15  OE2 GLU A   1     -13.108  10.011  70.775  1.00  0.00    -0.341 OA 
ATOM     16  OE1 GLU A   1     -14.379   8.458  71.807  1.00  0.00    -0.435 OA 
ENDBRANCH  12  13
ENDBRANCH   8  12
ENDBRANCH   6   8
ENDBRANCH   2   6
TORSDOF 4
ENDMDL
MODEL      175
REMARK 921   NORMALIZED FREE ENERGY PREDICTED BY IDOCK:   -3.53 KCAL/MOL
REMARK 922        TOTAL FREE ENERGY PREDICTED BY IDOCK:   -4.20 KCAL/MOL
REMARK 923 INTER-LIGAND FREE ENERGY PREDICTED BY IDOCK:   -3.89 KCAL/MOL
REMARK 924 INTRA-LIGAND FREE ENERGY PREDICTED BY IDOCK:   -0.31 KCAL/MOL
REMARK 927      BINDING AFFINITY PREDICTED BY RF-SCORE:    0.00 PKD
ROOT
HETATM    1  N   UNK A   0     -11.151  11.541  69.932  1.00  0.00    -0.478 N  
HETATM    2  C   UNK A   0     -11.541  10.909  68.801  1.00  0.00    -0.309 C  
HETATM    3  H2  UNK A   0     -11.460  12.500  70.092  1.00  0.00     0.000 HD 
HETATM    4  H1  UNK A   0     -10.560  11.091  70.631  1.00  0.00     0.000 HD 
HETATM    5  O   UNK A   0     -12.249  11.448  67.964  1.00  0.00    -0.607 OA 
ENDROOT
BRANCH   2   6
ATOM      6  N   GLU A   1     -11.072   9.639  68.718  1.00  0.00    -0.450 N  
ATOM      7  H   GLU A   1     -10.946   9.096  69.572  1.00  0.00     0.000 HD 
BRANCH   6   8
ATOM      8  CA  GLU A   1     -10.745   9.035  67.433  1.00  0.00    -0.161 C  
ATOM      9  O   GLU A   1     -11.160   6.704  66.929  1.00  0.00    -0.400 OA 
ATOM     10  C   GLU A   1     -10.433   7.559  67.683  1.00  0.00    -0.250 C  
ATOM     11  OXT GLU A   1      -9.580   7.173  68.472  1.00  0.00    -0.139 OA 
BRANCH   8  12
ATOM     12  CB  GLU A   1      -9.537   9.729  66.789  1.00  0.00    -0.228 C  
BRANCH  12  13
ATOM     13  CG  GLU A   1      -9.752   9.996  65.300  1.00  0.00    -0.373 C  
ATOM     14  CD  GLU A   1      -8.578   9.555  64.465  1.00  0.00    -0.187 C  
ATOM     15  OE2 GLU A   1      -7.884  10.323  63.817  1.00  0.00    -0.154 OA 
ATOM     16  OE1 GLU A   1      -8.383   8.219  64.460  1.00  0.00    -0.154 OA 
ENDBRANCH  12  13
ENDBRANCH   8  12
ENDBRANCH   6   8
ENDBRANCH   2   6
TORSDOF 4
ENDMDL
MODEL      176
REMARK 921   NORMALIZED FREE ENERGY PREDICTED BY IDOCK:   -3.53 KCAL/MOL
REMARK 922        TOTAL FREE ENERGY PREDICTED BY IDOCK:   -4.20 KCAL/MOL
REMARK 923 INTER-LIGAND FREE ENERGY PREDICTED BY IDOCK:   -4.32 KCAL/MOL
REMARK 924 INTRA-LIGAND FREE ENERGY PREDICTED BY IDOCK:    0.12 KCAL/MOL
REMARK 927      BINDING AFFINITY PREDICTED BY RF-SCORE:    0.00 PKD
ROOT
HETATM    1  N   UNK A   0      -8.317  16.446  66.037  1.00  0.00    -0.245 N  
HETATM    2  C   UNK A   0      -9.590  16.032  65.838  1.00  0.00    -0.335 C  
HETATM    3  H2  UNK A   0      -8.070  17.407  65.803  1.00  0.00     0.000 HD 
HETATM    4  H1  UNK A   0      -7.597  15.830  66.414  1.00  0.00     0.000 HD 
HETATM    5  O   UNK A   0     -10.453  16.770  65.386  1.00  0.00    -0.592 OA 
ENDROOT
BRANCH   2   6
ATOM      6  N   GLU A   1      -9.787  14.739  66.199  1.00  0.00    -0.295 N  
ATOM      7  H   GLU A   1      -9.303  14.369  67.017  1.00  0.00     0.000 HD 
BRANCH   6   8
ATOM      8  CA  GLU A   1     -10.679  13.869  65.443  1.00  0.00    -0.325 C  
ATOM      9  O   GLU A   1     -13.036  14.332  65.151  1.00  0.00    -0.704 OA 
ATOM     10  C   GLU A   1     -12.077  14.006  66.046  1.00  0.00    -0.439 C  
ATOM     11  OXT GLU A   1     -12.326  13.810  67.229  1.00  0.00    -0.337 OA 
BRANCH   8  12
ATOM     12  CB  GLU A   1     -10.213  12.408  65.515  1.00  0.00    -0.297 C  
BRANCH  12  13
ATOM     13  CG  GLU A   1     -10.498  11.779  66.877  1.00  0.00    -0.256 C  
ATOM     14  CD  GLU A   1      -9.252  11.636  67.713  1.00  0.00    -0.178 C  
ATOM     15  OE2 GLU A   1      -8.792  10.560  68.061  1.00  0.00    -0.128 OA 
ATOM     16  OE1 GLU A   1      -8.706  12.814  68.084  1.00  0.00    -0.183 OA 
ENDBRANCH  12  13
ENDBRANCH   8  12
ENDBRANCH   6   8
ENDBRANCH   2   6
TORSDOF 4
ENDMDL
MODEL      177
REMARK 921   NORMALIZED FREE ENERGY PREDICTED BY IDOCK:   -3.53 KCAL/MOL
REMARK 922        TOTAL FREE ENERGY PREDICTED BY IDOCK:   -4.19 KCAL/MOL
REMARK 923 INTER-LIGAND FREE ENERGY PREDICTED BY IDOCK:   -3.88 KCAL/MOL
REMARK 924 INTRA-LIGAND FREE ENERGY PREDICTED BY IDOCK:   -0.31 KCAL/MOL
REMARK 927      BINDING AFFINITY PREDICTED BY RF-SCORE:    0.00 PKD
ROOT
HETATM    1  N   UNK A   0     -11.127  14.434  64.217  1.00  0.00    -0.605 N  
HETATM    2  C   UNK A   0     -10.676  13.164  64.335  1.00  0.00    -0.407 C  
HETATM    3  H2  UNK A   0     -11.763  14.662  63.452  1.00  0.00     0.000 HD 
HETATM    4  H1  UNK A   0     -10.854  15.171  64.867  1.00  0.00     0.000 HD 
HETATM    5  O   UNK A   0     -11.003  12.281  63.556  1.00  0.00    -0.425 OA 
ENDROOT
BRANCH   2   6
ATOM      6  N   GLU A   1      -9.850  12.993  65.398  1.00  0.00    -0.474 N  
ATOM      7  H   GLU A   1      -9.076  13.642  65.537  1.00  0.00     0.000 HD 
BRANCH   6   8
ATOM      8  CA  GLU A   1     -10.047  11.902  66.343  1.00  0.00    -0.214 C  
ATOM      9  O   GLU A   1     -12.155  11.490  67.459  1.00  0.00    -0.614 OA 
ATOM     10  C   GLU A   1     -11.114  12.346  67.343  1.00  0.00    -0.272 C  
ATOM     11  OXT GLU A   1     -11.033  13.369  68.010  1.00  0.00    -0.232 OA 
BRANCH   8  12
ATOM     12  CB  GLU A   1      -8.742  11.567  67.077  1.00  0.00    -0.169 C  
BRANCH  12  13
ATOM     13  CG  GLU A   1      -8.972  10.636  68.266  1.00  0.00    -0.143 C  
ATOM     14  CD  GLU A   1      -8.479   9.237  68.002  1.00  0.00    -0.120 C  
ATOM     15  OE2 GLU A   1      -9.211   8.261  67.955  1.00  0.00    -0.132 OA 
ATOM     16  OE1 GLU A   1      -7.139   9.149  67.863  1.00  0.00    -0.077 OA 
ENDBRANCH  12  13
ENDBRANCH   8  12
ENDBRANCH   6   8
ENDBRANCH   2   6
TORSDOF 4
ENDMDL
MODEL      178
REMARK 921   NORMALIZED FREE ENERGY PREDICTED BY IDOCK:   -3.51 KCAL/MOL
REMARK 922        TOTAL FREE ENERGY PREDICTED BY IDOCK:   -4.17 KCAL/MOL
REMARK 923 INTER-LIGAND FREE ENERGY PREDICTED BY IDOCK:   -3.68 KCAL/MOL
REMARK 924 INTRA-LIGAND FREE ENERGY PREDICTED BY IDOCK:   -0.50 KCAL/MOL
REMARK 927      BINDING AFFINITY PREDICTED BY RF-SCORE:    0.00 PKD
ROOT
HETATM    1  N   UNK A   0     -10.126  10.219  70.000  1.00  0.00    -0.417 N  
HETATM    2  C   UNK A   0      -9.132   9.454  70.508  1.00  0.00    -0.256 C  
HETATM    3  H2  UNK A   0      -9.881  11.030  69.431  1.00  0.00     0.000 HD 
HETATM    4  H1  UNK A   0     -11.111  10.012  70.167  1.00  0.00     0.000 HD 
HETATM    5  O   UNK A   0      -7.952   9.701  70.308  1.00  0.00    -0.159 OA 
ENDROOT
BRANCH   2   6
ATOM      6  N   GLU A   1      -9.592   8.404  71.234  1.00  0.00    -0.170 N  
ATOM      7  H   GLU A   1      -8.978   7.965  71.920  1.00  0.00     0.000 HD 
BRANCH   6   8
ATOM      8  CA  GLU A   1     -10.944   7.893  71.054  1.00  0.00    -0.244 C  
ATOM      9  O   GLU A   1     -12.827   8.657  72.369  1.00  0.00    -0.378 OA 
ATOM     10  C   GLU A   1     -11.655   7.984  72.405  1.00  0.00    -0.390 C  
ATOM     11  OXT GLU A   1     -11.226   7.472  73.431  1.00  0.00    -0.296 OA 
BRANCH   8  12
ATOM     12  CB  GLU A   1     -10.922   6.438  70.566  1.00  0.00    -0.364 C  
BRANCH  12  13
ATOM     13  CG  GLU A   1     -11.271   6.323  69.084  1.00  0.00    -0.439 C  
ATOM     14  CD  GLU A   1     -10.359   7.149  68.215  1.00  0.00    -0.195 C  
ATOM     15  OE2 GLU A   1     -10.741   8.095  67.543  1.00  0.00    -0.242 OA 
ATOM     16  OE1 GLU A   1      -9.077   6.725  68.211  1.00  0.00    -0.126 OA 
ENDBRANCH  12  13
ENDBRANCH   8  12
ENDBRANCH   6   8
ENDBRANCH   2   6
TORSDOF 4
ENDMDL
MODEL      179
REMARK 921   NORMALIZED FREE ENERGY PREDICTED BY IDOCK:   -3.50 KCAL/MOL
REMARK 922        TOTAL FREE ENERGY PREDICTED BY IDOCK:   -4.16 KCAL/MOL
REMARK 923 INTER-LIGAND FREE ENERGY PREDICTED BY IDOCK:   -4.03 KCAL/MOL
REMARK 924 INTRA-LIGAND FREE ENERGY PREDICTED BY IDOCK:   -0.13 KCAL/MOL
REMARK 927      BINDING AFFINITY PREDICTED BY RF-SCORE:    0.00 PKD
ROOT
HETATM    1  N   UNK A   0     -11.176  14.515  65.440  1.00  0.00    -0.329 N  
HETATM    2  C   UNK A   0     -10.826  15.820  65.380  1.00  0.00    -0.364 C  
HETATM    3  H2  UNK A   0     -11.561  14.069  64.607  1.00  0.00     0.000 HD 
HETATM    4  H1  UNK A   0     -11.069  13.961  66.290  1.00  0.00     0.000 HD 
HETATM    5  O   UNK A   0     -10.954  16.483  64.361  1.00  0.00    -0.872 OA 
ENDROOT
BRANCH   2   6
ATOM      6  N   GLU A   1     -10.319  16.285  66.549  1.00  0.00    -0.300 N  
ATOM      7  H   GLU A   1     -10.164  17.287  66.662  1.00  0.00     0.000 HD 
BRANCH   6   8
ATOM      8  CA  GLU A   1      -9.992  15.383  67.645  1.00  0.00    -0.225 C  
ATOM      9  O   GLU A   1     -11.561  13.771  68.538  1.00  0.00    -0.292 OA 
ATOM     10  C   GLU A   1     -11.287  15.088  68.402  1.00  0.00    -0.309 C  
ATOM     11  OXT GLU A   1     -12.008  15.958  68.874  1.00  0.00    -0.370 OA 
BRANCH   8  12
ATOM     12  CB  GLU A   1      -8.961  16.016  68.590  1.00  0.00    -0.210 C  
BRANCH  12  13
ATOM     13  CG  GLU A   1      -7.948  16.880  67.842  1.00  0.00    -0.187 C  
ATOM     14  CD  GLU A   1      -6.550  16.324  67.924  1.00  0.00    -0.134 C  
ATOM     15  OE2 GLU A   1      -5.626  16.900  68.476  1.00  0.00    -0.127 OA 
ATOM     16  OE1 GLU A   1      -6.396  15.141  67.291  1.00  0.00    -0.312 OA 
ENDBRANCH  12  13
ENDBRANCH   8  12
ENDBRANCH   6   8
ENDBRANCH   2   6
TORSDOF 4
ENDMDL
MODEL      180
REMARK 921   NORMALIZED FREE ENERGY PREDICTED BY IDOCK:   -3.50 KCAL/MOL
REMARK 922        TOTAL FREE ENERGY PREDICTED BY IDOCK:   -4.16 KCAL/MOL
REMARK 923 INTER-LIGAND FREE ENERGY PREDICTED BY IDOCK:   -3.85 KCAL/MOL
REMARK 924 INTRA-LIGAND FREE ENERGY PREDICTED BY IDOCK:   -0.31 KCAL/MOL
REMARK 927      BINDING AFFINITY PREDICTED BY RF-SCORE:    0.00 PKD
ROOT
HETATM    1  N   UNK A   0     -10.656  18.431  65.799  1.00  0.00    -0.357 N  
HETATM    2  C   UNK A   0     -10.530  17.085  65.756  1.00  0.00    -0.251 C  
HETATM    3  H2  UNK A   0     -11.069  18.913  65.000  1.00  0.00     0.000 HD 
HETATM    4  H1  UNK A   0     -10.354  18.981  66.604  1.00  0.00     0.000 HD 
HETATM    5  O   UNK A   0     -10.893  16.427  64.792  1.00  0.00    -0.697 OA 
ENDROOT
BRANCH   2   6
ATOM      6  N   GLU A   1      -9.978  16.570  66.883  1.00  0.00    -0.262 N  
ATOM      7  H   GLU A   1     -10.490  15.864  67.412  1.00  0.00     0.000 HD 
BRANCH   6   8
ATOM      8  CA  GLU A   1      -8.668  17.003  67.351  1.00  0.00    -0.202 C  
ATOM      9  O   GLU A   1      -6.625  15.808  66.846  1.00  0.00    -0.276 OA 
ATOM     10  C   GLU A   1      -7.800  15.756  67.514  1.00  0.00    -0.159 C  
ATOM     11  OXT GLU A   1      -8.115  14.798  68.208  1.00  0.00    -0.127 OA 
BRANCH   8  12
ATOM     12  CB  GLU A   1      -8.781  17.746  68.690  1.00  0.00    -0.260 C  
BRANCH  12  13
ATOM     13  CG  GLU A   1      -8.315  19.197  68.584  1.00  0.00    -0.403 C  
ATOM     14  CD  GLU A   1      -6.938  19.399  69.162  1.00  0.00    -0.355 C  
ATOM     15  OE2 GLU A   1      -6.710  20.101  70.135  1.00  0.00    -0.302 OA 
ATOM     16  OE1 GLU A   1      -5.961  18.766  68.478  1.00  0.00    -0.204 OA 
ENDBRANCH  12  13
ENDBRANCH   8  12
ENDBRANCH   6   8
ENDBRANCH   2   6
TORSDOF 4
ENDMDL
MODEL      181
REMARK 921   NORMALIZED FREE ENERGY PREDICTED BY IDOCK:   -3.49 KCAL/MOL
REMARK 922        TOTAL FREE ENERGY PREDICTED BY IDOCK:   -4.15 KCAL/MOL
REMARK 923 INTER-LIGAND FREE ENERGY PREDICTED BY IDOCK:   -3.55 KCAL/MOL
REMARK 924 INTRA-LIGAND FREE ENERGY PREDICTED BY IDOCK:   -0.59 KCAL/MOL
REMARK 927      BINDING AFFINITY PREDICTED BY RF-SCORE:    0.00 PKD
ROOT
HETATM    1  N   UNK A   0      -9.998   4.831  69.527  1.00  0.00    -0.222 N  
HETATM    2  C   UNK A   0     -10.747   5.957  69.483  1.00  0.00    -0.343 C  
HETATM    3  H2  UNK A   0      -9.907   4.268  68.681  1.00  0.00     0.000 HD 
HETATM    4  H1  UNK A   0      -9.521   4.527  70.376  1.00  0.00     0.000 HD 
HETATM    5  O   UNK A   0     -11.318   6.321  68.466  1.00  0.00    -0.324 OA 
ENDROOT
BRANCH   2   6
ATOM      6  N   GLU A   1     -10.776   6.618  70.668  1.00  0.00    -0.230 N  
ATOM      7  H   GLU A   1     -10.039   7.289  70.884  1.00  0.00     0.000 HD 
BRANCH   6   8
ATOM      8  CA  GLU A   1     -11.841   6.389  71.637  1.00  0.00    -0.306 C  
ATOM      9  O   GLU A   1     -14.043   7.373  71.432  1.00  0.00    -0.427 OA 
ATOM     10  C   GLU A   1     -12.732   7.631  71.644  1.00  0.00    -0.343 C  
ATOM     11  OXT GLU A   1     -12.314   8.763  71.852  1.00  0.00    -0.316 OA 
BRANCH   8  12
ATOM     12  CB  GLU A   1     -11.266   6.144  73.038  1.00  0.00    -0.206 C  
BRANCH  12  13
ATOM     13  CG  GLU A   1     -11.255   4.661  73.405  1.00  0.00    -0.423 C  
ATOM     14  CD  GLU A   1     -10.018   3.958  72.909  1.00  0.00    -0.146 C  
ATOM     15  OE2 GLU A   1     -10.037   3.063  72.078  1.00  0.00    -0.167 OA 
ATOM     16  OE1 GLU A   1      -8.879   4.376  73.501  1.00  0.00    -0.102 OA 
ENDBRANCH  12  13
ENDBRANCH   8  12
ENDBRANCH   6   8
ENDBRANCH   2   6
TORSDOF 4
ENDMDL
MODEL      182
REMARK 921   NORMALIZED FREE ENERGY PREDICTED BY IDOCK:   -3.48 KCAL/MOL
REMARK 922        TOTAL FREE ENERGY PREDICTED BY IDOCK:   -4.14 KCAL/MOL
REMARK 923 INTER-LIGAND FREE ENERGY PREDICTED BY IDOCK:   -3.50 KCAL/MOL
REMARK 924 INTRA-LIGAND FREE ENERGY PREDICTED BY IDOCK:   -0.64 KCAL/MOL
REMARK 927      BINDING AFFINITY PREDICTED BY RF-SCORE:    0.00 PKD
ROOT
HETATM    1  N   UNK A   0     -10.649  16.855  66.273  1.00  0.00    -0.246 N  
HETATM    2  C   UNK A   0     -10.169  17.991  66.829  1.00  0.00    -0.364 C  
HETATM    3  H2  UNK A   0     -11.659  16.737  66.188  1.00  0.00     0.000 HD 
HETATM    4  H1  UNK A   0     -10.036  16.113  65.936  1.00  0.00     0.000 HD 
HETATM    5  O   UNK A   0     -10.903  18.880  67.233  1.00  0.00    -0.458 OA 
ENDROOT
BRANCH   2   6
ATOM      6  N   GLU A   1      -8.813  18.025  66.873  1.00  0.00    -0.251 N  
ATOM      7  H   GLU A   1      -8.290  18.165  66.009  1.00  0.00     0.000 HD 
BRANCH   6   8
ATOM      8  CA  GLU A   1      -8.091  17.868  68.128  1.00  0.00    -0.267 C  
ATOM      9  O   GLU A   1      -7.210  19.740  69.385  1.00  0.00    -0.338 OA 
ATOM     10  C   GLU A   1      -7.103  19.029  68.240  1.00  0.00    -0.268 C  
ATOM     11  OXT GLU A   1      -6.261  19.285  67.388  1.00  0.00    -0.189 OA 
BRANCH   8  12
ATOM     12  CB  GLU A   1      -7.341  16.530  68.169  1.00  0.00    -0.163 C  
BRANCH  12  13
ATOM     13  CG  GLU A   1      -7.864  15.610  69.270  1.00  0.00    -0.230 C  
ATOM     14  CD  GLU A   1      -9.312  15.244  69.071  1.00  0.00    -0.231 C  
ATOM     15  OE2 GLU A   1     -10.202  15.565  69.844  1.00  0.00    -0.287 OA 
ATOM     16  OE1 GLU A   1      -9.538  14.487  67.977  1.00  0.00    -0.207 OA 
ENDBRANCH  12  13
ENDBRANCH   8  12
ENDBRANCH   6   8
ENDBRANCH   2   6
TORSDOF 4
ENDMDL
MODEL      183
REMARK 921   NORMALIZED FREE ENERGY PREDICTED BY IDOCK:   -3.47 KCAL/MOL
REMARK 922        TOTAL FREE ENERGY PREDICTED BY IDOCK:   -4.13 KCAL/MOL
REMARK 923 INTER-LIGAND FREE ENERGY PREDICTED BY IDOCK:   -3.38 KCAL/MOL
REMARK 924 INTRA-LIGAND FREE ENERGY PREDICTED BY IDOCK:   -0.74 KCAL/MOL
REMARK 927      BINDING AFFINITY PREDICTED BY RF-SCORE:    0.00 PKD
ROOT
HETATM    1  N   UNK A   0      -7.400  11.118  69.213  1.00  0.00    -0.219 N  
HETATM    2  C   UNK A   0      -8.052  11.971  68.390  1.00  0.00    -0.154 C  
HETATM    3  H2  UNK A   0      -6.411  10.934  69.047  1.00  0.00     0.000 HD 
HETATM    4  H1  UNK A   0      -7.864  10.655  69.994  1.00  0.00     0.000 HD 
HETATM    5  O   UNK A   0      -7.497  12.527  67.454  1.00  0.00    -0.142 OA 
ENDROOT
BRANCH   2   6
ATOM      6  N   GLU A   1      -9.356  12.137  68.726  1.00  0.00    -0.399 N  
ATOM      7  H   GLU A   1      -9.596  12.396  69.683  1.00  0.00     0.000 HD 
BRANCH   6   8
ATOM      8  CA  GLU A   1     -10.420  11.952  67.748  1.00  0.00    -0.202 C  
ATOM      9  O   GLU A   1     -11.276  13.752  66.376  1.00  0.00    -0.308 OA 
ATOM     10  C   GLU A   1     -11.179  13.274  67.637  1.00  0.00    -0.280 C  
ATOM     11  OXT GLU A   1     -11.686  13.846  68.594  1.00  0.00    -0.315 OA 
BRANCH   8  12
ATOM     12  CB  GLU A   1     -11.375  10.830  68.179  1.00  0.00    -0.377 C  
BRANCH  12  13
ATOM     13  CG  GLU A   1     -11.216  10.473  69.656  1.00  0.00    -0.342 C  
ATOM     14  CD  GLU A   1     -10.625   9.101  69.853  1.00  0.00    -0.230 C  
ATOM     15  OE2 GLU A   1     -11.223   8.179  70.385  1.00  0.00    -0.264 OA 
ATOM     16  OE1 GLU A   1      -9.350   8.989  69.423  1.00  0.00    -0.153 OA 
ENDBRANCH  12  13
ENDBRANCH   8  12
ENDBRANCH   6   8
ENDBRANCH   2   6
TORSDOF 4
ENDMDL
MODEL      184
REMARK 921   NORMALIZED FREE ENERGY PREDICTED BY IDOCK:   -3.45 KCAL/MOL
REMARK 922        TOTAL FREE ENERGY PREDICTED BY IDOCK:   -4.10 KCAL/MOL
REMARK 923 INTER-LIGAND FREE ENERGY PREDICTED BY IDOCK:   -3.83 KCAL/MOL
REMARK 924 INTRA-LIGAND FREE ENERGY PREDICTED BY IDOCK:   -0.27 KCAL/MOL
REMARK 927      BINDING AFFINITY PREDICTED BY RF-SCORE:    0.00 PKD
ROOT
HETATM    1  N   UNK A   0     -10.830  15.965  65.433  1.00  0.00    -0.365 N  
HETATM    2  C   UNK A   0      -9.536  16.118  65.796  1.00  0.00    -0.257 C  
HETATM    3  H2  UNK A   0     -11.382  16.794  65.213  1.00  0.00     0.000 HD 
HETATM    4  H1  UNK A   0     -11.273  15.048  65.372  1.00  0.00     0.000 HD 
HETATM    5  O   UNK A   0      -9.005  17.216  65.869  1.00  0.00    -0.519 OA 
ENDROOT
BRANCH   2   6
ATOM      6  N   GLU A   1      -8.915  14.939  66.050  1.00  0.00    -0.473 N  
ATOM      7  H   GLU A   1      -8.289  14.543  65.350  1.00  0.00     0.000 HD 
BRANCH   6   8
ATOM      8  CA  GLU A   1      -9.125  14.228  67.304  1.00  0.00    -0.215 C  
ATOM      9  O   GLU A   1      -7.826  14.663  69.299  1.00  0.00    -0.138 OA 
ATOM     10  C   GLU A   1      -7.785  14.180  68.037  1.00  0.00    -0.147 C  
ATOM     11  OXT GLU A   1      -6.762  13.719  67.546  1.00  0.00    -0.172 OA 
BRANCH   8  12
ATOM     12  CB  GLU A   1      -9.640  12.804  67.050  1.00  0.00    -0.229 C  
BRANCH  12  13
ATOM     13  CG  GLU A   1     -10.145  12.138  68.329  1.00  0.00    -0.210 C  
ATOM     14  CD  GLU A   1     -11.081  10.991  68.045  1.00  0.00    -0.286 C  
ATOM     15  OE2 GLU A   1     -12.257  10.983  68.374  1.00  0.00    -0.586 OA 
ATOM     16  OE1 GLU A   1     -10.491   9.946  67.427  1.00  0.00    -0.232 OA 
ENDBRANCH  12  13
ENDBRANCH   8  12
ENDBRANCH   6   8
ENDBRANCH   2   6
TORSDOF 4
ENDMDL
MODEL      185
REMARK 921   NORMALIZED FREE ENERGY PREDICTED BY IDOCK:   -3.45 KCAL/MOL
REMARK 922        TOTAL FREE ENERGY PREDICTED BY IDOCK:   -4.10 KCAL/MOL
REMARK 923 INTER-LIGAND FREE ENERGY PREDICTED BY IDOCK:   -3.80 KCAL/MOL
REMARK 924 INTRA-LIGAND FREE ENERGY PREDICTED BY IDOCK:   -0.30 KCAL/MOL
REMARK 927      BINDING AFFINITY PREDICTED BY RF-SCORE:    0.00 PKD
ROOT
HETATM    1  N   UNK A   0     -10.096  10.235  70.051  1.00  0.00    -0.417 N  
HETATM    2  C   UNK A   0     -11.272  10.819  69.727  1.00  0.00    -0.297 C  
HETATM    3  H2  UNK A   0      -9.765  10.297  71.014  1.00  0.00     0.000 HD 
HETATM    4  H1  UNK A   0      -9.529   9.735  69.366  1.00  0.00     0.000 HD 
HETATM    5  O   UNK A   0     -11.952  11.418  70.547  1.00  0.00    -0.348 OA 
ENDROOT
BRANCH   2   6
ATOM      6  N   GLU A   1     -11.602  10.654  68.421  1.00  0.00    -0.469 N  
ATOM      7  H   GLU A   1     -12.515  10.268  68.181  1.00  0.00     0.000 HD 
BRANCH   6   8
ATOM      8  CA  GLU A   1     -10.677  11.017  67.355  1.00  0.00    -0.257 C  
ATOM      9  O   GLU A   1     -10.393  13.291  66.575  1.00  0.00    -0.275 OA 
ATOM     10  C   GLU A   1     -11.249  12.246  66.648  1.00  0.00    -0.316 C  
ATOM     11  OXT GLU A   1     -12.371  12.285  66.160  1.00  0.00    -0.588 OA 
BRANCH   8  12
ATOM     12  CB  GLU A   1     -10.508   9.864  66.356  1.00  0.00    -0.197 C  
BRANCH  12  13
ATOM     13  CG  GLU A   1      -9.358   8.935  66.738  1.00  0.00    -0.224 C  
ATOM     14  CD  GLU A   1      -8.510   8.556  65.551  1.00  0.00    -0.167 C  
ATOM     15  OE2 GLU A   1      -8.407   7.413  65.133  1.00  0.00    -0.135 OA 
ATOM     16  OE1 GLU A   1      -7.835   9.592  65.010  1.00  0.00    -0.110 OA 
ENDBRANCH  12  13
ENDBRANCH   8  12
ENDBRANCH   6   8
ENDBRANCH   2   6
TORSDOF 4
ENDMDL
MODEL      186
REMARK 921   NORMALIZED FREE ENERGY PREDICTED BY IDOCK:   -3.44 KCAL/MOL
REMARK 922        TOTAL FREE ENERGY PREDICTED BY IDOCK:   -4.09 KCAL/MOL
REMARK 923 INTER-LIGAND FREE ENERGY PREDICTED BY IDOCK:   -3.72 KCAL/MOL
REMARK 924 INTRA-LIGAND FREE ENERGY PREDICTED BY IDOCK:   -0.37 KCAL/MOL
REMARK 927      BINDING AFFINITY PREDICTED BY RF-SCORE:    0.00 PKD
ROOT
HETATM    1  N   UNK A   0     -10.215  20.006  65.725  1.00  0.00    -0.459 N  
HETATM    2  C   UNK A   0     -10.303  18.955  66.572  1.00  0.00    -0.431 C  
HETATM    3  H2  UNK A   0     -10.511  20.927  66.049  1.00  0.00     0.000 HD 
HETATM    4  H1  UNK A   0      -9.863  19.909  64.772  1.00  0.00     0.000 HD 
HETATM    5  O   UNK A   0     -10.724  19.071  67.713  1.00  0.00    -0.415 OA 
ENDROOT
BRANCH   2   6
ATOM      6  N   GLU A   1      -9.869  17.794  66.021  1.00  0.00    -0.222 N  
ATOM      7  H   GLU A   1     -10.049  17.612  65.034  1.00  0.00     0.000 HD 
BRANCH   6   8
ATOM      8  CA  GLU A   1      -9.150  16.803  66.811  1.00  0.00    -0.241 C  
ATOM      9  O   GLU A   1      -7.212  17.342  68.156  1.00  0.00    -0.187 OA 
ATOM     10  C   GLU A   1      -7.691  17.249  66.895  1.00  0.00    -0.215 C  
ATOM     11  OXT GLU A   1      -6.996  17.478  65.913  1.00  0.00    -0.277 OA 
BRANCH   8  12
ATOM     12  CB  GLU A   1      -9.241  15.413  66.165  1.00  0.00    -0.362 C  
BRANCH  12  13
ATOM     13  CG  GLU A   1      -8.863  14.299  67.139  1.00  0.00    -0.243 C  
ATOM     14  CD  GLU A   1     -10.059  13.748  67.871  1.00  0.00    -0.246 C  
ATOM     15  OE2 GLU A   1     -10.211  13.837  69.080  1.00  0.00    -0.158 OA 
ATOM     16  OE1 GLU A   1     -10.937  13.104  67.074  1.00  0.00    -0.262 OA 
ENDBRANCH  12  13
ENDBRANCH   8  12
ENDBRANCH   6   8
ENDBRANCH   2   6
TORSDOF 4
ENDMDL
MODEL      187
REMARK 921   NORMALIZED FREE ENERGY PREDICTED BY IDOCK:   -3.43 KCAL/MOL
REMARK 922        TOTAL FREE ENERGY PREDICTED BY IDOCK:   -4.08 KCAL/MOL
REMARK 923 INTER-LIGAND FREE ENERGY PREDICTED BY IDOCK:   -3.73 KCAL/MOL
REMARK 924 INTRA-LIGAND FREE ENERGY PREDICTED BY IDOCK:   -0.35 KCAL/MOL
REMARK 927      BINDING AFFINITY PREDICTED BY RF-SCORE:    0.00 PKD
ROOT
HETATM    1  N   UNK A   0      -8.256  10.499  67.729  1.00  0.00    -0.107 N  
HETATM    2  C   UNK A   0      -8.141  10.959  66.462  1.00  0.00    -0.154 C  
HETATM    3  H2  UNK A   0      -7.469   9.998  68.144  1.00  0.00     0.000 HD 
HETATM    4  H1  UNK A   0      -9.100  10.636  68.284  1.00  0.00     0.000 HD 
HETATM    5  O   UNK A   0      -7.129  10.794  65.797  1.00  0.00    -0.128 OA 
ENDROOT
BRANCH   2   6
ATOM      6  N   GLU A   1      -9.250  11.614  66.035  1.00  0.00    -0.232 N  
ATOM      7  H   GLU A   1      -9.536  11.529  65.060  1.00  0.00     0.000 HD 
BRANCH   6   8
ATOM      8  CA  GLU A   1     -10.040  12.435  66.943  1.00  0.00    -0.219 C  
ATOM      9  O   GLU A   1     -12.130  11.692  67.912  1.00  0.00    -0.613 OA 
ATOM     10  C   GLU A   1     -11.506  12.041  66.764  1.00  0.00    -0.345 C  
ATOM     11  OXT GLU A   1     -12.086  12.062  65.685  1.00  0.00    -0.508 OA 
BRANCH   8  12
ATOM     12  CB  GLU A   1      -9.854  13.928  66.638  1.00  0.00    -0.288 C  
BRANCH  12  13
ATOM     13  CG  GLU A   1      -9.620  14.750  67.904  1.00  0.00    -0.210 C  
ATOM     14  CD  GLU A   1     -10.609  15.878  68.045  1.00  0.00    -0.287 C  
ATOM     15  OE2 GLU A   1     -10.295  17.057  68.027  1.00  0.00    -0.307 OA 
ATOM     16  OE1 GLU A   1     -11.881  15.467  68.238  1.00  0.00    -0.330 OA 
ENDBRANCH  12  13
ENDBRANCH   8  12
ENDBRANCH   6   8
ENDBRANCH   2   6
TORSDOF 4
ENDMDL
MODEL      188
REMARK 921   NORMALIZED FREE ENERGY PREDICTED BY IDOCK:   -3.40 KCAL/MOL
REMARK 922        TOTAL FREE ENERGY PREDICTED BY IDOCK:   -4.04 KCAL/MOL
REMARK 923 INTER-LIGAND FREE ENERGY PREDICTED BY IDOCK:   -3.78 KCAL/MOL
REMARK 924 INTRA-LIGAND FREE ENERGY PREDICTED BY IDOCK:   -0.26 KCAL/MOL
REMARK 927      BINDING AFFINITY PREDICTED BY RF-SCORE:    0.00 PKD
ROOT
HETATM    1  N   UNK A   0     -11.212   5.017  73.792  1.00  0.00    -0.393 N  
HETATM    2  C   UNK A   0     -10.620   6.004  73.082  1.00  0.00    -0.246 C  
HETATM    3  H2  UNK A   0     -10.664   4.518  74.493  1.00  0.00     0.000 HD 
HETATM    4  H1  UNK A   0     -12.188   4.754  73.651  1.00  0.00     0.000 HD 
HETATM    5  O   UNK A   0      -9.452   6.319  73.251  1.00  0.00    -0.138 OA 
ENDROOT
BRANCH   2   6
ATOM      6  N   GLU A   1     -11.460   6.592  72.193  1.00  0.00    -0.274 N  
ATOM      7  H   GLU A   1     -12.461   6.606  72.387  1.00  0.00     0.000 HD 
BRANCH   6   8
ATOM      8  CA  GLU A   1     -10.960   7.204  70.969  1.00  0.00    -0.252 C  
ATOM      9  O   GLU A   1     -10.414   9.556  70.800  1.00  0.00    -0.274 OA 
ATOM     10  C   GLU A   1     -11.416   8.663  70.964  1.00  0.00    -0.278 C  
ATOM     11  OXT GLU A   1     -12.587   9.006  71.067  1.00  0.00    -0.247 OA 
BRANCH   8  12
ATOM     12  CB  GLU A   1     -11.499   6.477  69.730  1.00  0.00    -0.443 C  
BRANCH  12  13
ATOM     13  CG  GLU A   1     -10.380   6.032  68.791  1.00  0.00    -0.267 C  
ATOM     14  CD  GLU A   1     -10.720   6.268  67.342  1.00  0.00    -0.331 C  
ATOM     15  OE2 GLU A   1     -10.851   5.371  66.525  1.00  0.00    -0.287 OA 
ATOM     16  OE1 GLU A   1     -10.827   7.573  67.013  1.00  0.00    -0.348 OA 
ENDBRANCH  12  13
ENDBRANCH   8  12
ENDBRANCH   6   8
ENDBRANCH   2   6
TORSDOF 4
ENDMDL
MODEL      189
REMARK 921   NORMALIZED FREE ENERGY PREDICTED BY IDOCK:   -3.39 KCAL/MOL
REMARK 922        TOTAL FREE ENERGY PREDICTED BY IDOCK:   -4.02 KCAL/MOL
REMARK 923 INTER-LIGAND FREE ENERGY PREDICTED BY IDOCK:   -3.53 KCAL/MOL
REMARK 924 INTRA-LIGAND FREE ENERGY PREDICTED BY IDOCK:   -0.49 KCAL/MOL
REMARK 927      BINDING AFFINITY PREDICTED BY RF-SCORE:    0.00 PKD
ROOT
HETATM    1  N   UNK A   0     -13.110  10.149  70.315  1.00  0.00    -0.557 N  
HETATM    2  C   UNK A   0     -12.485   9.628  71.396  1.00  0.00    -0.373 C  
HETATM    3  H2  UNK A   0     -14.087  10.432  70.400  1.00  0.00     0.000 HD 
HETATM    4  H1  UNK A   0     -12.639  10.268  69.419  1.00  0.00     0.000 HD 
HETATM    5  O   UNK A   0     -13.050   9.486  72.471  1.00  0.00    -0.383 OA 
ENDROOT
BRANCH   2   6
ATOM      6  N   GLU A   1     -11.191   9.304  71.153  1.00  0.00    -0.312 N  
ATOM      7  H   GLU A   1     -10.458   9.694  71.745  1.00  0.00     0.000 HD 
BRANCH   6   8
ATOM      8  CA  GLU A   1     -10.826   8.409  70.062  1.00  0.00    -0.225 C  
ATOM      9  O   GLU A   1     -11.777   6.199  69.798  1.00  0.00    -0.340 OA 
ATOM     10  C   GLU A   1     -10.983   6.976  70.570  1.00  0.00    -0.265 C  
ATOM     11  OXT GLU A   1     -10.422   6.547  71.570  1.00  0.00    -0.210 OA 
BRANCH   8  12
ATOM     12  CB  GLU A   1      -9.380   8.653  69.609  1.00  0.00    -0.161 C  
BRANCH  12  13
ATOM     13  CG  GLU A   1      -8.619   9.559  70.575  1.00  0.00    -0.231 C  
ATOM     14  CD  GLU A   1      -7.610   8.800  71.397  1.00  0.00    -0.102 C  
ATOM     15  OE2 GLU A   1      -7.675   8.687  72.611  1.00  0.00    -0.335 OA 
ATOM     16  OE1 GLU A   1      -6.593   8.286  70.673  1.00  0.00    -0.036 OA 
ENDBRANCH  12  13
ENDBRANCH   8  12
ENDBRANCH   6   8
ENDBRANCH   2   6
TORSDOF 4
ENDMDL
MODEL      190
REMARK 921   NORMALIZED FREE ENERGY PREDICTED BY IDOCK:   -3.38 KCAL/MOL
REMARK 922        TOTAL FREE ENERGY PREDICTED BY IDOCK:   -4.02 KCAL/MOL
REMARK 923 INTER-LIGAND FREE ENERGY PREDICTED BY IDOCK:   -3.76 KCAL/MOL
REMARK 924 INTRA-LIGAND FREE ENERGY PREDICTED BY IDOCK:   -0.26 KCAL/MOL
REMARK 927      BINDING AFFINITY PREDICTED BY RF-SCORE:    0.00 PKD
ROOT
HETATM    1  N   UNK A   0      -8.112  19.685  68.769  1.00  0.00    -0.313 N  
HETATM    2  C   UNK A   0      -9.213  19.393  68.039  1.00  0.00    -0.327 C  
HETATM    3  H2  UNK A   0      -7.556  20.502  68.516  1.00  0.00     0.000 HD 
HETATM    4  H1  UNK A   0      -7.820  19.117  69.564  1.00  0.00     0.000 HD 
HETATM    5  O   UNK A   0      -9.564  20.073  67.087  1.00  0.00    -0.351 OA 
ENDROOT
BRANCH   2   6
ATOM      6  N   GLU A   1      -9.867  18.291  68.487  1.00  0.00    -0.364 N  
ATOM      7  H   GLU A   1     -10.565  18.390  69.224  1.00  0.00     0.000 HD 
BRANCH   6   8
ATOM      8  CA  GLU A   1      -9.592  16.971  67.936  1.00  0.00    -0.249 C  
ATOM      9  O   GLU A   1      -8.814  15.117  69.283  1.00  0.00    -0.222 OA 
ATOM     10  C   GLU A   1      -8.495  16.335  68.789  1.00  0.00    -0.240 C  
ATOM     11  OXT GLU A   1      -7.406  16.857  68.991  1.00  0.00    -0.232 OA 
BRANCH   8  12
ATOM     12  CB  GLU A   1      -9.135  17.069  66.474  1.00  0.00    -0.291 C  
BRANCH  12  13
ATOM     13  CG  GLU A   1      -8.920  15.694  65.844  1.00  0.00    -0.189 C  
ATOM     14  CD  GLU A   1     -10.179  14.867  65.833  1.00  0.00    -0.314 C  
ATOM     15  OE2 GLU A   1     -10.305  13.821  66.451  1.00  0.00    -0.279 OA 
ATOM     16  OE1 GLU A   1     -11.151  15.363  65.038  1.00  0.00    -0.388 OA 
ENDBRANCH  12  13
ENDBRANCH   8  12
ENDBRANCH   6   8
ENDBRANCH   2   6
TORSDOF 4
ENDMDL
MODEL      191
REMARK 921   NORMALIZED FREE ENERGY PREDICTED BY IDOCK:   -3.38 KCAL/MOL
REMARK 922        TOTAL FREE ENERGY PREDICTED BY IDOCK:   -4.01 KCAL/MOL
REMARK 923 INTER-LIGAND FREE ENERGY PREDICTED BY IDOCK:   -3.88 KCAL/MOL
REMARK 924 INTRA-LIGAND FREE ENERGY PREDICTED BY IDOCK:   -0.13 KCAL/MOL
REMARK 927      BINDING AFFINITY PREDICTED BY RF-SCORE:    0.00 PKD
ROOT
HETATM    1  N   UNK A   0      -9.576  20.549  66.284  1.00  0.00    -0.657 N  
HETATM    2  C   UNK A   0      -9.701  19.847  67.433  1.00  0.00    -0.389 C  
HETATM    3  H2  UNK A   0     -10.416  20.924  65.841  1.00  0.00     0.000 HD 
HETATM    4  H1  UNK A   0      -8.671  20.718  65.845  1.00  0.00     0.000 HD 
HETATM    5  O   UNK A   0     -10.786  19.646  67.959  1.00  0.00    -0.381 OA 
ENDROOT
BRANCH   2   6
ATOM      6  N   GLU A   1      -8.511  19.417  67.922  1.00  0.00    -0.304 N  
ATOM      7  H   GLU A   1      -7.867  20.091  68.335  1.00  0.00     0.000 HD 
BRANCH   6   8
ATOM      8  CA  GLU A   1      -8.134  18.010  67.869  1.00  0.00    -0.243 C  
ATOM      9  O   GLU A   1      -7.129  16.844  69.736  1.00  0.00     0.002 OA 
ATOM     10  C   GLU A   1      -6.948  17.815  68.812  1.00  0.00    -0.257 C  
ATOM     11  OXT GLU A   1      -5.907  18.454  68.731  1.00  0.00    -0.194 OA 
BRANCH   8  12
ATOM     12  CB  GLU A   1      -7.748  17.597  66.442  1.00  0.00    -0.325 C  
BRANCH  12  13
ATOM     13  CG  GLU A   1      -6.333  18.040  66.077  1.00  0.00    -0.288 C  
ATOM     14  CD  GLU A   1      -6.317  19.024  64.935  1.00  0.00    -0.203 C  
ATOM     15  OE2 GLU A   1      -5.803  18.792  63.852  1.00  0.00    -0.337 OA 
ATOM     16  OE1 GLU A   1      -6.889  20.210  65.230  1.00  0.00    -0.300 OA 
ENDBRANCH  12  13
ENDBRANCH   8  12
ENDBRANCH   6   8
ENDBRANCH   2   6
TORSDOF 4
ENDMDL
MODEL      192
REMARK 921   NORMALIZED FREE ENERGY PREDICTED BY IDOCK:   -3.37 KCAL/MOL
REMARK 922        TOTAL FREE ENERGY PREDICTED BY IDOCK:   -4.00 KCAL/MOL
REMARK 923 INTER-LIGAND FREE ENERGY PREDICTED BY IDOCK:   -3.66 KCAL/MOL
REMARK 924 INTRA-LIGAND FREE ENERGY PREDICTED BY IDOCK:   -0.34 KCAL/MOL
REMARK 927      BINDING AFFINITY PREDICTED BY RF-SCORE:    0.00 PKD
ROOT
HETATM    1  N   UNK A   0     -12.346  10.747  69.545  1.00  0.00    -0.514 N  
HETATM    2  C   UNK A   0     -11.141  10.133  69.509  1.00  0.00    -0.250 C  
HETATM    3  H2  UNK A   0     -12.385  11.761  69.439  1.00  0.00     0.000 HD 
HETATM    4  H1  UNK A   0     -13.216  10.231  69.673  1.00  0.00     0.000 HD 
HETATM    5  O   UNK A   0     -10.098  10.751  69.355  1.00  0.00    -0.212 OA 
ENDROOT
BRANCH   2   6
ATOM      6  N   GLU A   1     -11.230   8.787  69.651  1.00  0.00    -0.436 N  
ATOM      7  H   GLU A   1     -11.904   8.269  69.089  1.00  0.00     0.000 HD 
BRANCH   6   8
ATOM      8  CA  GLU A   1     -10.380   8.066  70.590  1.00  0.00    -0.202 C  
ATOM      9  O   GLU A   1     -10.070   5.667  70.512  1.00  0.00    -0.191 OA 
ATOM     10  C   GLU A   1     -10.957   6.660  70.748  1.00  0.00    -0.270 C  
ATOM     11  OXT GLU A   1     -12.113   6.437  71.088  1.00  0.00    -0.307 OA 
BRANCH   8  12
ATOM     12  CB  GLU A   1     -10.337   8.776  71.950  1.00  0.00    -0.414 C  
BRANCH  12  13
ATOM     13  CG  GLU A   1      -9.184   8.281  72.822  1.00  0.00    -0.336 C  
ATOM     14  CD  GLU A   1      -7.878   8.237  72.071  1.00  0.00    -0.130 C  
ATOM     15  OE2 GLU A   1      -7.264   7.206  71.845  1.00  0.00    -0.077 OA 
ATOM     16  OE1 GLU A   1      -7.418   9.452  71.704  1.00  0.00    -0.323 OA 
ENDBRANCH  12  13
ENDBRANCH   8  12
ENDBRANCH   6   8
ENDBRANCH   2   6
TORSDOF 4
ENDMDL
MODEL      193
REMARK 921   NORMALIZED FREE ENERGY PREDICTED BY IDOCK:   -3.37 KCAL/MOL
REMARK 922        TOTAL FREE ENERGY PREDICTED BY IDOCK:   -4.00 KCAL/MOL
REMARK 923 INTER-LIGAND FREE ENERGY PREDICTED BY IDOCK:   -3.78 KCAL/MOL
REMARK 924 INTRA-LIGAND FREE ENERGY PREDICTED BY IDOCK:   -0.22 KCAL/MOL
REMARK 927      BINDING AFFINITY PREDICTED BY RF-SCORE:    0.00 PKD
ROOT
HETATM    1  N   UNK A   0     -10.119  11.259  69.032  1.00  0.00    -0.359 N  
HETATM    2  C   UNK A   0     -10.980  11.054  68.008  1.00  0.00    -0.258 C  
HETATM    3  H2  UNK A   0     -10.492  11.537  69.940  1.00  0.00     0.000 HD 
HETATM    4  H1  UNK A   0      -9.111  11.145  68.927  1.00  0.00     0.000 HD 
HETATM    5  O   UNK A   0     -12.188  11.190  68.135  1.00  0.00    -0.612 OA 
ENDROOT
BRANCH   2   6
ATOM      6  N   GLU A   1     -10.358  10.679  66.862  1.00  0.00    -0.227 N  
ATOM      7  H   GLU A   1      -9.858   9.791  66.833  1.00  0.00     0.000 HD 
BRANCH   6   8
ATOM      8  CA  GLU A   1     -10.390  11.521  65.673  1.00  0.00    -0.261 C  
ATOM      9  O   GLU A   1     -10.113  10.647  63.433  1.00  0.00    -0.317 OA 
ATOM     10  C   GLU A   1      -9.500  10.863  64.619  1.00  0.00    -0.244 C  
ATOM     11  OXT GLU A   1      -8.324  10.578  64.808  1.00  0.00    -0.170 OA 
BRANCH   8  12
ATOM     12  CB  GLU A   1      -9.882  12.935  65.985  1.00  0.00    -0.256 C  
BRANCH  12  13
ATOM     13  CG  GLU A   1     -10.777  14.015  65.380  1.00  0.00    -0.344 C  
ATOM     14  CD  GLU A   1     -10.381  15.400  65.822  1.00  0.00    -0.361 C  
ATOM     15  OE2 GLU A   1     -11.099  16.126  66.492  1.00  0.00    -0.125 OA 
ATOM     16  OE1 GLU A   1      -9.169  15.790  65.372  1.00  0.00    -0.243 OA 
ENDBRANCH  12  13
ENDBRANCH   8  12
ENDBRANCH   6   8
ENDBRANCH   2   6
TORSDOF 4
ENDMDL
MODEL      194
REMARK 921   NORMALIZED FREE ENERGY PREDICTED BY IDOCK:   -3.34 KCAL/MOL
REMARK 922        TOTAL FREE ENERGY PREDICTED BY IDOCK:   -3.96 KCAL/MOL
REMARK 923 INTER-LIGAND FREE ENERGY PREDICTED BY IDOCK:   -3.58 KCAL/MOL
REMARK 924 INTRA-LIGAND FREE ENERGY PREDICTED BY IDOCK:   -0.38 KCAL/MOL
REMARK 927      BINDING AFFINITY PREDICTED BY RF-SCORE:    0.00 PKD
ROOT
HETATM    1  N   UNK A   0     -13.375   7.820  71.398  1.00  0.00    -0.502 N  
HETATM    2  C   UNK A   0     -12.167   7.210  71.385  1.00  0.00    -0.362 C  
HETATM    3  H2  UNK A   0     -13.835   8.020  70.509  1.00  0.00     0.000 HD 
HETATM    4  H1  UNK A   0     -13.841   8.087  72.265  1.00  0.00     0.000 HD 
HETATM    5  O   UNK A   0     -11.609   6.890  70.346  1.00  0.00    -0.325 OA 
ENDROOT
BRANCH   2   6
ATOM      6  N   GLU A   1     -11.672   6.994  72.630  1.00  0.00    -0.490 N  
ATOM      7  H   GLU A   1     -12.285   7.101  73.437  1.00  0.00     0.000 HD 
BRANCH   6   8
ATOM      8  CA  GLU A   1     -10.281   6.611  72.835  1.00  0.00    -0.195 C  
ATOM      9  O   GLU A   1      -9.529   4.311  72.798  1.00  0.00    -0.122 OA 
ATOM     10  C   GLU A   1     -10.275   5.219  73.467  1.00  0.00    -0.202 C  
ATOM     11  OXT GLU A   1     -10.865   4.944  74.504  1.00  0.00    -0.343 OA 
BRANCH   8  12
ATOM     12  CB  GLU A   1      -9.564   7.611  73.753  1.00  0.00    -0.275 C  
BRANCH  12  13
ATOM     13  CG  GLU A   1      -8.187   8.000  73.218  1.00  0.00    -0.254 C  
ATOM     14  CD  GLU A   1      -8.209   8.292  71.740  1.00  0.00    -0.145 C  
ATOM     15  OE2 GLU A   1      -7.603   7.630  70.912  1.00  0.00    -0.077 OA 
ATOM     16  OE1 GLU A   1      -8.930   9.385  71.410  1.00  0.00    -0.284 OA 
ENDBRANCH  12  13
ENDBRANCH   8  12
ENDBRANCH   6   8
ENDBRANCH   2   6
TORSDOF 4
ENDMDL
MODEL      195
REMARK 921   NORMALIZED FREE ENERGY PREDICTED BY IDOCK:   -3.34 KCAL/MOL
REMARK 922        TOTAL FREE ENERGY PREDICTED BY IDOCK:   -3.96 KCAL/MOL
REMARK 923 INTER-LIGAND FREE ENERGY PREDICTED BY IDOCK:   -4.15 KCAL/MOL
REMARK 924 INTRA-LIGAND FREE ENERGY PREDICTED BY IDOCK:    0.19 KCAL/MOL
REMARK 927      BINDING AFFINITY PREDICTED BY RF-SCORE:    0.00 PKD
ROOT
HETATM    1  N   UNK A   0      -9.916  12.353  63.715  1.00  0.00    -0.585 N  
HETATM    2  C   UNK A   0     -10.234  12.275  65.028  1.00  0.00    -0.285 C  
HETATM    3  H2  UNK A   0     -10.532  11.911  63.033  1.00  0.00     0.000 HD 
HETATM    4  H1  UNK A   0      -9.082  12.838  63.385  1.00  0.00     0.000 HD 
HETATM    5  O   UNK A   0     -11.233  11.693  65.424  1.00  0.00    -0.279 OA 
ENDROOT
BRANCH   2   6
ATOM      6  N   GLU A   1      -9.340  12.911  65.826  1.00  0.00    -0.462 N  
ATOM      7  H   GLU A   1      -8.368  12.603  65.833  1.00  0.00     0.000 HD 
BRANCH   6   8
ATOM      8  CA  GLU A   1      -9.742  14.026  66.674  1.00  0.00    -0.289 C  
ATOM      9  O   GLU A   1     -11.999  14.900  66.721  1.00  0.00    -0.263 OA 
ATOM     10  C   GLU A   1     -10.885  14.754  65.968  1.00  0.00    -0.318 C  
ATOM     11  OXT GLU A   1     -10.803  15.199  64.829  1.00  0.00    -0.403 OA 
BRANCH   8  12
ATOM     12  CB  GLU A   1      -8.569  14.988  66.911  1.00  0.00    -0.280 C  
BRANCH  12  13
ATOM     13  CG  GLU A   1      -9.037  16.429  67.109  1.00  0.00    -0.220 C  
ATOM     14  CD  GLU A   1      -9.002  16.848  68.555  1.00  0.00    -0.254 C  
ATOM     15  OE2 GLU A   1      -9.999  17.146  69.196  1.00  0.00    -0.272 OA 
ATOM     16  OE1 GLU A   1      -7.758  16.909  69.076  1.00  0.00    -0.243 OA 
ENDBRANCH  12  13
ENDBRANCH   8  12
ENDBRANCH   6   8
ENDBRANCH   2   6
TORSDOF 4
ENDMDL
MODEL      196
REMARK 921   NORMALIZED FREE ENERGY PREDICTED BY IDOCK:   -3.33 KCAL/MOL
REMARK 922        TOTAL FREE ENERGY PREDICTED BY IDOCK:   -3.95 KCAL/MOL
REMARK 923 INTER-LIGAND FREE ENERGY PREDICTED BY IDOCK:   -3.41 KCAL/MOL
REMARK 924 INTRA-LIGAND FREE ENERGY PREDICTED BY IDOCK:   -0.53 KCAL/MOL
REMARK 927      BINDING AFFINITY PREDICTED BY RF-SCORE:    0.00 PKD
ROOT
HETATM    1  N   UNK A   0     -10.977   5.655  70.094  1.00  0.00    -0.290 N  
HETATM    2  C   UNK A   0     -11.154   6.516  69.066  1.00  0.00    -0.310 C  
HETATM    3  H2  UNK A   0     -10.887   4.659  69.892  1.00  0.00     0.000 HD 
HETATM    4  H1  UNK A   0     -10.929   5.968  71.064  1.00  0.00     0.000 HD 
HETATM    5  O   UNK A   0     -11.210   6.142  67.904  1.00  0.00    -0.304 OA 
ENDROOT
BRANCH   2   6
ATOM      6  N   GLU A   1     -11.247   7.808  69.469  1.00  0.00    -0.446 N  
ATOM      7  H   GLU A   1     -11.653   8.500  68.840  1.00  0.00     0.000 HD 
BRANCH   6   8
ATOM      8  CA  GLU A   1     -10.779   8.227  70.784  1.00  0.00    -0.218 C  
ATOM      9  O   GLU A   1     -12.206   8.269  72.739  1.00  0.00    -0.327 OA 
ATOM     10  C   GLU A   1     -11.972   8.826  71.529  1.00  0.00    -0.324 C  
ATOM     11  OXT GLU A   1     -12.648   9.750  71.093  1.00  0.00    -0.315 OA 
BRANCH   8  12
ATOM     12  CB  GLU A   1      -9.656   9.267  70.664  1.00  0.00    -0.334 C  
BRANCH  12  13
ATOM     13  CG  GLU A   1      -9.628   9.927  69.287  1.00  0.00    -0.215 C  
ATOM     14  CD  GLU A   1      -8.412   9.535  68.488  1.00  0.00    -0.119 C  
ATOM     15  OE2 GLU A   1      -7.547  10.324  68.143  1.00  0.00    -0.086 OA 
ATOM     16  OE1 GLU A   1      -8.383   8.229  68.146  1.00  0.00    -0.126 OA 
ENDBRANCH  12  13
ENDBRANCH   8  12
ENDBRANCH   6   8
ENDBRANCH   2   6
TORSDOF 4
ENDMDL
MODEL      197
REMARK 921   NORMALIZED FREE ENERGY PREDICTED BY IDOCK:   -3.32 KCAL/MOL
REMARK 922        TOTAL FREE ENERGY PREDICTED BY IDOCK:   -3.94 KCAL/MOL
REMARK 923 INTER-LIGAND FREE ENERGY PREDICTED BY IDOCK:   -3.54 KCAL/MOL
REMARK 924 INTRA-LIGAND FREE ENERGY PREDICTED BY IDOCK:   -0.41 KCAL/MOL
REMARK 927      BINDING AFFINITY PREDICTED BY RF-SCORE:    0.00 PKD
ROOT
HETATM    1  N   UNK A   0     -12.857   7.271  70.693  1.00  0.00    -0.587 N  
HETATM    2  C   UNK A   0     -11.704   6.569  70.611  1.00  0.00    -0.374 C  
HETATM    3  H2  UNK A   0     -13.471   7.307  69.878  1.00  0.00     0.000 HD 
HETATM    4  H1  UNK A   0     -13.135   7.765  71.541  1.00  0.00     0.000 HD 
HETATM    5  O   UNK A   0     -11.371   5.977  69.595  1.00  0.00    -0.411 OA 
ENDROOT
BRANCH   2   6
ATOM      6  N   GLU A   1     -10.988   6.593  71.763  1.00  0.00    -0.233 N  
ATOM      7  H   GLU A   1     -11.339   6.094  72.580  1.00  0.00     0.000 HD 
BRANCH   6   8
ATOM      8  CA  GLU A   1      -9.727   7.317  71.857  1.00  0.00    -0.155 C  
ATOM      9  O   GLU A   1      -7.776   6.426  72.978  1.00  0.00    -0.098 OA 
ATOM     10  C   GLU A   1      -9.039   6.879  73.149  1.00  0.00    -0.132 C  
ATOM     11  OXT GLU A   1      -9.562   6.954  74.254  1.00  0.00    -0.241 OA 
BRANCH   8  12
ATOM     12  CB  GLU A   1      -9.963   8.834  71.872  1.00  0.00    -0.401 C  
BRANCH  12  13
ATOM     13  CG  GLU A   1      -9.441   9.511  70.606  1.00  0.00    -0.277 C  
ATOM     14  CD  GLU A   1     -10.426   9.435  69.468  1.00  0.00    -0.218 C  
ATOM     15  OE2 GLU A   1     -10.212   8.832  68.428  1.00  0.00    -0.186 OA 
ATOM     16  OE1 GLU A   1     -11.561  10.134  69.683  1.00  0.00    -0.224 OA 
ENDBRANCH  12  13
ENDBRANCH   8  12
ENDBRANCH   6   8
ENDBRANCH   2   6
TORSDOF 4
ENDMDL
MODEL      198
REMARK 921   NORMALIZED FREE ENERGY PREDICTED BY IDOCK:   -3.31 KCAL/MOL
REMARK 922        TOTAL FREE ENERGY PREDICTED BY IDOCK:   -3.93 KCAL/MOL
REMARK 923 INTER-LIGAND FREE ENERGY PREDICTED BY IDOCK:   -3.43 KCAL/MOL
REMARK 924 INTRA-LIGAND FREE ENERGY PREDICTED BY IDOCK:   -0.50 KCAL/MOL
REMARK 927      BINDING AFFINITY PREDICTED BY RF-SCORE:    0.00 PKD
ROOT
HETATM    1  N   UNK A   0      -8.453  11.423  68.854  1.00  0.00    -0.344 N  
HETATM    2  C   UNK A   0      -8.541  12.704  68.427  1.00  0.00    -0.122 C  
HETATM    3  H2  UNK A   0      -7.577  11.100  69.266  1.00  0.00     0.000 HD 
HETATM    4  H1  UNK A   0      -9.232  10.770  68.778  1.00  0.00     0.000 HD 
HETATM    5  O   UNK A   0      -7.607  13.487  68.518  1.00  0.00    -0.123 OA 
ENDROOT
BRANCH   2   6
ATOM      6  N   GLU A   1      -9.758  13.006  67.911  1.00  0.00    -0.212 N  
ATOM      7  H   GLU A   1     -10.538  12.367  68.065  1.00  0.00     0.000 HD 
BRANCH   6   8
ATOM      8  CA  GLU A   1      -9.974  14.226  67.144  1.00  0.00    -0.255 C  
ATOM      9  O   GLU A   1     -10.727  16.297  68.145  1.00  0.00    -0.295 OA 
ATOM     10  C   GLU A   1     -11.073  15.024  67.846  1.00  0.00    -0.307 C  
ATOM     11  OXT GLU A   1     -12.183  14.572  68.095  1.00  0.00    -0.234 OA 
BRANCH   8  12
ATOM     12  CB  GLU A   1     -10.394  13.903  65.704  1.00  0.00    -0.337 C  
BRANCH  12  13
ATOM     13  CG  GLU A   1     -11.132  12.569  65.604  1.00  0.00    -0.338 C  
ATOM     14  CD  GLU A   1     -10.366  11.550  64.800  1.00  0.00    -0.289 C  
ATOM     15  OE2 GLU A   1     -10.765  11.085  63.745  1.00  0.00    -0.362 OA 
ATOM     16  OE1 GLU A   1      -9.209  11.161  65.376  1.00  0.00    -0.210 OA 
ENDBRANCH  12  13
ENDBRANCH   8  12
ENDBRANCH   6   8
ENDBRANCH   2   6
TORSDOF 4
ENDMDL
MODEL      199
REMARK 921   NORMALIZED FREE ENERGY PREDICTED BY IDOCK:   -3.29 KCAL/MOL
REMARK 922        TOTAL FREE ENERGY PREDICTED BY IDOCK:   -3.91 KCAL/MOL
REMARK 923 INTER-LIGAND FREE ENERGY PREDICTED BY IDOCK:   -3.46 KCAL/MOL
REMARK 924 INTRA-LIGAND FREE ENERGY PREDICTED BY IDOCK:   -0.45 KCAL/MOL
REMARK 927      BINDING AFFINITY PREDICTED BY RF-SCORE:    0.00 PKD
ROOT
HETATM    1  N   UNK A   0     -10.215  20.067  65.722  1.00  0.00    -0.459 N  
HETATM    2  C   UNK A   0     -10.185  19.168  66.733  1.00  0.00    -0.400 C  
HETATM    3  H2  UNK A   0     -10.649  20.976  65.884  1.00  0.00     0.000 HD 
HETATM    4  H1  UNK A   0      -9.818  19.867  64.804  1.00  0.00     0.000 HD 
HETATM    5  O   UNK A   0     -10.661  19.408  67.833  1.00  0.00    -0.408 OA 
ENDROOT
BRANCH   2   6
ATOM      6  N   GLU A   1      -9.572  18.008  66.390  1.00  0.00    -0.307 N  
ATOM      7  H   GLU A   1      -9.775  17.584  65.484  1.00  0.00     0.000 HD 
BRANCH   6   8
ATOM      8  CA  GLU A   1      -8.630  17.354  67.288  1.00  0.00    -0.212 C  
ATOM      9  O   GLU A   1      -6.756  18.508  68.297  1.00  0.00    -0.215 OA 
ATOM     10  C   GLU A   1      -7.282  18.060  67.135  1.00  0.00    -0.194 C  
ATOM     11  OXT GLU A   1      -6.704  18.189  66.063  1.00  0.00    -0.227 OA 
BRANCH   8  12
ATOM     12  CB  GLU A   1      -8.487  15.864  66.949  1.00  0.00    -0.275 C  
BRANCH  12  13
ATOM     13  CG  GLU A   1      -7.967  15.051  68.133  1.00  0.00    -0.131 C  
ATOM     14  CD  GLU A   1      -6.782  14.197  67.764  1.00  0.00    -0.177 C  
ATOM     15  OE2 GLU A   1      -6.795  12.976  67.793  1.00  0.00    -0.110 OA 
ATOM     16  OE1 GLU A   1      -5.681  14.905  67.436  1.00  0.00    -0.342 OA 
ENDBRANCH  12  13
ENDBRANCH   8  12
ENDBRANCH   6   8
ENDBRANCH   2   6
TORSDOF 4
ENDMDL
MODEL      200
REMARK 921   NORMALIZED FREE ENERGY PREDICTED BY IDOCK:   -3.28 KCAL/MOL
REMARK 922        TOTAL FREE ENERGY PREDICTED BY IDOCK:   -3.89 KCAL/MOL
REMARK 923 INTER-LIGAND FREE ENERGY PREDICTED BY IDOCK:   -3.28 KCAL/MOL
REMARK 924 INTRA-LIGAND FREE ENERGY PREDICTED BY IDOCK:   -0.61 KCAL/MOL
REMARK 927      BINDING AFFINITY PREDICTED BY RF-SCORE:    0.00 PKD
ROOT
HETATM    1  N   UNK A   0      -7.570  18.864  68.767  1.00  0.00    -0.333 N  
HETATM    2  C   UNK A   0      -6.959  18.362  67.670  1.00  0.00    -0.208 C  
HETATM    3  H2  UNK A   0      -7.782  19.862  68.799  1.00  0.00     0.000 HD 
HETATM    4  H1  UNK A   0      -7.825  18.280  69.563  1.00  0.00     0.000 HD 
HETATM    5  O   UNK A   0      -6.652  19.061  66.716  1.00  0.00    -0.188 OA 
ENDROOT
BRANCH   2   6
ATOM      6  N   GLU A   1      -6.744  17.024  67.750  1.00  0.00    -0.144 N  
ATOM      7  H   GLU A   1      -5.792  16.678  67.864  1.00  0.00     0.000 HD 
BRANCH   6   8
ATOM      8  CA  GLU A   1      -7.846  16.074  67.678  1.00  0.00    -0.142 C  
ATOM      9  O   GLU A   1      -7.898  14.017  68.953  1.00  0.00    -0.123 OA 
ATOM     10  C   GLU A   1      -7.275  14.684  67.954  1.00  0.00    -0.159 C  
ATOM     11  OXT GLU A   1      -6.354  14.192  67.315  1.00  0.00    -0.295 OA 
BRANCH   8  12
ATOM     12  CB  GLU A   1      -8.512  16.107  66.296  1.00  0.00    -0.357 C  
BRANCH  12  13
ATOM     13  CG  GLU A   1     -10.037  16.119  66.391  1.00  0.00    -0.321 C  
ATOM     14  CD  GLU A   1     -10.540  17.121  67.397  1.00  0.00    -0.297 C  
ATOM     15  OE2 GLU A   1     -11.149  16.813  68.410  1.00  0.00    -0.357 OA 
ATOM     16  OE1 GLU A   1     -10.294  18.405  67.059  1.00  0.00    -0.358 OA 
ENDBRANCH  12  13
ENDBRANCH   8  12
ENDBRANCH   6   8
ENDBRANCH   2   6
TORSDOF 4
ENDMDL
MODEL      201
REMARK 921   NORMALIZED FREE ENERGY PREDICTED BY IDOCK:   -3.28 KCAL/MOL
REMARK 922        TOTAL FREE ENERGY PREDICTED BY IDOCK:   -3.89 KCAL/MOL
REMARK 923 INTER-LIGAND FREE ENERGY PREDICTED BY IDOCK:   -3.41 KCAL/MOL
REMARK 924 INTRA-LIGAND FREE ENERGY PREDICTED BY IDOCK:   -0.48 KCAL/MOL
REMARK 927      BINDING AFFINITY PREDICTED BY RF-SCORE:    0.00 PKD
ROOT
HETATM    1  N   UNK A   0     -11.365   6.480  67.335  1.00  0.00    -0.758 N  
HETATM    2  C   UNK A   0     -10.621   7.593  67.528  1.00  0.00    -0.252 C  
HETATM    3  H2  UNK A   0     -11.341   6.023  66.423  1.00  0.00     0.000 HD 
HETATM    4  H1  UNK A   0     -11.949   6.081  68.070  1.00  0.00     0.000 HD 
HETATM    5  O   UNK A   0      -9.921   8.070  66.648  1.00  0.00    -0.245 OA 
ENDROOT
BRANCH   2   6
ATOM      6  N   GLU A   1     -10.734   8.093  68.785  1.00  0.00    -0.403 N  
ATOM      7  H   GLU A   1     -10.939   9.084  68.911  1.00  0.00     0.000 HD 
BRANCH   6   8
ATOM      8  CA  GLU A   1     -10.570   7.242  69.956  1.00  0.00    -0.233 C  
ATOM      9  O   GLU A   1     -12.315   6.913  71.601  1.00  0.00    -0.339 OA 
ATOM     10  C   GLU A   1     -11.455   7.810  71.066  1.00  0.00    -0.281 C  
ATOM     11  OXT GLU A   1     -11.382   8.965  71.465  1.00  0.00    -0.275 OA 
BRANCH   8  12
ATOM     12  CB  GLU A   1      -9.105   7.211  70.413  1.00  0.00    -0.156 C  
BRANCH  12  13
ATOM     13  CG  GLU A   1      -8.646   5.801  70.782  1.00  0.00    -0.129 C  
ATOM     14  CD  GLU A   1      -8.770   4.839  69.628  1.00  0.00    -0.085 C  
ATOM     15  OE2 GLU A   1      -9.517   3.873  69.632  1.00  0.00    -0.165 OA 
ATOM     16  OE1 GLU A   1      -7.945   5.116  68.596  1.00  0.00    -0.085 OA 
ENDBRANCH  12  13
ENDBRANCH   8  12
ENDBRANCH   6   8
ENDBRANCH   2   6
TORSDOF 4
ENDMDL
MODEL      202
REMARK 921   NORMALIZED FREE ENERGY PREDICTED BY IDOCK:   -3.26 KCAL/MOL
REMARK 922        TOTAL FREE ENERGY PREDICTED BY IDOCK:   -3.86 KCAL/MOL
REMARK 923 INTER-LIGAND FREE ENERGY PREDICTED BY IDOCK:   -3.48 KCAL/MOL
REMARK 924 INTRA-LIGAND FREE ENERGY PREDICTED BY IDOCK:   -0.39 KCAL/MOL
REMARK 927      BINDING AFFINITY PREDICTED BY RF-SCORE:    0.00 PKD
ROOT
HETATM    1  N   UNK A   0     -10.552   8.938  68.453  1.00  0.00    -0.363 N  
HETATM    2  C   UNK A   0     -10.774   7.805  69.157  1.00  0.00    -0.126 C  
HETATM    3  H2  UNK A   0     -10.368   8.868  67.452  1.00  0.00     0.000 HD 
HETATM    4  H1  UNK A   0     -10.561   9.861  68.888  1.00  0.00     0.000 HD 
HETATM    5  O   UNK A   0     -10.763   6.700  68.635  1.00  0.00    -0.215 OA 
ENDROOT
BRANCH   2   6
ATOM      6  N   GLU A   1     -11.016   8.039  70.471  1.00  0.00    -0.246 N  
ATOM      7  H   GLU A   1     -10.534   8.807  70.939  1.00  0.00     0.000 HD 
BRANCH   6   8
ATOM      8  CA  GLU A   1     -11.949   7.215  71.228  1.00  0.00    -0.337 C  
ATOM      9  O   GLU A   1     -14.313   7.709  71.386  1.00  0.00    -0.433 OA 
ATOM     10  C   GLU A   1     -13.072   8.126  71.723  1.00  0.00    -0.345 C  
ATOM     11  OXT GLU A   1     -12.880   9.134  72.392  1.00  0.00    -0.396 OA 
BRANCH   8  12
ATOM     12  CB  GLU A   1     -11.251   6.543  72.419  1.00  0.00    -0.310 C  
BRANCH  12  13
ATOM     13  CG  GLU A   1     -10.229   7.465  73.082  1.00  0.00    -0.363 C  
ATOM     14  CD  GLU A   1      -8.816   6.972  72.907  1.00  0.00    -0.125 C  
ATOM     15  OE2 GLU A   1      -8.103   6.622  73.835  1.00  0.00    -0.109 OA 
ATOM     16  OE1 GLU A   1      -8.386   6.992  71.627  1.00  0.00    -0.108 OA 
ENDBRANCH  12  13
ENDBRANCH   8  12
ENDBRANCH   6   8
ENDBRANCH   2   6
TORSDOF 4
ENDMDL
MODEL      203
REMARK 921   NORMALIZED FREE ENERGY PREDICTED BY IDOCK:   -3.26 KCAL/MOL
REMARK 922        TOTAL FREE ENERGY PREDICTED BY IDOCK:   -3.86 KCAL/MOL
REMARK 923 INTER-LIGAND FREE ENERGY PREDICTED BY IDOCK:   -3.62 KCAL/MOL
REMARK 924 INTRA-LIGAND FREE ENERGY PREDICTED BY IDOCK:   -0.24 KCAL/MOL
REMARK 927      BINDING AFFINITY PREDICTED BY RF-SCORE:    0.00 PKD
ROOT
HETATM    1  N   UNK A   0      -7.736  10.363  63.689  1.00  0.00    -0.297 N  
HETATM    2  C   UNK A   0      -7.853  10.492  65.031  1.00  0.00    -0.055 C  
HETATM    3  H2  UNK A   0      -7.218   9.568  63.314  1.00  0.00     0.000 HD 
HETATM    4  H1  UNK A   0      -8.148  11.034  63.040  1.00  0.00     0.000 HD 
HETATM    5  O   UNK A   0      -7.360   9.688  65.808  1.00  0.00    -0.095 OA 
ENDROOT
BRANCH   2   6
ATOM      6  N   GLU A   1      -8.572  11.582  65.396  1.00  0.00    -0.381 N  
ATOM      7  H   GLU A   1      -8.092  12.470  65.546  1.00  0.00     0.000 HD 
BRANCH   6   8
ATOM      8  CA  GLU A   1     -10.016  11.512  65.579  1.00  0.00    -0.242 C  
ATOM      9  O   GLU A   1     -11.594  12.070  63.830  1.00  0.00    -0.407 OA 
ATOM     10  C   GLU A   1     -10.648  12.560  64.663  1.00  0.00    -0.316 C  
ATOM     11  OXT GLU A   1     -10.355  13.748  64.692  1.00  0.00    -0.426 OA 
BRANCH   8  12
ATOM     12  CB  GLU A   1     -10.401  11.785  67.039  1.00  0.00    -0.243 C  
BRANCH  12  13
ATOM     13  CG  GLU A   1     -11.233  10.652  67.637  1.00  0.00    -0.361 C  
ATOM     14  CD  GLU A   1     -11.236  10.678  69.144  1.00  0.00    -0.265 C  
ATOM     15  OE2 GLU A   1     -10.759   9.791  69.835  1.00  0.00    -0.231 OA 
ATOM     16  OE1 GLU A   1     -11.856  11.756  69.669  1.00  0.00    -0.300 OA 
ENDBRANCH  12  13
ENDBRANCH   8  12
ENDBRANCH   6   8
ENDBRANCH   2   6
TORSDOF 4
ENDMDL
MODEL      204
REMARK 921   NORMALIZED FREE ENERGY PREDICTED BY IDOCK:   -3.25 KCAL/MOL
REMARK 922        TOTAL FREE ENERGY PREDICTED BY IDOCK:   -3.86 KCAL/MOL
REMARK 923 INTER-LIGAND FREE ENERGY PREDICTED BY IDOCK:   -4.28 KCAL/MOL
REMARK 924 INTRA-LIGAND FREE ENERGY PREDICTED BY IDOCK:    0.43 KCAL/MOL
REMARK 927      BINDING AFFINITY PREDICTED BY RF-SCORE:    0.00 PKD
ROOT
HETATM    1  N   UNK A   0     -10.181  13.203  64.029  1.00  0.00    -0.627 N  
HETATM    2  C   UNK A   0     -10.402  12.182  64.889  1.00  0.00    -0.289 C  
HETATM    3  H2  UNK A   0     -10.256  13.027  63.026  1.00  0.00     0.000 HD 
HETATM    4  H1  UNK A   0      -9.943  14.142  64.348  1.00  0.00     0.000 HD 
HETATM    5  O   UNK A   0     -10.688  11.057  64.506  1.00  0.00    -0.341 OA 
ENDROOT
BRANCH   2   6
ATOM      6  N   GLU A   1     -10.282  12.552  66.189  1.00  0.00    -0.247 N  
ATOM      7  H   GLU A   1      -9.625  12.056  66.790  1.00  0.00     0.000 HD 
BRANCH   6   8
ATOM      8  CA  GLU A   1     -11.074  13.643  66.742  1.00  0.00    -0.307 C  
ATOM      9  O   GLU A   1     -10.518  15.975  66.408  1.00  0.00    -0.301 OA 
ATOM     10  C   GLU A   1     -10.128  14.818  66.990  1.00  0.00    -0.245 C  
ATOM     11  OXT GLU A   1      -9.118  14.741  67.678  1.00  0.00    -0.178 OA 
BRANCH   8  12
ATOM     12  CB  GLU A   1     -11.749  13.222  68.055  1.00  0.00    -0.394 C  
BRANCH  12  13
ATOM     13  CG  GLU A   1     -11.229  14.018  69.251  1.00  0.00    -0.304 C  
ATOM     14  CD  GLU A   1     -12.324  14.369  70.224  1.00  0.00    -0.348 C  
ATOM     15  OE2 GLU A   1     -12.671  15.514  70.467  1.00  0.00    -0.434 OA 
ATOM     16  OE1 GLU A   1     -12.867  13.299  70.844  1.00  0.00    -0.270 OA 
ENDBRANCH  12  13
ENDBRANCH   8  12
ENDBRANCH   6   8
ENDBRANCH   2   6
TORSDOF 4
ENDMDL
MODEL      205
REMARK 921   NORMALIZED FREE ENERGY PREDICTED BY IDOCK:   -3.25 KCAL/MOL
REMARK 922        TOTAL FREE ENERGY PREDICTED BY IDOCK:   -3.85 KCAL/MOL
REMARK 923 INTER-LIGAND FREE ENERGY PREDICTED BY IDOCK:   -3.66 KCAL/MOL
REMARK 924 INTRA-LIGAND FREE ENERGY PREDICTED BY IDOCK:   -0.20 KCAL/MOL
REMARK 927      BINDING AFFINITY PREDICTED BY RF-SCORE:    0.00 PKD
ROOT
HETATM    1  N   UNK A   0      -8.087  10.864  68.043  1.00  0.00    -0.115 N  
HETATM    2  C   UNK A   0      -7.637  11.495  66.934  1.00  0.00    -0.151 C  
HETATM    3  H2  UNK A   0      -7.415  10.585  68.758  1.00  0.00     0.000 HD 
HETATM    4  H1  UNK A   0      -9.075  10.658  68.188  1.00  0.00     0.000 HD 
HETATM    5  O   UNK A   0      -6.453  11.743  66.760  1.00  0.00    -0.137 OA 
ENDROOT
BRANCH   2   6
ATOM      6  N   GLU A   1      -8.632  11.820  66.071  1.00  0.00    -0.389 N  
ATOM      7  H   GLU A   1      -8.473  12.552  65.379  1.00  0.00     0.000 HD 
BRANCH   6   8
ATOM      8  CA  GLU A   1      -9.922  11.143  66.111  1.00  0.00    -0.229 C  
ATOM      9  O   GLU A   1     -10.144   8.733  66.133  1.00  0.00    -0.269 OA 
ATOM     10  C   GLU A   1      -9.760   9.801  65.398  1.00  0.00    -0.313 C  
ATOM     11  OXT GLU A   1      -9.349   9.690  64.250  1.00  0.00    -0.244 OA 
BRANCH   8  12
ATOM     12  CB  GLU A   1     -11.006  11.982  65.421  1.00  0.00    -0.347 C  
BRANCH  12  13
ATOM     13  CG  GLU A   1     -12.029  12.530  66.414  1.00  0.00    -0.386 C  
ATOM     14  CD  GLU A   1     -11.626  12.286  67.845  1.00  0.00    -0.354 C  
ATOM     15  OE2 GLU A   1     -12.257  11.578  68.614  1.00  0.00    -0.492 OA 
ATOM     16  OE1 GLU A   1     -10.518  12.960  68.221  1.00  0.00    -0.229 OA 
ENDBRANCH  12  13
ENDBRANCH   8  12
ENDBRANCH   6   8
ENDBRANCH   2   6
TORSDOF 4
ENDMDL
MODEL      206
REMARK 921   NORMALIZED FREE ENERGY PREDICTED BY IDOCK:   -3.25 KCAL/MOL
REMARK 922        TOTAL FREE ENERGY PREDICTED BY IDOCK:   -3.85 KCAL/MOL
REMARK 923 INTER-LIGAND FREE ENERGY PREDICTED BY IDOCK:   -3.57 KCAL/MOL
REMARK 924 INTRA-LIGAND FREE ENERGY PREDICTED BY IDOCK:   -0.27 KCAL/MOL
REMARK 927      BINDING AFFINITY PREDICTED BY RF-SCORE:    0.00 PKD
ROOT
HETATM    1  N   UNK A   0     -10.904  18.557  67.806  1.00  0.00    -0.337 N  
HETATM    2  C   UNK A   0      -9.633  18.573  68.270  1.00  0.00    -0.343 C  
HETATM    3  H2  UNK A   0     -11.387  19.444  67.661  1.00  0.00     0.000 HD 
HETATM    4  H1  UNK A   0     -11.396  17.688  67.596  1.00  0.00     0.000 HD 
HETATM    5  O   UNK A   0      -9.044  19.613  68.521  1.00  0.00    -0.349 OA 
ENDROOT
BRANCH   2   6
ATOM      6  N   GLU A   1      -9.105  17.331  68.407  1.00  0.00    -0.258 N  
ATOM      7  H   GLU A   1      -9.509  16.689  69.089  1.00  0.00     0.000 HD 
BRANCH   6   8
ATOM      8  CA  GLU A   1      -7.974  16.895  67.599  1.00  0.00    -0.174 C  
ATOM      9  O   GLU A   1      -7.293  18.023  65.568  1.00  0.00    -0.539 OA 
ATOM     10  C   GLU A   1      -8.266  17.284  66.150  1.00  0.00    -0.223 C  
ATOM     11  OXT GLU A   1      -9.274  16.940  65.546  1.00  0.00    -0.443 OA 
BRANCH   8  12
ATOM     12  CB  GLU A   1      -7.772  15.377  67.707  1.00  0.00    -0.160 C  
BRANCH  12  13
ATOM     13  CG  GLU A   1      -8.886  14.703  68.505  1.00  0.00    -0.182 C  
ATOM     14  CD  GLU A   1      -9.133  13.285  68.059  1.00  0.00    -0.202 C  
ATOM     15  OE2 GLU A   1     -10.180  12.908  67.557  1.00  0.00    -0.211 OA 
ATOM     16  OE1 GLU A   1      -8.101  12.450  68.303  1.00  0.00    -0.154 OA 
ENDBRANCH  12  13
ENDBRANCH   8  12
ENDBRANCH   6   8
ENDBRANCH   2   6
TORSDOF 4
ENDMDL
MODEL      207
REMARK 921   NORMALIZED FREE ENERGY PREDICTED BY IDOCK:   -3.25 KCAL/MOL
REMARK 922        TOTAL FREE ENERGY PREDICTED BY IDOCK:   -3.85 KCAL/MOL
REMARK 923 INTER-LIGAND FREE ENERGY PREDICTED BY IDOCK:   -3.74 KCAL/MOL
REMARK 924 INTRA-LIGAND FREE ENERGY PREDICTED BY IDOCK:   -0.10 KCAL/MOL
REMARK 927      BINDING AFFINITY PREDICTED BY RF-SCORE:    0.00 PKD
ROOT
HETATM    1  N   UNK A   0      -8.312  19.516  68.545  1.00  0.00    -0.349 N  
HETATM    2  C   UNK A   0      -9.643  19.432  68.319  1.00  0.00    -0.378 C  
HETATM    3  H2  UNK A   0      -7.779  20.254  68.084  1.00  0.00     0.000 HD 
HETATM    4  H1  UNK A   0      -7.822  18.867  69.161  1.00  0.00     0.000 HD 
HETATM    5  O   UNK A   0     -10.229  20.210  67.581  1.00  0.00    -0.403 OA 
ENDROOT
BRANCH   2   6
ATOM      6  N   GLU A   1     -10.232  18.417  69.000  1.00  0.00    -0.461 N  
ATOM      7  H   GLU A   1     -10.781  18.626  69.833  1.00  0.00     0.000 HD 
BRANCH   6   8
ATOM      8  CA  GLU A   1     -10.095  17.033  68.563  1.00  0.00    -0.303 C  
ATOM      9  O   GLU A   1     -11.992  15.581  68.175  1.00  0.00    -0.233 OA 
ATOM     10  C   GLU A   1     -11.291  16.256  69.114  1.00  0.00    -0.291 C  
ATOM     11  OXT GLU A   1     -11.582  16.216  70.303  1.00  0.00    -0.337 OA 
BRANCH   8  12
ATOM     12  CB  GLU A   1      -8.785  16.421  69.077  1.00  0.00    -0.233 C  
BRANCH  12  13
ATOM     13  CG  GLU A   1      -8.708  14.918  68.811  1.00  0.00    -0.182 C  
ATOM     14  CD  GLU A   1      -8.499  14.606  67.351  1.00  0.00    -0.204 C  
ATOM     15  OE2 GLU A   1      -9.313  14.007  66.666  1.00  0.00    -0.272 OA 
ATOM     16  OE1 GLU A   1      -7.305  15.013  66.872  1.00  0.00    -0.098 OA 
ENDBRANCH  12  13
ENDBRANCH   8  12
ENDBRANCH   6   8
ENDBRANCH   2   6
TORSDOF 4
ENDMDL
MODEL      208
REMARK 921   NORMALIZED FREE ENERGY PREDICTED BY IDOCK:   -3.23 KCAL/MOL
REMARK 922        TOTAL FREE ENERGY PREDICTED BY IDOCK:   -3.83 KCAL/MOL
REMARK 923 INTER-LIGAND FREE ENERGY PREDICTED BY IDOCK:   -3.50 KCAL/MOL
REMARK 924 INTRA-LIGAND FREE ENERGY PREDICTED BY IDOCK:   -0.33 KCAL/MOL
REMARK 927      BINDING AFFINITY PREDICTED BY RF-SCORE:    0.00 PKD
ROOT
HETATM    1  N   UNK A   0     -11.512   6.604  67.151  1.00  0.00    -0.746 N  
HETATM    2  C   UNK A   0     -10.298   7.187  67.024  1.00  0.00    -0.298 C  
HETATM    3  H2  UNK A   0     -11.561   5.620  67.415  1.00  0.00     0.000 HD 
HETATM    4  H1  UNK A   0     -12.380   7.116  66.993  1.00  0.00     0.000 HD 
HETATM    5  O   UNK A   0      -9.257   6.574  67.214  1.00  0.00    -0.119 OA 
ENDROOT
BRANCH   2   6
ATOM      6  N   GLU A   1     -10.373   8.497  66.682  1.00  0.00    -0.317 N  
ATOM      7  H   GLU A   1     -10.478   8.751  65.700  1.00  0.00     0.000 HD 
BRANCH   6   8
ATOM      8  CA  GLU A   1     -10.308   9.548  67.688  1.00  0.00    -0.244 C  
ATOM      9  O   GLU A   1     -12.102  11.131  68.058  1.00  0.00    -0.635 OA 
ATOM     10  C   GLU A   1     -11.153  10.720  67.187  1.00  0.00    -0.227 C  
ATOM     11  OXT GLU A   1     -10.977  11.266  66.105  1.00  0.00    -0.266 OA 
BRANCH   8  12
ATOM     12  CB  GLU A   1      -8.860  10.002  67.918  1.00  0.00    -0.125 C  
BRANCH  12  13
ATOM     13  CG  GLU A   1      -8.778  11.231  68.822  1.00  0.00    -0.105 C  
ATOM     14  CD  GLU A   1      -7.861  12.290  68.266  1.00  0.00    -0.153 C  
ATOM     15  OE2 GLU A   1      -6.831  12.647  68.815  1.00  0.00    -0.087 OA 
ATOM     16  OE1 GLU A   1      -8.303  12.845  67.117  1.00  0.00    -0.184 OA 
ENDBRANCH  12  13
ENDBRANCH   8  12
ENDBRANCH   6   8
ENDBRANCH   2   6
TORSDOF 4
ENDMDL
MODEL      209
REMARK 921   NORMALIZED FREE ENERGY PREDICTED BY IDOCK:   -3.23 KCAL/MOL
REMARK 922        TOTAL FREE ENERGY PREDICTED BY IDOCK:   -3.83 KCAL/MOL
REMARK 923 INTER-LIGAND FREE ENERGY PREDICTED BY IDOCK:   -3.30 KCAL/MOL
REMARK 924 INTRA-LIGAND FREE ENERGY PREDICTED BY IDOCK:   -0.53 KCAL/MOL
REMARK 927      BINDING AFFINITY PREDICTED BY RF-SCORE:    0.00 PKD
ROOT
HETATM    1  N   UNK A   0     -10.155   5.192  70.267  1.00  0.00    -0.247 N  
HETATM    2  C   UNK A   0     -10.551   5.442  71.536  1.00  0.00    -0.216 C  
HETATM    3  H2  UNK A   0     -10.337   4.271  69.867  1.00  0.00     0.000 HD 
HETATM    4  H1  UNK A   0      -9.682   5.892  69.696  1.00  0.00     0.000 HD 
HETATM    5  O   UNK A   0     -11.118   4.603  72.220  1.00  0.00    -0.026 OA 
ENDROOT
BRANCH   2   6
ATOM      6  N   GLU A   1     -10.259   6.704  71.941  1.00  0.00    -0.186 N  
ATOM      7  H   GLU A   1     -10.265   6.922  72.937  1.00  0.00     0.000 HD 
BRANCH   6   8
ATOM      8  CA  GLU A   1      -9.939   7.753  70.982  1.00  0.00    -0.177 C  
ATOM      9  O   GLU A   1      -7.670   8.318  70.357  1.00  0.00    -0.079 OA 
ATOM     10  C   GLU A   1      -8.574   8.324  71.363  1.00  0.00    -0.149 C  
ATOM     11  OXT GLU A   1      -8.316   8.780  72.470  1.00  0.00    -0.398 OA 
BRANCH   8  12
ATOM     12  CB  GLU A   1     -11.000   8.861  71.002  1.00  0.00    -0.341 C  
BRANCH  12  13
ATOM     13  CG  GLU A   1     -11.806   8.863  72.300  1.00  0.00    -0.365 C  
ATOM     14  CD  GLU A   1     -13.268   8.585  72.066  1.00  0.00    -0.369 C  
ATOM     15  OE2 GLU A   1     -14.155   9.391  72.301  1.00  0.00    -0.374 OA 
ATOM     16  OE1 GLU A   1     -13.520   7.339  71.610  1.00  0.00    -0.375 OA 
ENDBRANCH  12  13
ENDBRANCH   8  12
ENDBRANCH   6   8
ENDBRANCH   2   6
TORSDOF 4
ENDMDL
MODEL      210
REMARK 921   NORMALIZED FREE ENERGY PREDICTED BY IDOCK:   -3.21 KCAL/MOL
REMARK 922        TOTAL FREE ENERGY PREDICTED BY IDOCK:   -3.81 KCAL/MOL
REMARK 923 INTER-LIGAND FREE ENERGY PREDICTED BY IDOCK:   -3.54 KCAL/MOL
REMARK 924 INTRA-LIGAND FREE ENERGY PREDICTED BY IDOCK:   -0.26 KCAL/MOL
REMARK 927      BINDING AFFINITY PREDICTED BY RF-SCORE:    0.00 PKD
ROOT
HETATM    1  N   UNK A   0      -9.704  19.782  68.350  1.00  0.00    -0.379 N  
HETATM    2  C   UNK A   0      -9.925  18.921  67.330  1.00  0.00    -0.338 C  
HETATM    3  H2  UNK A   0     -10.369  19.810  69.124  1.00  0.00     0.000 HD 
HETATM    4  H1  UNK A   0      -8.896  20.403  68.372  1.00  0.00     0.000 HD 
HETATM    5  O   UNK A   0     -10.894  18.176  67.304  1.00  0.00    -0.353 OA 
ENDROOT
BRANCH   2   6
ATOM      6  N   GLU A   1      -8.964  18.976  66.375  1.00  0.00    -0.329 N  
ATOM      7  H   GLU A   1      -9.226  18.863  65.396  1.00  0.00     0.000 HD 
BRANCH   6   8
ATOM      8  CA  GLU A   1      -7.565  19.195  66.719  1.00  0.00    -0.239 C  
ATOM      9  O   GLU A   1      -6.507  21.369  66.617  1.00  0.00    -0.398 OA 
ATOM     10  C   GLU A   1      -7.064  20.376  65.888  1.00  0.00    -0.207 C  
ATOM     11  OXT GLU A   1      -7.130  20.419  64.666  1.00  0.00    -0.178 OA 
BRANCH   8  12
ATOM     12  CB  GLU A   1      -6.723  17.946  66.423  1.00  0.00    -0.272 C  
BRANCH  12  13
ATOM     13  CG  GLU A   1      -6.065  17.383  67.681  1.00  0.00    -0.159 C  
ATOM     14  CD  GLU A   1      -6.801  17.775  68.936  1.00  0.00    -0.240 C  
ATOM     15  OE2 GLU A   1      -6.319  18.478  69.810  1.00  0.00    -0.237 OA 
ATOM     16  OE1 GLU A   1      -8.037  17.240  69.033  1.00  0.00    -0.214 OA 
ENDBRANCH  12  13
ENDBRANCH   8  12
ENDBRANCH   6   8
ENDBRANCH   2   6
TORSDOF 4
ENDMDL
MODEL      211
REMARK 921   NORMALIZED FREE ENERGY PREDICTED BY IDOCK:   -3.21 KCAL/MOL
REMARK 922        TOTAL FREE ENERGY PREDICTED BY IDOCK:   -3.80 KCAL/MOL
REMARK 923 INTER-LIGAND FREE ENERGY PREDICTED BY IDOCK:   -3.88 KCAL/MOL
REMARK 924 INTRA-LIGAND FREE ENERGY PREDICTED BY IDOCK:    0.08 KCAL/MOL
REMARK 927      BINDING AFFINITY PREDICTED BY RF-SCORE:    0.00 PKD
ROOT
HETATM    1  N   UNK A   0      -6.375  18.735  69.019  1.00  0.00    -0.245 N  
HETATM    2  C   UNK A   0      -7.175  19.625  68.387  1.00  0.00    -0.320 C  
HETATM    3  H2  UNK A   0      -5.364  18.866  68.977  1.00  0.00     0.000 HD 
HETATM    4  H1  UNK A   0      -6.748  17.939  69.536  1.00  0.00     0.000 HD 
HETATM    5  O   UNK A   0      -6.728  20.578  67.768  1.00  0.00    -0.272 OA 
ENDROOT
BRANCH   2   6
ATOM      6  N   GLU A   1      -8.494  19.343  68.530  1.00  0.00    -0.358 N  
ATOM      7  H   GLU A   1      -9.061  19.912  69.158  1.00  0.00     0.000 HD 
BRANCH   6   8
ATOM      8  CA  GLU A   1      -9.118  18.245  67.803  1.00  0.00    -0.267 C  
ATOM      9  O   GLU A   1     -10.089  18.505  65.602  1.00  0.00    -0.506 OA 
ATOM     10  C   GLU A   1     -10.202  18.842  66.907  1.00  0.00    -0.386 C  
ATOM     11  OXT GLU A   1     -11.116  19.542  67.324  1.00  0.00    -0.444 OA 
BRANCH   8  12
ATOM     12  CB  GLU A   1      -9.734  17.224  68.770  1.00  0.00    -0.280 C  
BRANCH  12  13
ATOM     13  CG  GLU A   1      -8.816  16.026  69.004  1.00  0.00    -0.244 C  
ATOM     14  CD  GLU A   1      -8.598  15.218  67.751  1.00  0.00    -0.158 C  
ATOM     15  OE2 GLU A   1      -8.965  14.060  67.623  1.00  0.00    -0.177 OA 
ATOM     16  OE1 GLU A   1      -7.918  15.877  66.789  1.00  0.00    -0.226 OA 
ENDBRANCH  12  13
ENDBRANCH   8  12
ENDBRANCH   6   8
ENDBRANCH   2   6
TORSDOF 4
ENDMDL
MODEL      212
REMARK 921   NORMALIZED FREE ENERGY PREDICTED BY IDOCK:   -3.20 KCAL/MOL
REMARK 922        TOTAL FREE ENERGY PREDICTED BY IDOCK:   -3.79 KCAL/MOL
REMARK 923 INTER-LIGAND FREE ENERGY PREDICTED BY IDOCK:   -3.39 KCAL/MOL
REMARK 924 INTRA-LIGAND FREE ENERGY PREDICTED BY IDOCK:   -0.40 KCAL/MOL
REMARK 927      BINDING AFFINITY PREDICTED BY RF-SCORE:    0.00 PKD
ROOT
HETATM    1  N   UNK A   0      -7.099  12.318  67.593  1.00  0.00    -0.113 N  
HETATM    2  C   UNK A   0      -8.091  13.017  66.995  1.00  0.00    -0.033 C  
HETATM    3  H2  UNK A   0      -6.351  12.828  68.063  1.00  0.00     0.000 HD 
HETATM    4  H1  UNK A   0      -7.074  11.298  67.591  1.00  0.00     0.000 HD 
HETATM    5  O   UNK A   0      -8.121  14.239  66.998  1.00  0.00    -0.162 OA 
ENDROOT
BRANCH   2   6
ATOM      6  N   GLU A   1      -9.025  12.220  66.418  1.00  0.00    -0.356 N  
ATOM      7  H   GLU A   1      -8.832  11.801  65.509  1.00  0.00     0.000 HD 
BRANCH   6   8
ATOM      8  CA  GLU A   1     -10.298  11.950  67.073  1.00  0.00    -0.212 C  
ATOM      9  O   GLU A   1     -10.586  10.206  68.726  1.00  0.00    -0.193 OA 
ATOM     10  C   GLU A   1     -10.330  10.462  67.423  1.00  0.00    -0.228 C  
ATOM     11  OXT GLU A   1     -10.168   9.570  66.601  1.00  0.00    -0.242 OA 
BRANCH   8  12
ATOM     12  CB  GLU A   1     -11.476  12.300  66.153  1.00  0.00    -0.429 C  
BRANCH  12  13
ATOM     13  CG  GLU A   1     -12.218  13.552  66.618  1.00  0.00    -0.411 C  
ATOM     14  CD  GLU A   1     -11.439  14.813  66.347  1.00  0.00    -0.319 C  
ATOM     15  OE2 GLU A   1     -11.020  15.550  67.227  1.00  0.00    -0.317 OA 
ATOM     16  OE1 GLU A   1     -11.278  15.084  65.035  1.00  0.00    -0.370 OA 
ENDBRANCH  12  13
ENDBRANCH   8  12
ENDBRANCH   6   8
ENDBRANCH   2   6
TORSDOF 4
ENDMDL
MODEL      213
REMARK 921   NORMALIZED FREE ENERGY PREDICTED BY IDOCK:   -3.19 KCAL/MOL
REMARK 922        TOTAL FREE ENERGY PREDICTED BY IDOCK:   -3.78 KCAL/MOL
REMARK 923 INTER-LIGAND FREE ENERGY PREDICTED BY IDOCK:   -3.52 KCAL/MOL
REMARK 924 INTRA-LIGAND FREE ENERGY PREDICTED BY IDOCK:   -0.26 KCAL/MOL
REMARK 927      BINDING AFFINITY PREDICTED BY RF-SCORE:    0.00 PKD
ROOT
HETATM    1  N   UNK A   0     -12.552  10.035  71.710  1.00  0.00    -0.405 N  
HETATM    2  C   UNK A   0     -12.068  10.528  70.547  1.00  0.00    -0.345 C  
HETATM    3  H2  UNK A   0     -12.970  10.679  72.382  1.00  0.00     0.000 HD 
HETATM    4  H1  UNK A   0     -12.513   9.041  71.939  1.00  0.00     0.000 HD 
HETATM    5  O   UNK A   0     -12.115  11.718  70.274  1.00  0.00    -0.338 OA 
ENDROOT
BRANCH   2   6
ATOM      6  N   GLU A   1     -11.550   9.567  69.741  1.00  0.00    -0.446 N  
ATOM      7  H   GLU A   1     -11.683   9.637  68.732  1.00  0.00     0.000 HD 
BRANCH   6   8
ATOM      8  CA  GLU A   1     -10.809   8.438  70.287  1.00  0.00    -0.239 C  
ATOM      9  O   GLU A   1      -9.138   8.675  72.022  1.00  0.00    -0.230 OA 
ATOM     10  C   GLU A   1      -9.443   8.957  70.735  1.00  0.00    -0.228 C  
ATOM     11  OXT GLU A   1      -8.669   9.552  69.996  1.00  0.00    -0.184 OA 
BRANCH   8  12
ATOM     12  CB  GLU A   1     -10.635   7.333  69.237  1.00  0.00    -0.230 C  
BRANCH  12  13
ATOM     13  CG  GLU A   1     -10.641   7.886  67.813  1.00  0.00    -0.244 C  
ATOM     14  CD  GLU A   1     -10.141   6.881  66.807  1.00  0.00    -0.194 C  
ATOM     15  OE2 GLU A   1      -9.126   7.036  66.146  1.00  0.00    -0.162 OA 
ATOM     16  OE1 GLU A   1     -10.942   5.804  66.667  1.00  0.00    -0.277 OA 
ENDBRANCH  12  13
ENDBRANCH   8  12
ENDBRANCH   6   8
ENDBRANCH   2   6
TORSDOF 4
ENDMDL
MODEL      214
REMARK 921   NORMALIZED FREE ENERGY PREDICTED BY IDOCK:   -3.19 KCAL/MOL
REMARK 922        TOTAL FREE ENERGY PREDICTED BY IDOCK:   -3.77 KCAL/MOL
REMARK 923 INTER-LIGAND FREE ENERGY PREDICTED BY IDOCK:   -3.54 KCAL/MOL
REMARK 924 INTRA-LIGAND FREE ENERGY PREDICTED BY IDOCK:   -0.23 KCAL/MOL
REMARK 927      BINDING AFFINITY PREDICTED BY RF-SCORE:    0.00 PKD
ROOT
HETATM    1  N   UNK A   0      -8.059  12.779  68.512  1.00  0.00    -0.275 N  
HETATM    2  C   UNK A   0      -7.279  13.831  68.848  1.00  0.00    -0.095 C  
HETATM    3  H2  UNK A   0      -7.689  12.074  67.873  1.00  0.00     0.000 HD 
HETATM    4  H1  UNK A   0      -9.006  12.665  68.875  1.00  0.00     0.000 HD 
HETATM    5  O   UNK A   0      -6.145  13.967  68.414  1.00  0.00    -0.083 OA 
ENDROOT
BRANCH   2   6
ATOM      6  N   GLU A   1      -7.886  14.685  69.710  1.00  0.00    -0.402 N  
ATOM      7  H   GLU A   1      -7.776  14.544  70.714  1.00  0.00     0.000 HD 
BRANCH   6   8
ATOM      8  CA  GLU A   1      -8.691  15.800  69.230  1.00  0.00    -0.261 C  
ATOM      9  O   GLU A   1     -10.879  16.325  70.122  1.00  0.00    -0.334 OA 
ATOM     10  C   GLU A   1     -10.160  15.422  69.417  1.00  0.00    -0.269 C  
ATOM     11  OXT GLU A   1     -10.663  14.407  68.951  1.00  0.00    -0.242 OA 
BRANCH   8  12
ATOM     12  CB  GLU A   1      -8.405  16.089  67.750  1.00  0.00    -0.159 C  
BRANCH  12  13
ATOM     13  CG  GLU A   1      -7.721  17.440  67.549  1.00  0.00    -0.205 C  
ATOM     14  CD  GLU A   1      -7.969  18.008  66.175  1.00  0.00    -0.192 C  
ATOM     15  OE2 GLU A   1      -7.087  18.194  65.352  1.00  0.00    -0.523 OA 
ATOM     16  OE1 GLU A   1      -9.258  18.337  65.946  1.00  0.00    -0.503 OA 
ENDBRANCH  12  13
ENDBRANCH   8  12
ENDBRANCH   6   8
ENDBRANCH   2   6
TORSDOF 4
ENDMDL
MODEL      215
REMARK 921   NORMALIZED FREE ENERGY PREDICTED BY IDOCK:   -3.17 KCAL/MOL
REMARK 922        TOTAL FREE ENERGY PREDICTED BY IDOCK:   -3.76 KCAL/MOL
REMARK 923 INTER-LIGAND FREE ENERGY PREDICTED BY IDOCK:   -3.55 KCAL/MOL
REMARK 924 INTRA-LIGAND FREE ENERGY PREDICTED BY IDOCK:   -0.21 KCAL/MOL
REMARK 927      BINDING AFFINITY PREDICTED BY RF-SCORE:    0.00 PKD
ROOT
HETATM    1  N   UNK A   0      -7.853   9.735  68.175  1.00  0.00    -0.086 N  
HETATM    2  C   UNK A   0      -9.197   9.820  68.297  1.00  0.00    -0.129 C  
HETATM    3  H2  UNK A   0      -7.399   8.835  68.336  1.00  0.00     0.000 HD 
HETATM    4  H1  UNK A   0      -7.277  10.540  67.927  1.00  0.00     0.000 HD 
HETATM    5  O   UNK A   0      -9.887   8.856  68.593  1.00  0.00    -0.159 OA 
ENDROOT
BRANCH   2   6
ATOM      6  N   GLU A   1      -9.673  11.066  68.047  1.00  0.00    -0.168 N  
ATOM      7  H   GLU A   1      -9.016  11.821  67.851  1.00  0.00     0.000 HD 
BRANCH   6   8
ATOM      8  CA  GLU A   1     -11.103  11.346  68.051  1.00  0.00    -0.257 C  
ATOM      9  O   GLU A   1     -12.256  12.339  66.169  1.00  0.00    -0.647 OA 
ATOM     10  C   GLU A   1     -11.339  12.550  67.140  1.00  0.00    -0.324 C  
ATOM     11  OXT GLU A   1     -10.776  13.628  67.284  1.00  0.00    -0.275 OA 
BRANCH   8  12
ATOM     12  CB  GLU A   1     -11.600  11.651  69.470  1.00  0.00    -0.397 C  
BRANCH  12  13
ATOM     13  CG  GLU A   1     -12.872  10.879  69.814  1.00  0.00     0.125 C  
ATOM     14  CD  GLU A   1     -12.953  10.532  71.278  1.00  0.00    -0.433 C  
ATOM     15  OE2 GLU A   1     -12.946   9.387  71.702  1.00  0.00    -0.342 OA 
ATOM     16  OE1 GLU A   1     -13.079  11.606  72.087  1.00  0.00    -0.457 OA 
ENDBRANCH  12  13
ENDBRANCH   8  12
ENDBRANCH   6   8
ENDBRANCH   2   6
TORSDOF 4
ENDMDL
MODEL      216
REMARK 921   NORMALIZED FREE ENERGY PREDICTED BY IDOCK:   -3.17 KCAL/MOL
REMARK 922        TOTAL FREE ENERGY PREDICTED BY IDOCK:   -3.75 KCAL/MOL
REMARK 923 INTER-LIGAND FREE ENERGY PREDICTED BY IDOCK:   -3.09 KCAL/MOL
REMARK 924 INTRA-LIGAND FREE ENERGY PREDICTED BY IDOCK:   -0.66 KCAL/MOL
REMARK 927      BINDING AFFINITY PREDICTED BY RF-SCORE:    0.00 PKD
ROOT
HETATM    1  N   UNK A   0      -8.566  10.118  70.019  1.00  0.00    -0.365 N  
HETATM    2  C   UNK A   0      -8.810   9.040  70.798  1.00  0.00    -0.234 C  
HETATM    3  H2  UNK A   0      -8.264  10.987  70.461  1.00  0.00     0.000 HD 
HETATM    4  H1  UNK A   0      -8.674  10.093  69.005  1.00  0.00     0.000 HD 
HETATM    5  O   UNK A   0      -8.681   9.070  72.013  1.00  0.00    -0.367 OA 
ENDROOT
BRANCH   2   6
ATOM      6  N   GLU A   1      -9.194   7.950  70.087  1.00  0.00    -0.153 N  
ATOM      7  H   GLU A   1      -8.521   7.203  69.915  1.00  0.00     0.000 HD 
BRANCH   6   8
ATOM      8  CA  GLU A   1     -10.548   7.825  69.564  1.00  0.00    -0.221 C  
ATOM      9  O   GLU A   1     -12.385   6.932  70.863  1.00  0.00    -0.386 OA 
ATOM     10  C   GLU A   1     -11.206   6.638  70.268  1.00  0.00    -0.353 C  
ATOM     11  OXT GLU A   1     -10.734   5.509  70.275  1.00  0.00    -0.294 OA 
BRANCH   8  12
ATOM     12  CB  GLU A   1     -10.534   7.596  68.046  1.00  0.00    -0.247 C  
BRANCH  12  13
ATOM     13  CG  GLU A   1      -9.273   6.868  67.585  1.00  0.00    -0.119 C  
ATOM     14  CD  GLU A   1      -8.470   7.681  66.602  1.00  0.00    -0.130 C  
ATOM     15  OE2 GLU A   1      -8.278   7.343  65.445  1.00  0.00    -0.128 OA 
ATOM     16  OE1 GLU A   1      -7.939   8.804  67.129  1.00  0.00    -0.096 OA 
ENDBRANCH  12  13
ENDBRANCH   8  12
ENDBRANCH   6   8
ENDBRANCH   2   6
TORSDOF 4
ENDMDL
MODEL      217
REMARK 921   NORMALIZED FREE ENERGY PREDICTED BY IDOCK:   -3.15 KCAL/MOL
REMARK 922        TOTAL FREE ENERGY PREDICTED BY IDOCK:   -3.73 KCAL/MOL
REMARK 923 INTER-LIGAND FREE ENERGY PREDICTED BY IDOCK:   -3.43 KCAL/MOL
REMARK 924 INTRA-LIGAND FREE ENERGY PREDICTED BY IDOCK:   -0.30 KCAL/MOL
REMARK 927      BINDING AFFINITY PREDICTED BY RF-SCORE:    0.00 PKD
ROOT
HETATM    1  N   UNK A   0     -11.392   6.508  67.184  1.00  0.00    -0.771 N  
HETATM    2  C   UNK A   0     -10.601   7.581  67.414  1.00  0.00    -0.294 C  
HETATM    3  H2  UNK A   0     -11.946   6.479  66.328  1.00  0.00     0.000 HD 
HETATM    4  H1  UNK A   0     -11.452   5.726  67.837  1.00  0.00     0.000 HD 
HETATM    5  O   UNK A   0     -10.528   8.517  66.632  1.00  0.00    -0.289 OA 
ENDROOT
BRANCH   2   6
ATOM      6  N   GLU A   1      -9.911   7.489  68.579  1.00  0.00    -0.163 N  
ATOM      7  H   GLU A   1      -9.886   6.598  69.075  1.00  0.00     0.000 HD 
BRANCH   6   8
ATOM      8  CA  GLU A   1      -9.206   8.636  69.135  1.00  0.00    -0.152 C  
ATOM      9  O   GLU A   1      -7.055   9.384  68.316  1.00  0.00    -0.074 OA 
ATOM     10  C   GLU A   1      -7.709   8.388  68.956  1.00  0.00    -0.097 C  
ATOM     11  OXT GLU A   1      -7.133   7.393  69.377  1.00  0.00    -0.066 OA 
BRANCH   8  12
ATOM     12  CB  GLU A   1      -9.538   8.819  70.622  1.00  0.00    -0.240 C  
BRANCH  12  13
ATOM     13  CG  GLU A   1     -10.517   7.761  71.128  1.00  0.00    -0.227 C  
ATOM     14  CD  GLU A   1     -11.287   8.226  72.337  1.00  0.00    -0.388 C  
ATOM     15  OE2 GLU A   1     -11.197   7.703  73.437  1.00  0.00    -0.314 OA 
ATOM     16  OE1 GLU A   1     -12.126   9.254  72.087  1.00  0.00    -0.354 OA 
ENDBRANCH  12  13
ENDBRANCH   8  12
ENDBRANCH   6   8
ENDBRANCH   2   6
TORSDOF 4
ENDMDL
MODEL      218
REMARK 921   NORMALIZED FREE ENERGY PREDICTED BY IDOCK:   -3.15 KCAL/MOL
REMARK 922        TOTAL FREE ENERGY PREDICTED BY IDOCK:   -3.73 KCAL/MOL
REMARK 923 INTER-LIGAND FREE ENERGY PREDICTED BY IDOCK:   -3.55 KCAL/MOL
REMARK 924 INTRA-LIGAND FREE ENERGY PREDICTED BY IDOCK:   -0.18 KCAL/MOL
REMARK 927      BINDING AFFINITY PREDICTED BY RF-SCORE:    0.00 PKD
ROOT
HETATM    1  N   UNK A   0      -8.094   7.340  70.094  1.00  0.00    -0.126 N  
HETATM    2  C   UNK A   0      -8.819   8.193  70.853  1.00  0.00    -0.142 C  
HETATM    3  H2  UNK A   0      -7.076   7.403  70.119  1.00  0.00     0.000 HD 
HETATM    4  H1  UNK A   0      -8.530   6.636  69.499  1.00  0.00     0.000 HD 
HETATM    5  O   UNK A   0      -8.297   9.037  71.566  1.00  0.00    -0.304 OA 
ENDROOT
BRANCH   2   6
ATOM      6  N   GLU A   1     -10.157   7.997  70.737  1.00  0.00    -0.192 N  
ATOM      7  H   GLU A   1     -10.499   7.171  70.247  1.00  0.00     0.000 HD 
BRANCH   6   8
ATOM      8  CA  GLU A   1     -11.113   8.943  71.297  1.00  0.00    -0.297 C  
ATOM      9  O   GLU A   1     -12.690   8.349  73.035  1.00  0.00    -0.172 OA 
ATOM     10  C   GLU A   1     -12.340   8.148  71.744  1.00  0.00    -0.321 C  
ATOM     11  OXT GLU A   1     -12.977   7.413  71.000  1.00  0.00    -0.269 OA 
BRANCH   8  12
ATOM     12  CB  GLU A   1     -11.516   9.999  70.259  1.00  0.00    -0.372 C  
BRANCH  12  13
ATOM     13  CG  GLU A   1     -12.861  10.645  70.587  1.00  0.00    -0.404 C  
ATOM     14  CD  GLU A   1     -12.703  11.962  71.301  1.00  0.00    -0.298 C  
ATOM     15  OE2 GLU A   1     -13.088  12.161  72.443  1.00  0.00    -0.299 OA 
ATOM     16  OE1 GLU A   1     -12.133  12.926  70.548  1.00  0.00    -0.356 OA 
ENDBRANCH  12  13
ENDBRANCH   8  12
ENDBRANCH   6   8
ENDBRANCH   2   6
TORSDOF 4
ENDMDL
MODEL      219
REMARK 921   NORMALIZED FREE ENERGY PREDICTED BY IDOCK:   -3.15 KCAL/MOL
REMARK 922        TOTAL FREE ENERGY PREDICTED BY IDOCK:   -3.72 KCAL/MOL
REMARK 923 INTER-LIGAND FREE ENERGY PREDICTED BY IDOCK:   -3.19 KCAL/MOL
REMARK 924 INTRA-LIGAND FREE ENERGY PREDICTED BY IDOCK:   -0.54 KCAL/MOL
REMARK 927      BINDING AFFINITY PREDICTED BY RF-SCORE:    0.00 PKD
ROOT
HETATM    1  N   UNK A   0      -8.804   8.810  67.591  1.00  0.00    -0.135 N  
HETATM    2  C   UNK A   0     -10.123   8.760  67.296  1.00  0.00    -0.236 C  
HETATM    3  H2  UNK A   0      -8.287   9.668  67.398  1.00  0.00     0.000 HD 
HETATM    4  H1  UNK A   0      -8.307   8.018  68.000  1.00  0.00     0.000 HD 
HETATM    5  O   UNK A   0     -10.718   9.709  66.806  1.00  0.00    -0.180 OA 
ENDROOT
BRANCH   2   6
ATOM      6  N   GLU A   1     -10.691   7.569  67.612  1.00  0.00    -0.446 N  
ATOM      7  H   GLU A   1     -11.707   7.484  67.609  1.00  0.00     0.000 HD 
BRANCH   6   8
ATOM      8  CA  GLU A   1      -9.878   6.409  67.954  1.00  0.00    -0.123 C  
ATOM      9  O   GLU A   1      -8.620   5.152  66.312  1.00  0.00    -0.112 OA 
ATOM     10  C   GLU A   1      -9.860   5.484  66.737  1.00  0.00    -0.167 C  
ATOM     11  OXT GLU A   1     -10.872   5.051  66.202  1.00  0.00    -0.294 OA 
BRANCH   8  12
ATOM     12  CB  GLU A   1     -10.455   5.672  69.170  1.00  0.00    -0.339 C  
BRANCH  12  13
ATOM     13  CG  GLU A   1     -11.531   6.489  69.882  1.00  0.00    -0.467 C  
ATOM     14  CD  GLU A   1     -10.975   7.287  71.033  1.00  0.00    -0.251 C  
ATOM     15  OE2 GLU A   1     -11.292   7.103  72.197  1.00  0.00    -0.249 OA 
ATOM     16  OE1 GLU A   1     -10.120   8.262  70.657  1.00  0.00    -0.189 OA 
ENDBRANCH  12  13
ENDBRANCH   8  12
ENDBRANCH   6   8
ENDBRANCH   2   6
TORSDOF 4
ENDMDL
MODEL      220
REMARK 921   NORMALIZED FREE ENERGY PREDICTED BY IDOCK:   -3.14 KCAL/MOL
REMARK 922        TOTAL FREE ENERGY PREDICTED BY IDOCK:   -3.72 KCAL/MOL
REMARK 923 INTER-LIGAND FREE ENERGY PREDICTED BY IDOCK:   -4.44 KCAL/MOL
REMARK 924 INTRA-LIGAND FREE ENERGY PREDICTED BY IDOCK:    0.72 KCAL/MOL
REMARK 927      BINDING AFFINITY PREDICTED BY RF-SCORE:    0.00 PKD
ROOT
HETATM    1  N   UNK A   0     -10.991   5.598  73.605  1.00  0.00    -0.424 N  
HETATM    2  C   UNK A   0     -10.982   6.934  73.392  1.00  0.00    -0.190 C  
HETATM    3  H2  UNK A   0     -10.191   5.168  74.070  1.00  0.00     0.000 HD 
HETATM    4  H1  UNK A   0     -11.770   5.006  73.318  1.00  0.00     0.000 HD 
HETATM    5  O   UNK A   0     -10.048   7.643  73.737  1.00  0.00    -0.293 OA 
ENDROOT
BRANCH   2   6
ATOM      6  N   GLU A   1     -12.106   7.378  72.777  1.00  0.00    -0.541 N  
ATOM      7  H   GLU A   1     -12.993   7.355  73.280  1.00  0.00     0.000 HD 
BRANCH   6   8
ATOM      8  CA  GLU A   1     -12.072   7.889  71.413  1.00  0.00    -0.307 C  
ATOM      9  O   GLU A   1     -11.645   6.482  69.490  1.00  0.00    -0.357 OA 
ATOM     10  C   GLU A   1     -11.110   7.008  70.615  1.00  0.00    -0.272 C  
ATOM     11  OXT GLU A   1      -9.946   6.812  70.939  1.00  0.00    -0.186 OA 
BRANCH   8  12
ATOM     12  CB  GLU A   1     -11.600   9.349  71.382  1.00  0.00    -0.451 C  
BRANCH  12  13
ATOM     13  CG  GLU A   1     -12.679  10.292  70.852  1.00  0.00    -0.462 C  
ATOM     14  CD  GLU A   1     -12.146  11.675  70.579  1.00  0.00    -0.366 C  
ATOM     15  OE2 GLU A   1     -12.516  12.671  71.179  1.00  0.00    -0.348 OA 
ATOM     16  OE1 GLU A   1     -11.245  11.724  69.574  1.00  0.00    -0.245 OA 
ENDBRANCH  12  13
ENDBRANCH   8  12
ENDBRANCH   6   8
ENDBRANCH   2   6
TORSDOF 4
ENDMDL
MODEL      221
REMARK 921   NORMALIZED FREE ENERGY PREDICTED BY IDOCK:   -3.14 KCAL/MOL
REMARK 922        TOTAL FREE ENERGY PREDICTED BY IDOCK:   -3.72 KCAL/MOL
REMARK 923 INTER-LIGAND FREE ENERGY PREDICTED BY IDOCK:   -3.41 KCAL/MOL
REMARK 924 INTRA-LIGAND FREE ENERGY PREDICTED BY IDOCK:   -0.30 KCAL/MOL
REMARK 927      BINDING AFFINITY PREDICTED BY RF-SCORE:    0.00 PKD
ROOT
HETATM    1  N   UNK A   0      -6.439  19.267  69.544  1.00  0.00    -0.306 N  
HETATM    2  C   UNK A   0      -6.917  19.786  68.390  1.00  0.00    -0.304 C  
HETATM    3  H2  UNK A   0      -5.779  19.817  70.095  1.00  0.00     0.000 HD 
HETATM    4  H1  UNK A   0      -6.716  18.345  69.882  1.00  0.00     0.000 HD 
HETATM    5  O   UNK A   0      -6.585  20.890  67.985  1.00  0.00    -0.314 OA 
ENDROOT
BRANCH   2   6
ATOM      6  N   GLU A   1      -7.790  18.960  67.761  1.00  0.00    -0.240 N  
ATOM      7  H   GLU A   1      -8.745  19.278  67.593  1.00  0.00     0.000 HD 
BRANCH   6   8
ATOM      8  CA  GLU A   1      -7.393  17.629  67.321  1.00  0.00    -0.182 C  
ATOM      9  O   GLU A   1      -5.350  17.203  66.094  1.00  0.00    -0.334 OA 
ATOM     10  C   GLU A   1      -6.566  17.793  66.046  1.00  0.00    -0.270 C  
ATOM     11  OXT GLU A   1      -6.969  18.380  65.049  1.00  0.00    -0.411 OA 
BRANCH   8  12
ATOM     12  CB  GLU A   1      -8.620  16.750  67.046  1.00  0.00    -0.233 C  
BRANCH  12  13
ATOM     13  CG  GLU A   1      -9.453  16.513  68.304  1.00  0.00    -0.220 C  
ATOM     14  CD  GLU A   1      -9.162  15.178  68.940  1.00  0.00    -0.209 C  
ATOM     15  OE2 GLU A   1      -9.987  14.283  69.036  1.00  0.00    -0.196 OA 
ATOM     16  OE1 GLU A   1      -7.911  15.071  69.436  1.00  0.00    -0.195 OA 
ENDBRANCH  12  13
ENDBRANCH   8  12
ENDBRANCH   6   8
ENDBRANCH   2   6
TORSDOF 4
ENDMDL
MODEL      222
REMARK 921   NORMALIZED FREE ENERGY PREDICTED BY IDOCK:   -3.12 KCAL/MOL
REMARK 922        TOTAL FREE ENERGY PREDICTED BY IDOCK:   -3.70 KCAL/MOL
REMARK 923 INTER-LIGAND FREE ENERGY PREDICTED BY IDOCK:   -3.29 KCAL/MOL
REMARK 924 INTRA-LIGAND FREE ENERGY PREDICTED BY IDOCK:   -0.41 KCAL/MOL
REMARK 927      BINDING AFFINITY PREDICTED BY RF-SCORE:    0.00 PKD
ROOT
HETATM    1  N   UNK A   0      -7.316  12.597  66.880  1.00  0.00    -0.376 N  
HETATM    2  C   UNK A   0      -7.804  13.131  68.023  1.00  0.00    -0.147 C  
HETATM    3  H2  UNK A   0      -6.704  11.783  66.938  1.00  0.00     0.000 HD 
HETATM    4  H1  UNK A   0      -7.541  12.979  65.961  1.00  0.00     0.000 HD 
HETATM    5  O   UNK A   0      -7.535  12.672  69.124  1.00  0.00     0.029 OA 
ENDROOT
BRANCH   2   6
ATOM      6  N   GLU A   1      -8.611  14.199  67.805  1.00  0.00    -0.172 N  
ATOM      7  H   GLU A   1      -9.342  14.418  68.481  1.00  0.00     0.000 HD 
BRANCH   6   8
ATOM      8  CA  GLU A   1      -8.454  15.039  66.625  1.00  0.00    -0.157 C  
ATOM      9  O   GLU A   1      -6.686  16.676  66.398  1.00  0.00    -0.201 OA 
ATOM     10  C   GLU A   1      -7.811  16.350  67.074  1.00  0.00    -0.212 C  
ATOM     11  OXT GLU A   1      -8.279  17.068  67.949  1.00  0.00    -0.192 OA 
BRANCH   8  12
ATOM     12  CB  GLU A   1      -9.811  15.316  65.962  1.00  0.00    -0.357 C  
BRANCH  12  13
ATOM     13  CG  GLU A   1     -10.932  14.475  66.570  1.00  0.00    -0.321 C  
ATOM     14  CD  GLU A   1     -11.568  13.554  65.562  1.00  0.00    -0.320 C  
ATOM     15  OE2 GLU A   1     -12.734  13.640  65.210  1.00  0.00    -0.583 OA 
ATOM     16  OE1 GLU A   1     -10.741  12.588  65.108  1.00  0.00    -0.277 OA 
ENDBRANCH  12  13
ENDBRANCH   8  12
ENDBRANCH   6   8
ENDBRANCH   2   6
TORSDOF 4
ENDMDL
MODEL      223
REMARK 921   NORMALIZED FREE ENERGY PREDICTED BY IDOCK:   -3.12 KCAL/MOL
REMARK 922        TOTAL FREE ENERGY PREDICTED BY IDOCK:   -3.70 KCAL/MOL
REMARK 923 INTER-LIGAND FREE ENERGY PREDICTED BY IDOCK:   -3.52 KCAL/MOL
REMARK 924 INTRA-LIGAND FREE ENERGY PREDICTED BY IDOCK:   -0.17 KCAL/MOL
REMARK 927      BINDING AFFINITY PREDICTED BY RF-SCORE:    0.00 PKD
ROOT
HETATM    1  N   UNK A   0     -13.285  10.077  70.812  1.00  0.00    -0.591 N  
HETATM    2  C   UNK A   0     -12.005   9.885  70.416  1.00  0.00    -0.195 C  
HETATM    3  H2  UNK A   0     -13.624  11.031  70.934  1.00  0.00     0.000 HD 
HETATM    4  H1  UNK A   0     -13.921   9.301  70.991  1.00  0.00     0.000 HD 
HETATM    5  O   UNK A   0     -11.242  10.815  70.202  1.00  0.00    -0.284 OA 
ENDROOT
BRANCH   2   6
ATOM      6  N   GLU A   1     -11.685   8.574  70.281  1.00  0.00    -0.471 N  
ATOM      7  H   GLU A   1     -12.409   7.867  70.412  1.00  0.00     0.000 HD 
BRANCH   6   8
ATOM      8  CA  GLU A   1     -10.329   8.155  69.951  1.00  0.00    -0.214 C  
ATOM      9  O   GLU A   1      -9.605   7.697  67.688  1.00  0.00    -0.140 OA 
ATOM     10  C   GLU A   1     -10.407   7.286  68.696  1.00  0.00    -0.193 C  
ATOM     11  OXT GLU A   1     -11.108   6.286  68.608  1.00  0.00    -0.334 OA 
BRANCH   8  12
ATOM     12  CB  GLU A   1      -9.702   7.361  71.105  1.00  0.00    -0.166 C  
BRANCH  12  13
ATOM     13  CG  GLU A   1      -9.821   8.093  72.440  1.00  0.00    -0.346 C  
ATOM     14  CD  GLU A   1      -9.617   7.175  73.617  1.00  0.00    -0.246 C  
ATOM     15  OE2 GLU A   1     -10.485   6.929  74.440  1.00  0.00    -0.231 OA 
ATOM     16  OE1 GLU A   1      -8.366   6.676  73.709  1.00  0.00    -0.112 OA 
ENDBRANCH  12  13
ENDBRANCH   8  12
ENDBRANCH   6   8
ENDBRANCH   2   6
TORSDOF 4
ENDMDL
MODEL      224
REMARK 921   NORMALIZED FREE ENERGY PREDICTED BY IDOCK:   -3.12 KCAL/MOL
REMARK 922        TOTAL FREE ENERGY PREDICTED BY IDOCK:   -3.69 KCAL/MOL
REMARK 923 INTER-LIGAND FREE ENERGY PREDICTED BY IDOCK:   -3.35 KCAL/MOL
REMARK 924 INTRA-LIGAND FREE ENERGY PREDICTED BY IDOCK:   -0.33 KCAL/MOL
REMARK 927      BINDING AFFINITY PREDICTED BY RF-SCORE:    0.00 PKD
ROOT
HETATM    1  N   UNK A   0     -10.032   4.513  69.512  1.00  0.00    -0.206 N  
HETATM    2  C   UNK A   0      -9.676   5.313  70.543  1.00  0.00    -0.190 C  
HETATM    3  H2  UNK A   0      -9.418   3.741  69.252  1.00  0.00     0.000 HD 
HETATM    4  H1  UNK A   0     -10.894   4.656  68.986  1.00  0.00     0.000 HD 
HETATM    5  O   UNK A   0      -8.643   5.142  71.174  1.00  0.00    -0.118 OA 
ENDROOT
BRANCH   2   6
ATOM      6  N   GLU A   1     -10.582   6.291  70.791  1.00  0.00    -0.231 N  
ATOM      7  H   GLU A   1     -11.563   6.042  70.921  1.00  0.00     0.000 HD 
BRANCH   6   8
ATOM      8  CA  GLU A   1     -10.183   7.690  70.877  1.00  0.00    -0.199 C  
ATOM      9  O   GLU A   1      -8.725   8.540  72.612  1.00  0.00    -0.305 OA 
ATOM     10  C   GLU A   1      -9.942   8.011  72.352  1.00  0.00    -0.251 C  
ATOM     11  OXT GLU A   1     -10.780   7.837  73.228  1.00  0.00    -0.374 OA 
BRANCH   8  12
ATOM     12  CB  GLU A   1     -11.272   8.609  70.308  1.00  0.00    -0.196 C  
BRANCH  12  13
ATOM     13  CG  GLU A   1     -10.951  10.087  70.526  1.00  0.00    -0.392 C  
ATOM     14  CD  GLU A   1     -12.178  10.895  70.864  1.00  0.00    -0.381 C  
ATOM     15  OE2 GLU A   1     -12.615  11.786  70.153  1.00  0.00    -0.127 OA 
ATOM     16  OE1 GLU A   1     -12.732  10.574  72.052  1.00  0.00    -0.384 OA 
ENDBRANCH  12  13
ENDBRANCH   8  12
ENDBRANCH   6   8
ENDBRANCH   2   6
TORSDOF 4
ENDMDL
MODEL      225
REMARK 921   NORMALIZED FREE ENERGY PREDICTED BY IDOCK:   -3.12 KCAL/MOL
REMARK 922        TOTAL FREE ENERGY PREDICTED BY IDOCK:   -3.69 KCAL/MOL
REMARK 923 INTER-LIGAND FREE ENERGY PREDICTED BY IDOCK:   -3.32 KCAL/MOL
REMARK 924 INTRA-LIGAND FREE ENERGY PREDICTED BY IDOCK:   -0.36 KCAL/MOL
REMARK 927      BINDING AFFINITY PREDICTED BY RF-SCORE:    0.00 PKD
ROOT
HETATM    1  N   UNK A   0      -9.172  14.842  65.889  1.00  0.00    -0.502 N  
HETATM    2  C   UNK A   0     -10.362  14.326  65.504  1.00  0.00    -0.355 C  
HETATM    3  H2  UNK A   0      -9.092  15.851  66.022  1.00  0.00     0.000 HD 
HETATM    4  H1  UNK A   0      -8.353  14.257  66.052  1.00  0.00     0.000 HD 
HETATM    5  O   UNK A   0     -11.344  15.027  65.309  1.00  0.00    -0.352 OA 
ENDROOT
BRANCH   2   6
ATOM      6  N   GLU A   1     -10.336  12.976  65.375  1.00  0.00    -0.296 N  
ATOM      7  H   GLU A   1     -10.856  12.537  64.616  1.00  0.00     0.000 HD 
BRANCH   6   8
ATOM      8  CA  GLU A   1      -9.579  12.142  66.299  1.00  0.00    -0.237 C  
ATOM      9  O   GLU A   1      -8.006  10.455  65.565  1.00  0.00    -0.147 OA 
ATOM     10  C   GLU A   1      -9.311  10.808  65.602  1.00  0.00    -0.207 C  
ATOM     11  OXT GLU A   1     -10.194  10.097  65.139  1.00  0.00    -0.306 OA 
BRANCH   8  12
ATOM     12  CB  GLU A   1     -10.361  11.910  67.599  1.00  0.00    -0.217 C  
BRANCH  12  13
ATOM     13  CG  GLU A   1      -9.626  10.973  68.555  1.00  0.00    -0.187 C  
ATOM     14  CD  GLU A   1     -10.555   9.991  69.221  1.00  0.00    -0.227 C  
ATOM     15  OE2 GLU A   1     -10.761   9.967  70.424  1.00  0.00    -0.279 OA 
ATOM     16  OE1 GLU A   1     -11.111   9.103  68.370  1.00  0.00    -0.012 OA 
ENDBRANCH  12  13
ENDBRANCH   8  12
ENDBRANCH   6   8
ENDBRANCH   2   6
TORSDOF 4
ENDMDL
MODEL      226
REMARK 921   NORMALIZED FREE ENERGY PREDICTED BY IDOCK:   -3.11 KCAL/MOL
REMARK 922        TOTAL FREE ENERGY PREDICTED BY IDOCK:   -3.69 KCAL/MOL
REMARK 923 INTER-LIGAND FREE ENERGY PREDICTED BY IDOCK:   -3.51 KCAL/MOL
REMARK 924 INTRA-LIGAND FREE ENERGY PREDICTED BY IDOCK:   -0.18 KCAL/MOL
REMARK 927      BINDING AFFINITY PREDICTED BY RF-SCORE:    0.00 PKD
ROOT
HETATM    1  N   UNK A   0      -9.820  20.091  66.842  1.00  0.00    -0.409 N  
HETATM    2  C   UNK A   0      -9.502  18.962  66.169  1.00  0.00    -0.215 C  
HETATM    3  H2  UNK A   0     -10.804  20.333  66.962  1.00  0.00     0.000 HD 
HETATM    4  H1  UNK A   0      -9.110  20.710  67.233  1.00  0.00     0.000 HD 
HETATM    5  O   UNK A   0     -10.353  18.220  65.700  1.00  0.00    -0.607 OA 
ENDROOT
BRANCH   2   6
ATOM      6  N   GLU A   1      -8.164  18.752  66.090  1.00  0.00    -0.242 N  
ATOM      7  H   GLU A   1      -7.771  18.346  65.241  1.00  0.00     0.000 HD 
BRANCH   6   8
ATOM      8  CA  GLU A   1      -7.277  19.096  67.194  1.00  0.00    -0.208 C  
ATOM      9  O   GLU A   1      -6.675  21.376  67.739  1.00  0.00    -0.432 OA 
ATOM     10  C   GLU A   1      -6.556  20.391  66.820  1.00  0.00    -0.233 C  
ATOM     11  OXT GLU A   1      -5.901  20.529  65.795  1.00  0.00    -0.184 OA 
BRANCH   8  12
ATOM     12  CB  GLU A   1      -6.257  17.978  67.450  1.00  0.00    -0.173 C  
BRANCH  12  13
ATOM     13  CG  GLU A   1      -6.808  16.896  68.377  1.00  0.00    -0.167 C  
ATOM     14  CD  GLU A   1      -7.043  15.593  67.659  1.00  0.00    -0.168 C  
ATOM     15  OE2 GLU A   1      -8.147  15.090  67.518  1.00  0.00    -0.152 OA 
ATOM     16  OE1 GLU A   1      -5.913  15.001  67.217  1.00  0.00    -0.319 OA 
ENDBRANCH  12  13
ENDBRANCH   8  12
ENDBRANCH   6   8
ENDBRANCH   2   6
TORSDOF 4
ENDMDL
MODEL      227
REMARK 921   NORMALIZED FREE ENERGY PREDICTED BY IDOCK:   -3.11 KCAL/MOL
REMARK 922        TOTAL FREE ENERGY PREDICTED BY IDOCK:   -3.68 KCAL/MOL
REMARK 923 INTER-LIGAND FREE ENERGY PREDICTED BY IDOCK:   -3.13 KCAL/MOL
REMARK 924 INTRA-LIGAND FREE ENERGY PREDICTED BY IDOCK:   -0.55 KCAL/MOL
REMARK 927      BINDING AFFINITY PREDICTED BY RF-SCORE:    0.00 PKD
ROOT
HETATM    1  N   UNK A   0     -11.574  12.227  66.083  1.00  0.00    -0.386 N  
HETATM    2  C   UNK A   0     -11.032  11.980  64.869  1.00  0.00    -0.306 C  
HETATM    3  H2  UNK A   0     -12.127  13.075  66.213  1.00  0.00     0.000 HD 
HETATM    4  H1  UNK A   0     -11.449  11.595  66.874  1.00  0.00     0.000 HD 
HETATM    5  O   UNK A   0     -11.182  12.738  63.921  1.00  0.00    -0.386 OA 
ENDROOT
BRANCH   2   6
ATOM      6  N   GLU A   1     -10.332  10.818  64.829  1.00  0.00    -0.327 N  
ATOM      7  H   GLU A   1     -10.226  10.330  63.940  1.00  0.00     0.000 HD 
BRANCH   6   8
ATOM      8  CA  GLU A   1      -9.730  10.255  66.030  1.00  0.00    -0.218 C  
ATOM      9  O   GLU A   1      -7.375  10.467  66.547  1.00  0.00    -0.111 OA 
ATOM     10  C   GLU A   1      -8.276   9.917  65.701  1.00  0.00    -0.138 C  
ATOM     11  OXT GLU A   1      -7.943   9.189  64.775  1.00  0.00    -0.114 OA 
BRANCH   8  12
ATOM     12  CB  GLU A   1     -10.477   8.992  66.480  1.00  0.00    -0.192 C  
BRANCH  12  13
ATOM     13  CG  GLU A   1     -10.360   8.759  67.985  1.00  0.00    -0.273 C  
ATOM     14  CD  GLU A   1     -10.687   9.995  68.783  1.00  0.00    -0.223 C  
ATOM     15  OE2 GLU A   1      -9.878  10.577  69.488  1.00  0.00    -0.213 OA 
ATOM     16  OE1 GLU A   1     -11.976  10.383  68.683  1.00  0.00    -0.249 OA 
ENDBRANCH  12  13
ENDBRANCH   8  12
ENDBRANCH   6   8
ENDBRANCH   2   6
TORSDOF 4
ENDMDL
MODEL      228
REMARK 921   NORMALIZED FREE ENERGY PREDICTED BY IDOCK:   -3.11 KCAL/MOL
REMARK 922        TOTAL FREE ENERGY PREDICTED BY IDOCK:   -3.68 KCAL/MOL
REMARK 923 INTER-LIGAND FREE ENERGY PREDICTED BY IDOCK:   -3.35 KCAL/MOL
REMARK 924 INTRA-LIGAND FREE ENERGY PREDICTED BY IDOCK:   -0.33 KCAL/MOL
REMARK 927      BINDING AFFINITY PREDICTED BY RF-SCORE:    0.00 PKD
ROOT
HETATM    1  N   UNK A   0     -11.391   6.555  67.583  1.00  0.00    -0.702 N  
HETATM    2  C   UNK A   0     -10.701   7.718  67.539  1.00  0.00    -0.195 C  
HETATM    3  H2  UNK A   0     -11.220   5.854  66.863  1.00  0.00     0.000 HD 
HETATM    4  H1  UNK A   0     -12.076   6.356  68.312  1.00  0.00     0.000 HD 
HETATM    5  O   UNK A   0      -9.880   7.957  66.665  1.00  0.00    -0.225 OA 
ENDROOT
BRANCH   2   6
ATOM      6  N   GLU A   1     -11.013   8.557  68.558  1.00  0.00    -0.436 N  
ATOM      7  H   GLU A   1     -11.969   8.901  68.646  1.00  0.00     0.000 HD 
BRANCH   6   8
ATOM      8  CA  GLU A   1     -10.011   8.976  69.529  1.00  0.00    -0.191 C  
ATOM      9  O   GLU A   1     -10.012   8.227  71.831  1.00  0.00    -0.189 OA 
ATOM     10  C   GLU A   1     -10.671   8.963  70.908  1.00  0.00    -0.231 C  
ATOM     11  OXT GLU A   1     -11.692   9.585  71.175  1.00  0.00    -0.306 OA 
BRANCH   8  12
ATOM     12  CB  GLU A   1      -9.487  10.382  69.208  1.00  0.00    -0.214 C  
BRANCH  12  13
ATOM     13  CG  GLU A   1      -8.023  10.365  68.772  1.00  0.00    -0.122 C  
ATOM     14  CD  GLU A   1      -7.093  10.803  69.875  1.00  0.00    -0.093 C  
ATOM     15  OE2 GLU A   1      -6.402  11.808  69.815  1.00  0.00    -0.125 OA 
ATOM     16  OE1 GLU A   1      -7.058   9.958  70.926  1.00  0.00    -0.323 OA 
ENDBRANCH  12  13
ENDBRANCH   8  12
ENDBRANCH   6   8
ENDBRANCH   2   6
TORSDOF 4
ENDMDL
MODEL      229
REMARK 921   NORMALIZED FREE ENERGY PREDICTED BY IDOCK:   -3.11 KCAL/MOL
REMARK 922        TOTAL FREE ENERGY PREDICTED BY IDOCK:   -3.67 KCAL/MOL
REMARK 923 INTER-LIGAND FREE ENERGY PREDICTED BY IDOCK:   -3.40 KCAL/MOL
REMARK 924 INTRA-LIGAND FREE ENERGY PREDICTED BY IDOCK:   -0.28 KCAL/MOL
REMARK 927      BINDING AFFINITY PREDICTED BY RF-SCORE:    0.00 PKD
ROOT
HETATM    1  N   UNK A   0     -10.333  10.246  66.975  1.00  0.00    -0.231 N  
HETATM    2  C   UNK A   0     -11.327  10.483  67.862  1.00  0.00    -0.222 C  
HETATM    3  H2  UNK A   0     -10.214  10.884  66.188  1.00  0.00     0.000 HD 
HETATM    4  H1  UNK A   0      -9.699   9.453  67.067  1.00  0.00     0.000 HD 
HETATM    5  O   UNK A   0     -12.087  11.433  67.752  1.00  0.00    -0.637 OA 
ENDROOT
BRANCH   2   6
ATOM      6  N   GLU A   1     -11.368   9.569  68.865  1.00  0.00    -0.452 N  
ATOM      7  H   GLU A   1     -12.253   9.390  69.339  1.00  0.00     0.000 HD 
BRANCH   6   8
ATOM      8  CA  GLU A   1     -10.176   8.841  69.276  1.00  0.00    -0.210 C  
ATOM      9  O   GLU A   1      -9.967   6.437  69.079  1.00  0.00    -0.142 OA 
ATOM     10  C   GLU A   1     -10.616   7.443  69.709  1.00  0.00    -0.236 C  
ATOM     11  OXT GLU A   1     -11.461   7.236  70.572  1.00  0.00    -0.288 OA 
BRANCH   8  12
ATOM     12  CB  GLU A   1      -9.467   9.554  70.435  1.00  0.00    -0.317 C  
BRANCH  12  13
ATOM     13  CG  GLU A   1      -8.273   8.757  70.957  1.00  0.00    -0.194 C  
ATOM     14  CD  GLU A   1      -6.961   9.286  70.438  1.00  0.00    -0.085 C  
ATOM     15  OE2 GLU A   1      -6.215   8.646  69.713  1.00  0.00    -0.035 OA 
ATOM     16  OE1 GLU A   1      -6.657  10.524  70.882  1.00  0.00    -0.347 OA 
ENDBRANCH  12  13
ENDBRANCH   8  12
ENDBRANCH   6   8
ENDBRANCH   2   6
TORSDOF 4
ENDMDL
MODEL      230
REMARK 921   NORMALIZED FREE ENERGY PREDICTED BY IDOCK:   -3.10 KCAL/MOL
REMARK 922        TOTAL FREE ENERGY PREDICTED BY IDOCK:   -3.67 KCAL/MOL
REMARK 923 INTER-LIGAND FREE ENERGY PREDICTED BY IDOCK:   -3.09 KCAL/MOL
REMARK 924 INTRA-LIGAND FREE ENERGY PREDICTED BY IDOCK:   -0.58 KCAL/MOL
REMARK 927      BINDING AFFINITY PREDICTED BY RF-SCORE:    0.00 PKD
ROOT
HETATM    1  N   UNK A   0     -10.513  12.886  66.301  1.00  0.00    -0.266 N  
HETATM    2  C   UNK A   0      -9.290  13.365  66.622  1.00  0.00    -0.241 C  
HETATM    3  H2  UNK A   0     -11.309  13.524  66.309  1.00  0.00     0.000 HD 
HETATM    4  H1  UNK A   0     -10.667  11.909  66.052  1.00  0.00     0.000 HD 
HETATM    5  O   UNK A   0      -9.106  14.536  66.921  1.00  0.00    -0.232 OA 
ENDROOT
BRANCH   2   6
ATOM      6  N   GLU A   1      -8.319  12.419  66.563  1.00  0.00    -0.402 N  
ATOM      7  H   GLU A   1      -7.341  12.702  66.622  1.00  0.00     0.000 HD 
BRANCH   6   8
ATOM      8  CA  GLU A   1      -8.646  11.007  66.417  1.00  0.00    -0.165 C  
ATOM      9  O   GLU A   1      -8.943   9.521  68.305  1.00  0.00    -0.124 OA 
ATOM     10  C   GLU A   1      -8.051  10.269  67.617  1.00  0.00    -0.106 C  
ATOM     11  OXT GLU A   1      -6.866  10.319  67.922  1.00  0.00    -0.072 OA 
BRANCH   8  12
ATOM     12  CB  GLU A   1      -8.072  10.440  65.111  1.00  0.00    -0.145 C  
BRANCH  12  13
ATOM     13  CG  GLU A   1      -9.168   9.967  64.158  1.00  0.00    -0.312 C  
ATOM     14  CD  GLU A   1      -9.893  11.115  63.504  1.00  0.00    -0.353 C  
ATOM     15  OE2 GLU A   1     -11.078  11.351  63.678  1.00  0.00    -0.399 OA 
ATOM     16  OE1 GLU A   1      -9.121  11.841  62.667  1.00  0.00    -0.273 OA 
ENDBRANCH  12  13
ENDBRANCH   8  12
ENDBRANCH   6   8
ENDBRANCH   2   6
TORSDOF 4
ENDMDL
MODEL      231
REMARK 921   NORMALIZED FREE ENERGY PREDICTED BY IDOCK:   -3.10 KCAL/MOL
REMARK 922        TOTAL FREE ENERGY PREDICTED BY IDOCK:   -3.66 KCAL/MOL
REMARK 923 INTER-LIGAND FREE ENERGY PREDICTED BY IDOCK:   -3.54 KCAL/MOL
REMARK 924 INTRA-LIGAND FREE ENERGY PREDICTED BY IDOCK:   -0.12 KCAL/MOL
REMARK 927      BINDING AFFINITY PREDICTED BY RF-SCORE:    0.00 PKD
ROOT
HETATM    1  N   UNK A   0      -8.195  18.545  68.625  1.00  0.00    -0.326 N  
HETATM    2  C   UNK A   0      -8.493  17.555  67.753  1.00  0.00    -0.225 C  
HETATM    3  H2  UNK A   0      -7.251  18.931  68.629  1.00  0.00     0.000 HD 
HETATM    4  H1  UNK A   0      -8.883  18.919  69.279  1.00  0.00     0.000 HD 
HETATM    5  O   UNK A   0      -7.669  17.107  66.969  1.00  0.00    -0.166 OA 
ENDROOT
BRANCH   2   6
ATOM      6  N   GLU A   1      -9.781  17.140  67.843  1.00  0.00    -0.263 N  
ATOM      7  H   GLU A   1     -10.511  17.820  68.055  1.00  0.00     0.000 HD 
BRANCH   6   8
ATOM      8  CA  GLU A   1     -10.143  15.743  67.644  1.00  0.00    -0.247 C  
ATOM      9  O   GLU A   1      -9.194  14.373  65.889  1.00  0.00    -0.139 OA 
ATOM     10  C   GLU A   1      -9.989  15.434  66.155  1.00  0.00    -0.307 C  
ATOM     11  OXT GLU A   1     -10.554  16.066  65.271  1.00  0.00    -0.407 OA 
BRANCH   8  12
ATOM     12  CB  GLU A   1     -11.587  15.479  68.092  1.00  0.00    -0.313 C  
BRANCH  12  13
ATOM     13  CG  GLU A   1     -12.051  14.067  67.737  1.00  0.00    -0.325 C  
ATOM     14  CD  GLU A   1     -11.419  13.019  68.616  1.00  0.00    -0.307 C  
ATOM     15  OE2 GLU A   1     -10.666  12.153  68.199  1.00  0.00    -0.196 OA 
ATOM     16  OE1 GLU A   1     -11.794  13.095  69.911  1.00  0.00    -0.317 OA 
ENDBRANCH  12  13
ENDBRANCH   8  12
ENDBRANCH   6   8
ENDBRANCH   2   6
TORSDOF 4
ENDMDL
MODEL      232
REMARK 921   NORMALIZED FREE ENERGY PREDICTED BY IDOCK:   -3.09 KCAL/MOL
REMARK 922        TOTAL FREE ENERGY PREDICTED BY IDOCK:   -3.66 KCAL/MOL
REMARK 923 INTER-LIGAND FREE ENERGY PREDICTED BY IDOCK:   -3.29 KCAL/MOL
REMARK 924 INTRA-LIGAND FREE ENERGY PREDICTED BY IDOCK:   -0.37 KCAL/MOL
REMARK 927      BINDING AFFINITY PREDICTED BY RF-SCORE:    0.00 PKD
ROOT
HETATM    1  N   UNK A   0      -9.748  20.042  66.810  1.00  0.00    -0.405 N  
HETATM    2  C   UNK A   0      -9.250  18.970  66.154  1.00  0.00    -0.201 C  
HETATM    3  H2  UNK A   0     -10.750  20.228  66.761  1.00  0.00     0.000 HD 
HETATM    4  H1  UNK A   0      -9.157  20.671  67.353  1.00  0.00     0.000 HD 
HETATM    5  O   UNK A   0      -9.960  18.216  65.503  1.00  0.00    -0.440 OA 
ENDROOT
BRANCH   2   6
ATOM      6  N   GLU A   1      -7.910  18.830  66.310  1.00  0.00    -0.281 N  
ATOM      7  H   GLU A   1      -7.526  17.913  66.535  1.00  0.00     0.000 HD 
BRANCH   6   8
ATOM      8  CA  GLU A   1      -7.008  19.965  66.160  1.00  0.00    -0.252 C  
ATOM      9  O   GLU A   1      -6.585  21.040  64.033  1.00  0.00    -0.287 OA 
ATOM     10  C   GLU A   1      -6.422  19.905  64.749  1.00  0.00    -0.230 C  
ATOM     11  OXT GLU A   1      -5.828  18.931  64.304  1.00  0.00    -0.347 OA 
BRANCH   8  12
ATOM     12  CB  GLU A   1      -5.882  19.915  67.202  1.00  0.00    -0.182 C  
BRANCH  12  13
ATOM     13  CG  GLU A   1      -6.232  20.698  68.466  1.00  0.00    -0.355 C  
ATOM     14  CD  GLU A   1      -6.494  19.795  69.644  1.00  0.00    -0.354 C  
ATOM     15  OE2 GLU A   1      -7.577  19.713  70.203  1.00  0.00     0.243 OA 
ATOM     16  OE1 GLU A   1      -5.407  19.111  70.059  1.00  0.00    -0.202 OA 
ENDBRANCH  12  13
ENDBRANCH   8  12
ENDBRANCH   6   8
ENDBRANCH   2   6
TORSDOF 4
ENDMDL
MODEL      233
REMARK 921   NORMALIZED FREE ENERGY PREDICTED BY IDOCK:   -3.09 KCAL/MOL
REMARK 922        TOTAL FREE ENERGY PREDICTED BY IDOCK:   -3.66 KCAL/MOL
REMARK 923 INTER-LIGAND FREE ENERGY PREDICTED BY IDOCK:   -3.23 KCAL/MOL
REMARK 924 INTRA-LIGAND FREE ENERGY PREDICTED BY IDOCK:   -0.43 KCAL/MOL
REMARK 927      BINDING AFFINITY PREDICTED BY RF-SCORE:    0.00 PKD
ROOT
HETATM    1  N   UNK A   0      -7.240   8.024  71.797  1.00  0.00    -0.071 N  
HETATM    2  C   UNK A   0      -8.132   8.447  72.722  1.00  0.00    -0.105 C  
HETATM    3  H2  UNK A   0      -6.284   7.822  72.090  1.00  0.00     0.000 HD 
HETATM    4  H1  UNK A   0      -7.492   7.899  70.816  1.00  0.00     0.000 HD 
HETATM    5  O   UNK A   0      -7.831   8.596  73.897  1.00  0.00    -0.406 OA 
ENDROOT
BRANCH   2   6
ATOM      6  N   GLU A   1      -9.366   8.668  72.204  1.00  0.00    -0.280 N  
ATOM      7  H   GLU A   1     -10.082   9.100  72.788  1.00  0.00     0.000 HD 
BRANCH   6   8
ATOM      8  CA  GLU A   1      -9.689   8.301  70.832  1.00  0.00    -0.172 C  
ATOM      9  O   GLU A   1      -9.482   9.838  68.973  1.00  0.00    -0.159 OA 
ATOM     10  C   GLU A   1     -10.156   9.566  70.114  1.00  0.00    -0.249 C  
ATOM     11  OXT GLU A   1     -11.080  10.267  70.510  1.00  0.00    -0.302 OA 
BRANCH   8  12
ATOM     12  CB  GLU A   1     -10.791   7.233  70.792  1.00  0.00    -0.260 C  
BRANCH  12  13
ATOM     13  CG  GLU A   1     -11.578   7.168  72.099  1.00  0.00    -0.317 C  
ATOM     14  CD  GLU A   1     -12.943   7.794  71.976  1.00  0.00    -0.222 C  
ATOM     15  OE2 GLU A   1     -13.289   8.786  72.598  1.00  0.00    -0.392 OA 
ATOM     16  OE1 GLU A   1     -13.774   7.131  71.144  1.00  0.00    -0.296 OA 
ENDBRANCH  12  13
ENDBRANCH   8  12
ENDBRANCH   6   8
ENDBRANCH   2   6
TORSDOF 4
ENDMDL
MODEL      234
REMARK 921   NORMALIZED FREE ENERGY PREDICTED BY IDOCK:   -3.09 KCAL/MOL
REMARK 922        TOTAL FREE ENERGY PREDICTED BY IDOCK:   -3.65 KCAL/MOL
REMARK 923 INTER-LIGAND FREE ENERGY PREDICTED BY IDOCK:   -3.48 KCAL/MOL
REMARK 924 INTRA-LIGAND FREE ENERGY PREDICTED BY IDOCK:   -0.18 KCAL/MOL
REMARK 927      BINDING AFFINITY PREDICTED BY RF-SCORE:    0.00 PKD
ROOT
HETATM    1  N   UNK A   0     -11.349   5.644  73.447  1.00  0.00    -0.473 N  
HETATM    2  C   UNK A   0     -10.504   6.698  73.523  1.00  0.00    -0.313 C  
HETATM    3  H2  UNK A   0     -10.961   4.701  73.453  1.00  0.00     0.000 HD 
HETATM    4  H1  UNK A   0     -12.360   5.761  73.386  1.00  0.00     0.000 HD 
HETATM    5  O   UNK A   0      -9.292   6.558  73.596  1.00  0.00    -0.129 OA 
ENDROOT
BRANCH   2   6
ATOM      6  N   GLU A   1     -11.147   7.893  73.518  1.00  0.00    -0.063 N  
ATOM      7  H   GLU A   1     -11.534   8.255  74.388  1.00  0.00     0.000 HD 
BRANCH   6   8
ATOM      8  CA  GLU A   1     -11.294   8.668  72.293  1.00  0.00    -0.340 C  
ATOM      9  O   GLU A   1     -13.404   9.613  71.577  1.00  0.00    -0.371 OA 
ATOM     10  C   GLU A   1     -12.721   8.465  71.787  1.00  0.00    -0.342 C  
ATOM     11  OXT GLU A   1     -13.208   7.364  71.558  1.00  0.00    -0.363 OA 
BRANCH   8  12
ATOM     12  CB  GLU A   1     -10.286   8.214  71.229  1.00  0.00    -0.243 C  
BRANCH  12  13
ATOM     13  CG  GLU A   1      -9.814   9.371  70.351  1.00  0.00    -0.313 C  
ATOM     14  CD  GLU A   1      -8.343   9.285  70.033  1.00  0.00    -0.168 C  
ATOM     15  OE2 GLU A   1      -7.524  10.112  70.402  1.00  0.00    -0.247 OA 
ATOM     16  OE1 GLU A   1      -8.013   8.228  69.262  1.00  0.00    -0.110 OA 
ENDBRANCH  12  13
ENDBRANCH   8  12
ENDBRANCH   6   8
ENDBRANCH   2   6
TORSDOF 4
ENDMDL
MODEL      235
REMARK 921   NORMALIZED FREE ENERGY PREDICTED BY IDOCK:   -3.08 KCAL/MOL
REMARK 922        TOTAL FREE ENERGY PREDICTED BY IDOCK:   -3.65 KCAL/MOL
REMARK 923 INTER-LIGAND FREE ENERGY PREDICTED BY IDOCK:   -3.19 KCAL/MOL
REMARK 924 INTRA-LIGAND FREE ENERGY PREDICTED BY IDOCK:   -0.45 KCAL/MOL
REMARK 927      BINDING AFFINITY PREDICTED BY RF-SCORE:    0.00 PKD
ROOT
HETATM    1  N   UNK A   0      -7.235  12.393  67.692  1.00  0.00    -0.117 N  
HETATM    2  C   UNK A   0      -8.530  12.787  67.694  1.00  0.00    -0.178 C  
HETATM    3  H2  UNK A   0      -6.504  13.104  67.725  1.00  0.00     0.000 HD 
HETATM    4  H1  UNK A   0      -6.965  11.410  67.660  1.00  0.00     0.000 HD 
HETATM    5  O   UNK A   0      -8.853  13.965  67.734  1.00  0.00    -0.170 OA 
ENDROOT
BRANCH   2   6
ATOM      6  N   GLU A   1      -9.398  11.745  67.659  1.00  0.00    -0.176 N  
ATOM      7  H   GLU A   1      -9.400  11.071  68.424  1.00  0.00     0.000 HD 
BRANCH   6   8
ATOM      8  CA  GLU A   1     -10.329  11.572  66.551  1.00  0.00    -0.232 C  
ATOM      9  O   GLU A   1     -12.405  12.802  66.370  1.00  0.00    -0.500 OA 
ATOM     10  C   GLU A   1     -11.733  11.867  67.078  1.00  0.00    -0.227 C  
ATOM     11  OXT GLU A   1     -12.230  11.292  68.039  1.00  0.00    -0.621 OA 
BRANCH   8  12
ATOM     12  CB  GLU A   1     -10.263  10.143  65.994  1.00  0.00    -0.288 C  
BRANCH  12  13
ATOM     13  CG  GLU A   1      -9.362  10.045  64.764  1.00  0.00    -0.330 C  
ATOM     14  CD  GLU A   1      -7.961   9.614  65.113  1.00  0.00    -0.120 C  
ATOM     15  OE2 GLU A   1      -6.977  10.318  64.947  1.00  0.00    -0.136 OA 
ATOM     16  OE1 GLU A   1      -7.882   8.354  65.590  1.00  0.00    -0.097 OA 
ENDBRANCH  12  13
ENDBRANCH   8  12
ENDBRANCH   6   8
ENDBRANCH   2   6
TORSDOF 4
ENDMDL
MODEL      236
REMARK 921   NORMALIZED FREE ENERGY PREDICTED BY IDOCK:   -3.07 KCAL/MOL
REMARK 922        TOTAL FREE ENERGY PREDICTED BY IDOCK:   -3.63 KCAL/MOL
REMARK 923 INTER-LIGAND FREE ENERGY PREDICTED BY IDOCK:   -3.48 KCAL/MOL
REMARK 924 INTRA-LIGAND FREE ENERGY PREDICTED BY IDOCK:   -0.15 KCAL/MOL
REMARK 927      BINDING AFFINITY PREDICTED BY RF-SCORE:    0.00 PKD
ROOT
HETATM    1  N   UNK A   0     -11.684  14.499  70.050  1.00  0.00    -0.286 N  
HETATM    2  C   UNK A   0     -11.828  14.363  68.712  1.00  0.00    -0.325 C  
HETATM    3  H2  UNK A   0     -11.923  13.712  70.654  1.00  0.00     0.000 HD 
HETATM    4  H1  UNK A   0     -11.344  15.361  70.476  1.00  0.00     0.000 HD 
HETATM    5  O   UNK A   0     -12.235  13.330  68.202  1.00  0.00    -0.266 OA 
ENDROOT
BRANCH   2   6
ATOM      6  N   GLU A   1     -11.465  15.476  68.026  1.00  0.00    -0.335 N  
ATOM      7  H   GLU A   1     -12.095  16.277  68.006  1.00  0.00     0.000 HD 
BRANCH   6   8
ATOM      8  CA  GLU A   1     -10.194  15.549  67.318  1.00  0.00    -0.260 C  
ATOM      9  O   GLU A   1      -9.977  16.471  65.091  1.00  0.00    -0.481 OA 
ATOM     10  C   GLU A   1     -10.493  15.457  65.822  1.00  0.00    -0.355 C  
ATOM     11  OXT GLU A   1     -11.119  14.537  65.312  1.00  0.00    -0.318 OA 
BRANCH   8  12
ATOM     12  CB  GLU A   1      -9.261  14.406  67.741  1.00  0.00    -0.192 C  
BRANCH  12  13
ATOM     13  CG  GLU A   1      -8.102  14.897  68.606  1.00  0.00    -0.151 C  
ATOM     14  CD  GLU A   1      -6.783  14.842  67.879  1.00  0.00    -0.163 C  
ATOM     15  OE2 GLU A   1      -5.854  14.127  68.221  1.00  0.00    -0.097 OA 
ATOM     16  OE1 GLU A   1      -6.701  15.691  66.833  1.00  0.00    -0.253 OA 
ENDBRANCH  12  13
ENDBRANCH   8  12
ENDBRANCH   6   8
ENDBRANCH   2   6
TORSDOF 4
ENDMDL
MODEL      237
REMARK 921   NORMALIZED FREE ENERGY PREDICTED BY IDOCK:   -3.03 KCAL/MOL
REMARK 922        TOTAL FREE ENERGY PREDICTED BY IDOCK:   -3.59 KCAL/MOL
REMARK 923 INTER-LIGAND FREE ENERGY PREDICTED BY IDOCK:   -3.30 KCAL/MOL
REMARK 924 INTRA-LIGAND FREE ENERGY PREDICTED BY IDOCK:   -0.29 KCAL/MOL
REMARK 927      BINDING AFFINITY PREDICTED BY RF-SCORE:    0.00 PKD
ROOT
HETATM    1  N   UNK A   0      -9.190   6.058  65.104  1.00  0.00    -0.343 N  
HETATM    2  C   UNK A   0      -8.797   7.249  65.611  1.00  0.00    -0.014 C  
HETATM    3  H2  UNK A   0      -8.480   5.409  64.763  1.00  0.00     0.000 HD 
HETATM    4  H1  UNK A   0     -10.172   5.786  65.050  1.00  0.00     0.000 HD 
HETATM    5  O   UNK A   0      -7.621   7.574  65.676  1.00  0.00    -0.083 OA 
ENDROOT
BRANCH   2   6
ATOM      6  N   GLU A   1      -9.836   8.010  66.037  1.00  0.00    -0.449 N  
ATOM      7  H   GLU A   1     -10.536   8.321  65.364  1.00  0.00     0.000 HD 
BRANCH   6   8
ATOM      8  CA  GLU A   1      -9.973   8.391  67.437  1.00  0.00    -0.212 C  
ATOM      9  O   GLU A   1      -9.584   6.852  69.265  1.00  0.00    -0.150 OA 
ATOM     10  C   GLU A   1     -10.387   7.143  68.216  1.00  0.00    -0.195 C  
ATOM     11  OXT GLU A   1     -11.375   6.472  67.944  1.00  0.00    -0.245 OA 
BRANCH   8  12
ATOM     12  CB  GLU A   1     -11.026   9.494  67.608  1.00  0.00    -0.150 C  
BRANCH  12  13
ATOM     13  CG  GLU A   1     -10.634  10.781  66.885  1.00  0.00    -0.312 C  
ATOM     14  CD  GLU A   1     -11.600  11.906  67.155  1.00  0.00    -0.290 C  
ATOM     15  OE2 GLU A   1     -12.290  12.424  66.291  1.00  0.00    -0.577 OA 
ATOM     16  OE1 GLU A   1     -11.605  12.324  68.438  1.00  0.00    -0.281 OA 
ENDBRANCH  12  13
ENDBRANCH   8  12
ENDBRANCH   6   8
ENDBRANCH   2   6
TORSDOF 4
ENDMDL
MODEL      238
REMARK 921   NORMALIZED FREE ENERGY PREDICTED BY IDOCK:   -3.01 KCAL/MOL
REMARK 922        TOTAL FREE ENERGY PREDICTED BY IDOCK:   -3.56 KCAL/MOL
REMARK 923 INTER-LIGAND FREE ENERGY PREDICTED BY IDOCK:   -3.16 KCAL/MOL
REMARK 924 INTRA-LIGAND FREE ENERGY PREDICTED BY IDOCK:   -0.40 KCAL/MOL
REMARK 927      BINDING AFFINITY PREDICTED BY RF-SCORE:    0.00 PKD
ROOT
HETATM    1  N   UNK A   0     -11.341   6.028  66.387  1.00  0.00    -0.657 N  
HETATM    2  C   UNK A   0     -10.107   6.524  66.631  1.00  0.00    -0.137 C  
HETATM    3  H2  UNK A   0     -11.426   5.141  65.888  1.00  0.00     0.000 HD 
HETATM    4  H1  UNK A   0     -12.190   6.508  66.684  1.00  0.00     0.000 HD 
HETATM    5  O   UNK A   0      -9.090   5.948  66.275  1.00  0.00    -0.143 OA 
ENDROOT
BRANCH   2   6
ATOM      6  N   GLU A   1     -10.135   7.699  67.309  1.00  0.00    -0.210 N  
ATOM      7  H   GLU A   1     -10.811   8.414  67.042  1.00  0.00     0.000 HD 
BRANCH   6   8
ATOM      8  CA  GLU A   1      -9.219   7.959  68.412  1.00  0.00    -0.134 C  
ATOM      9  O   GLU A   1      -9.195   6.644  70.444  1.00  0.00    -0.155 OA 
ATOM     10  C   GLU A   1      -9.912   7.518  69.701  1.00  0.00    -0.184 C  
ATOM     11  OXT GLU A   1     -11.007   7.934  70.057  1.00  0.00    -0.249 OA 
BRANCH   8  12
ATOM     12  CB  GLU A   1      -8.859   9.449  68.489  1.00  0.00    -0.128 C  
BRANCH  12  13
ATOM     13  CG  GLU A   1      -9.577  10.271  67.420  1.00  0.00    -0.183 C  
ATOM     14  CD  GLU A   1     -10.728  11.063  67.983  1.00  0.00    -0.217 C  
ATOM     15  OE2 GLU A   1     -11.893  10.878  67.667  1.00  0.00    -0.572 OA 
ATOM     16  OE1 GLU A   1     -10.354  12.033  68.844  1.00  0.00    -0.188 OA 
ENDBRANCH  12  13
ENDBRANCH   8  12
ENDBRANCH   6   8
ENDBRANCH   2   6
TORSDOF 4
ENDMDL
MODEL      239
REMARK 921   NORMALIZED FREE ENERGY PREDICTED BY IDOCK:   -3.01 KCAL/MOL
REMARK 922        TOTAL FREE ENERGY PREDICTED BY IDOCK:   -3.55 KCAL/MOL
REMARK 923 INTER-LIGAND FREE ENERGY PREDICTED BY IDOCK:   -3.49 KCAL/MOL
REMARK 924 INTRA-LIGAND FREE ENERGY PREDICTED BY IDOCK:   -0.07 KCAL/MOL
REMARK 927      BINDING AFFINITY PREDICTED BY RF-SCORE:    0.00 PKD
ROOT
HETATM    1  N   UNK A   0     -10.143   5.404  65.665  1.00  0.00    -0.393 N  
HETATM    2  C   UNK A   0     -10.600   5.752  66.889  1.00  0.00    -0.308 C  
HETATM    3  H2  UNK A   0      -9.651   4.516  65.556  1.00  0.00     0.000 HD 
HETATM    4  H1  UNK A   0     -10.274   5.998  64.846  1.00  0.00     0.000 HD 
HETATM    5  O   UNK A   0     -10.443   5.040  67.871  1.00  0.00    -0.088 OA 
ENDROOT
BRANCH   2   6
ATOM      6  N   GLU A   1     -11.243   6.946  66.894  1.00  0.00    -0.713 N  
ATOM      7  H   GLU A   1     -12.198   7.000  66.540  1.00  0.00     0.000 HD 
BRANCH   6   8
ATOM      8  CA  GLU A   1     -10.597   8.153  67.394  1.00  0.00    -0.255 C  
ATOM      9  O   GLU A   1     -10.185  10.096  66.011  1.00  0.00    -0.252 OA 
ATOM     10  C   GLU A   1      -9.860   8.801  66.222  1.00  0.00    -0.272 C  
ATOM     11  OXT GLU A   1      -9.024   8.218  65.543  1.00  0.00    -0.154 OA 
BRANCH   8  12
ATOM     12  CB  GLU A   1      -9.609   7.822  68.521  1.00  0.00    -0.151 C  
BRANCH  12  13
ATOM     13  CG  GLU A   1      -9.957   8.544  69.821  1.00  0.00    -0.191 C  
ATOM     14  CD  GLU A   1      -8.816   9.388  70.330  1.00  0.00    -0.236 C  
ATOM     15  OE2 GLU A   1      -8.240   9.177  71.385  1.00  0.00    -0.316 OA 
ATOM     16  OE1 GLU A   1      -8.512  10.432  69.530  1.00  0.00    -0.160 OA 
ENDBRANCH  12  13
ENDBRANCH   8  12
ENDBRANCH   6   8
ENDBRANCH   2   6
TORSDOF 4
ENDMDL
MODEL      240
REMARK 921   NORMALIZED FREE ENERGY PREDICTED BY IDOCK:   -3.00 KCAL/MOL
REMARK 922        TOTAL FREE ENERGY PREDICTED BY IDOCK:   -3.55 KCAL/MOL
REMARK 923 INTER-LIGAND FREE ENERGY PREDICTED BY IDOCK:   -3.21 KCAL/MOL
REMARK 924 INTRA-LIGAND FREE ENERGY PREDICTED BY IDOCK:   -0.33 KCAL/MOL
REMARK 927      BINDING AFFINITY PREDICTED BY RF-SCORE:    0.00 PKD
ROOT
HETATM    1  N   UNK A   0      -9.148  10.265  69.478  1.00  0.00    -0.329 N  
HETATM    2  C   UNK A   0      -8.824   9.574  70.595  1.00  0.00    -0.148 C  
HETATM    3  H2  UNK A   0      -8.420  10.796  69.000  1.00  0.00     0.000 HD 
HETATM    4  H1  UNK A   0     -10.094  10.273  69.098  1.00  0.00     0.000 HD 
HETATM    5  O   UNK A   0      -7.690   9.564  71.051  1.00  0.00    -0.319 OA 
ENDROOT
BRANCH   2   6
ATOM      6  N   GLU A   1      -9.878   8.904  71.126  1.00  0.00    -0.248 N  
ATOM      7  H   GLU A   1      -9.795   8.502  72.059  1.00  0.00     0.000 HD 
BRANCH   6   8
ATOM      8  CA  GLU A   1     -11.126   8.749  70.389  1.00  0.00    -0.236 C  
ATOM      9  O   GLU A   1     -12.939  10.347  70.518  1.00  0.00    -0.344 OA 
ATOM     10  C   GLU A   1     -12.229   9.423  71.204  1.00  0.00    -0.323 C  
ATOM     11  OXT GLU A   1     -12.479   9.140  72.369  1.00  0.00    -0.352 OA 
BRANCH   8  12
ATOM     12  CB  GLU A   1     -11.458   7.266  70.176  1.00  0.00    -0.197 C  
BRANCH  12  13
ATOM     13  CG  GLU A   1     -10.408   6.558  69.322  1.00  0.00    -0.237 C  
ATOM     14  CD  GLU A   1      -9.542   5.629  70.133  1.00  0.00    -0.167 C  
ATOM     15  OE2 GLU A   1      -8.341   5.786  70.284  1.00  0.00    -0.113 OA 
ATOM     16  OE1 GLU A   1     -10.208   4.573  70.648  1.00  0.00    -0.198 OA 
ENDBRANCH  12  13
ENDBRANCH   8  12
ENDBRANCH   6   8
ENDBRANCH   2   6
TORSDOF 4
ENDMDL
MODEL      241
REMARK 921   NORMALIZED FREE ENERGY PREDICTED BY IDOCK:   -2.99 KCAL/MOL
REMARK 922        TOTAL FREE ENERGY PREDICTED BY IDOCK:   -3.53 KCAL/MOL
REMARK 923 INTER-LIGAND FREE ENERGY PREDICTED BY IDOCK:   -3.09 KCAL/MOL
REMARK 924 INTRA-LIGAND FREE ENERGY PREDICTED BY IDOCK:   -0.44 KCAL/MOL
REMARK 927      BINDING AFFINITY PREDICTED BY RF-SCORE:    0.00 PKD
ROOT
HETATM    1  N   UNK A   0      -9.345  10.346  69.475  1.00  0.00    -0.369 N  
HETATM    2  C   UNK A   0     -10.407   9.956  70.216  1.00  0.00    -0.281 C  
HETATM    3  H2  UNK A   0      -9.354  11.275  69.053  1.00  0.00     0.000 HD 
HETATM    4  H1  UNK A   0      -8.536   9.744  69.324  1.00  0.00     0.000 HD 
HETATM    5  O   UNK A   0     -11.377  10.677  70.397  1.00  0.00    -0.307 OA 
ENDROOT
BRANCH   2   6
ATOM      6  N   GLU A   1     -10.264   8.707  70.728  1.00  0.00    -0.196 N  
ATOM      7  H   GLU A   1      -9.470   8.505  71.335  1.00  0.00     0.000 HD 
BRANCH   6   8
ATOM      8  CA  GLU A   1     -11.222   7.651  70.427  1.00  0.00    -0.244 C  
ATOM      9  O   GLU A   1     -13.423   7.545  71.428  1.00  0.00    -0.359 OA 
ATOM     10  C   GLU A   1     -12.095   7.455  71.666  1.00  0.00    -0.317 C  
ATOM     11  OXT GLU A   1     -11.646   7.207  72.778  1.00  0.00    -0.240 OA 
BRANCH   8  12
ATOM     12  CB  GLU A   1     -10.504   6.342  70.074  1.00  0.00    -0.274 C  
BRANCH  12  13
ATOM     13  CG  GLU A   1      -8.999   6.424  70.321  1.00  0.00    -0.154 C  
ATOM     14  CD  GLU A   1      -8.597   5.788  71.626  1.00  0.00    -0.132 C  
ATOM     15  OE2 GLU A   1      -8.106   6.407  72.556  1.00  0.00    -0.102 OA 
ATOM     16  OE1 GLU A   1      -8.790   4.452  71.663  1.00  0.00    -0.114 OA 
ENDBRANCH  12  13
ENDBRANCH   8  12
ENDBRANCH   6   8
ENDBRANCH   2   6
TORSDOF 4
ENDMDL
MODEL      242
REMARK 921   NORMALIZED FREE ENERGY PREDICTED BY IDOCK:   -2.98 KCAL/MOL
REMARK 922        TOTAL FREE ENERGY PREDICTED BY IDOCK:   -3.52 KCAL/MOL
REMARK 923 INTER-LIGAND FREE ENERGY PREDICTED BY IDOCK:   -4.11 KCAL/MOL
REMARK 924 INTRA-LIGAND FREE ENERGY PREDICTED BY IDOCK:    0.59 KCAL/MOL
REMARK 927      BINDING AFFINITY PREDICTED BY RF-SCORE:    0.00 PKD
ROOT
HETATM    1  N   UNK A   0      -9.497  20.866  67.015  1.00  0.00    -0.690 N  
HETATM    2  C   UNK A   0      -9.427  19.993  68.046  1.00  0.00    -0.315 C  
HETATM    3  H2  UNK A   0     -10.296  21.497  66.957  1.00  0.00     0.000 HD 
HETATM    4  H1  UNK A   0      -8.777  20.916  66.294  1.00  0.00     0.000 HD 
HETATM    5  O   UNK A   0     -10.289  19.934  68.910  1.00  0.00    -0.414 OA 
ENDROOT
BRANCH   2   6
ATOM      6  N   GLU A   1      -8.312  19.222  68.011  1.00  0.00    -0.305 N  
ATOM      7  H   GLU A   1      -7.534  19.440  68.633  1.00  0.00     0.000 HD 
BRANCH   6   8
ATOM      8  CA  GLU A   1      -8.203  18.088  67.102  1.00  0.00    -0.221 C  
ATOM      9  O   GLU A   1      -6.174  17.556  65.895  1.00  0.00    -0.190 OA 
ATOM     10  C   GLU A   1      -7.178  18.453  66.030  1.00  0.00    -0.254 C  
ATOM     11  OXT GLU A   1      -7.261  19.452  65.326  1.00  0.00    -0.427 OA 
BRANCH   8  12
ATOM     12  CB  GLU A   1      -9.557  17.771  66.453  1.00  0.00    -0.293 C  
BRANCH  12  13
ATOM     13  CG  GLU A   1     -10.473  16.981  67.385  1.00  0.00    -0.322 C  
ATOM     14  CD  GLU A   1      -9.730  15.913  68.147  1.00  0.00    -0.212 C  
ATOM     15  OE2 GLU A   1      -9.945  14.718  68.017  1.00  0.00    -0.214 OA 
ATOM     16  OE1 GLU A   1      -8.827  16.398  69.025  1.00  0.00    -0.253 OA 
ENDBRANCH  12  13
ENDBRANCH   8  12
ENDBRANCH   6   8
ENDBRANCH   2   6
TORSDOF 4
ENDMDL
MODEL      243
REMARK 921   NORMALIZED FREE ENERGY PREDICTED BY IDOCK:   -2.97 KCAL/MOL
REMARK 922        TOTAL FREE ENERGY PREDICTED BY IDOCK:   -3.50 KCAL/MOL
REMARK 923 INTER-LIGAND FREE ENERGY PREDICTED BY IDOCK:   -3.11 KCAL/MOL
REMARK 924 INTRA-LIGAND FREE ENERGY PREDICTED BY IDOCK:   -0.40 KCAL/MOL
REMARK 927      BINDING AFFINITY PREDICTED BY RF-SCORE:    0.00 PKD
ROOT
HETATM    1  N   UNK A   0      -7.211  11.029  69.685  1.00  0.00    -0.309 N  
HETATM    2  C   UNK A   0      -7.681  11.708  68.614  1.00  0.00    -0.134 C  
HETATM    3  H2  UNK A   0      -6.453  11.438  70.233  1.00  0.00     0.000 HD 
HETATM    4  H1  UNK A   0      -7.588  10.124  69.964  1.00  0.00     0.000 HD 
HETATM    5  O   UNK A   0      -7.229  12.793  68.279  1.00  0.00    -0.095 OA 
ENDROOT
BRANCH   2   6
ATOM      6  N   GLU A   1      -8.692  11.061  67.981  1.00  0.00    -0.133 N  
ATOM      7  H   GLU A   1      -8.485  10.498  67.157  1.00  0.00     0.000 HD 
BRANCH   6   8
ATOM      8  CA  GLU A   1     -10.066  11.156  68.456  1.00  0.00    -0.201 C  
ATOM      9  O   GLU A   1     -11.152   9.392  69.707  1.00  0.00    -0.233 OA 
ATOM     10  C   GLU A   1     -10.635   9.738  68.507  1.00  0.00    -0.221 C  
ATOM     11  OXT GLU A   1     -10.654   8.982  67.544  1.00  0.00    -0.265 OA 
BRANCH   8  12
ATOM     12  CB  GLU A   1     -10.912  12.031  67.521  1.00  0.00    -0.303 C  
BRANCH  12  13
ATOM     13  CG  GLU A   1     -10.349  12.070  66.102  1.00  0.00    -0.257 C  
ATOM     14  CD  GLU A   1     -10.255  13.474  65.562  1.00  0.00    -0.295 C  
ATOM     15  OE2 GLU A   1     -10.895  13.871  64.600  1.00  0.00    -0.390 OA 
ATOM     16  OE1 GLU A   1      -9.363  14.250  66.212  1.00  0.00    -0.272 OA 
ENDBRANCH  12  13
ENDBRANCH   8  12
ENDBRANCH   6   8
ENDBRANCH   2   6
TORSDOF 4
ENDMDL
MODEL      244
REMARK 921   NORMALIZED FREE ENERGY PREDICTED BY IDOCK:   -2.92 KCAL/MOL
REMARK 922        TOTAL FREE ENERGY PREDICTED BY IDOCK:   -3.44 KCAL/MOL
REMARK 923 INTER-LIGAND FREE ENERGY PREDICTED BY IDOCK:   -3.19 KCAL/MOL
REMARK 924 INTRA-LIGAND FREE ENERGY PREDICTED BY IDOCK:   -0.25 KCAL/MOL
REMARK 927      BINDING AFFINITY PREDICTED BY RF-SCORE:    0.00 PKD
ROOT
HETATM    1  N   UNK A   0      -9.671   6.680  65.887  1.00  0.00    -0.375 N  
HETATM    2  C   UNK A   0      -9.737   7.764  66.694  1.00  0.00    -0.222 C  
HETATM    3  H2  UNK A   0     -10.254   5.871  66.102  1.00  0.00     0.000 HD 
HETATM    4  H1  UNK A   0      -9.059   6.644  65.072  1.00  0.00     0.000 HD 
HETATM    5  O   UNK A   0     -10.470   7.807  67.671  1.00  0.00    -0.226 OA 
ENDROOT
BRANCH   2   6
ATOM      6  N   GLU A   1      -8.922   8.772  66.292  1.00  0.00    -0.161 N  
ATOM      7  H   GLU A   1      -7.985   8.845  66.689  1.00  0.00     0.000 HD 
BRANCH   6   8
ATOM      8  CA  GLU A   1      -9.357   9.750  65.303  1.00  0.00    -0.255 C  
ATOM      9  O   GLU A   1      -8.828   9.568  62.948  1.00  0.00    -0.224 OA 
ATOM     10  C   GLU A   1      -8.316   9.768  64.184  1.00  0.00    -0.168 C  
ATOM     11  OXT GLU A   1      -7.124   9.975  64.372  1.00  0.00    -0.131 OA 
BRANCH   8  12
ATOM     12  CB  GLU A   1      -9.485  11.145  65.929  1.00  0.00    -0.241 C  
BRANCH  12  13
ATOM     13  CG  GLU A   1     -10.943  11.581  66.070  1.00  0.00    -0.316 C  
ATOM     14  CD  GLU A   1     -11.159  12.474  67.264  1.00  0.00    -0.274 C  
ATOM     15  OE2 GLU A   1     -11.858  12.169  68.218  1.00  0.00    -0.329 OA 
ATOM     16  OE1 GLU A   1     -10.541  13.671  67.170  1.00  0.00    -0.269 OA 
ENDBRANCH  12  13
ENDBRANCH   8  12
ENDBRANCH   6   8
ENDBRANCH   2   6
TORSDOF 4
ENDMDL
MODEL      245
REMARK 921   NORMALIZED FREE ENERGY PREDICTED BY IDOCK:   -2.90 KCAL/MOL
REMARK 922        TOTAL FREE ENERGY PREDICTED BY IDOCK:   -3.43 KCAL/MOL
REMARK 923 INTER-LIGAND FREE ENERGY PREDICTED BY IDOCK:   -3.03 KCAL/MOL
REMARK 924 INTRA-LIGAND FREE ENERGY PREDICTED BY IDOCK:   -0.39 KCAL/MOL
REMARK 927      BINDING AFFINITY PREDICTED BY RF-SCORE:    0.00 PKD
ROOT
HETATM    1  N   UNK A   0     -10.060   9.793  68.153  1.00  0.00    -0.158 N  
HETATM    2  C   UNK A   0     -10.424   8.490  68.132  1.00  0.00    -0.182 C  
HETATM    3  H2  UNK A   0     -10.165  10.348  67.304  1.00  0.00     0.000 HD 
HETATM    4  H1  UNK A   0      -9.684  10.239  68.990  1.00  0.00     0.000 HD 
HETATM    5  O   UNK A   0     -10.874   7.956  67.129  1.00  0.00    -0.296 OA 
ENDROOT
BRANCH   2   6
ATOM      6  N   GLU A   1     -10.244   7.871  69.325  1.00  0.00    -0.211 N  
ATOM      7  H   GLU A   1     -10.981   7.269  69.691  1.00  0.00     0.000 HD 
BRANCH   6   8
ATOM      8  CA  GLU A   1      -9.019   8.050  70.094  1.00  0.00    -0.150 C  
ATOM      9  O   GLU A   1      -7.055   6.671  69.782  1.00  0.00    -0.064 OA 
ATOM     10  C   GLU A   1      -8.340   6.685  70.203  1.00  0.00    -0.135 C  
ATOM     11  OXT GLU A   1      -8.890   5.690  70.656  1.00  0.00    -0.135 OA 
BRANCH   8  12
ATOM     12  CB  GLU A   1      -9.323   8.601  71.494  1.00  0.00    -0.319 C  
BRANCH  12  13
ATOM     13  CG  GLU A   1     -10.823   8.750  71.741  1.00  0.00    -0.416 C  
ATOM     14  CD  GLU A   1     -11.446   7.480  72.262  1.00  0.00    -0.303 C  
ATOM     15  OE2 GLU A   1     -12.290   6.843  71.652  1.00  0.00    -0.339 OA 
ATOM     16  OE1 GLU A   1     -11.017   7.127  73.492  1.00  0.00    -0.328 OA 
ENDBRANCH  12  13
ENDBRANCH   8  12
ENDBRANCH   6   8
ENDBRANCH   2   6
TORSDOF 4
ENDMDL
MODEL      246
REMARK 921   NORMALIZED FREE ENERGY PREDICTED BY IDOCK:   -2.88 KCAL/MOL
REMARK 922        TOTAL FREE ENERGY PREDICTED BY IDOCK:   -3.40 KCAL/MOL
REMARK 923 INTER-LIGAND FREE ENERGY PREDICTED BY IDOCK:   -3.05 KCAL/MOL
REMARK 924 INTRA-LIGAND FREE ENERGY PREDICTED BY IDOCK:   -0.35 KCAL/MOL
REMARK 927      BINDING AFFINITY PREDICTED BY RF-SCORE:    0.00 PKD
ROOT
HETATM    1  N   UNK A   0     -12.697   7.851  70.836  1.00  0.00    -0.520 N  
HETATM    2  C   UNK A   0     -11.819   6.826  70.749  1.00  0.00    -0.392 C  
HETATM    3  H2  UNK A   0     -13.115   8.216  69.980  1.00  0.00     0.000 HD 
HETATM    4  H1  UNK A   0     -12.957   8.271  71.729  1.00  0.00     0.000 HD 
HETATM    5  O   UNK A   0     -11.508   6.323  69.679  1.00  0.00    -0.432 OA 
ENDROOT
BRANCH   2   6
ATOM      6  N   GLU A   1     -11.347   6.430  71.958  1.00  0.00    -0.278 N  
ATOM      7  H   GLU A   1     -11.497   7.026  72.772  1.00  0.00     0.000 HD 
BRANCH   6   8
ATOM      8  CA  GLU A   1     -10.630   5.171  72.116  1.00  0.00    -0.211 C  
ATOM      9  O   GLU A   1     -11.435   3.363  73.509  1.00  0.00    -0.204 OA 
ATOM     10  C   GLU A   1     -10.955   4.628  73.507  1.00  0.00    -0.318 C  
ATOM     11  OXT GLU A   1     -10.774   5.260  74.540  1.00  0.00    -0.323 OA 
BRANCH   8  12
ATOM     12  CB  GLU A   1      -9.116   5.377  71.970  1.00  0.00    -0.149 C  
BRANCH  12  13
ATOM     13  CG  GLU A   1      -8.473   4.311  71.086  1.00  0.00    -0.105 C  
ATOM     14  CD  GLU A   1      -7.523   3.428  71.854  1.00  0.00    -0.052 C  
ATOM     15  OE2 GLU A   1      -6.323   3.376  71.635  1.00  0.00    -0.014 OA 
ATOM     16  OE1 GLU A   1      -8.126   2.659  72.785  1.00  0.00    -0.057 OA 
ENDBRANCH  12  13
ENDBRANCH   8  12
ENDBRANCH   6   8
ENDBRANCH   2   6
TORSDOF 4
ENDMDL
MODEL      247
REMARK 921   NORMALIZED FREE ENERGY PREDICTED BY IDOCK:   -2.86 KCAL/MOL
REMARK 922        TOTAL FREE ENERGY PREDICTED BY IDOCK:   -3.37 KCAL/MOL
REMARK 923 INTER-LIGAND FREE ENERGY PREDICTED BY IDOCK:   -3.50 KCAL/MOL
REMARK 924 INTRA-LIGAND FREE ENERGY PREDICTED BY IDOCK:    0.13 KCAL/MOL
REMARK 927      BINDING AFFINITY PREDICTED BY RF-SCORE:    0.00 PKD
ROOT
HETATM    1  N   UNK A   0     -12.402  16.002  68.572  1.00  0.00    -0.118 N  
HETATM    2  C   UNK A   0     -11.140  16.008  69.057  1.00  0.00    -0.320 C  
HETATM    3  H2  UNK A   0     -12.844  16.891  68.337  1.00  0.00     0.000 HD 
HETATM    4  H1  UNK A   0     -12.928  15.139  68.433  1.00  0.00     0.000 HD 
HETATM    5  O   UNK A   0     -10.510  17.042  69.224  1.00  0.00    -0.323 OA 
ENDROOT
BRANCH   2   6
ATOM      6  N   GLU A   1     -10.668  14.763  69.318  1.00  0.00    -0.253 N  
ATOM      7  H   GLU A   1     -10.972  14.280  70.163  1.00  0.00     0.000 HD 
BRANCH   6   8
ATOM      8  CA  GLU A   1      -9.736  14.101  68.414  1.00  0.00    -0.226 C  
ATOM      9  O   GLU A   1      -8.874  15.152  66.411  1.00  0.00    -0.285 OA 
ATOM     10  C   GLU A   1      -9.980  14.658  67.011  1.00  0.00    -0.246 C  
ATOM     11  OXT GLU A   1     -11.072  14.639  66.456  1.00  0.00    -0.317 OA 
BRANCH   8  12
ATOM     12  CB  GLU A   1      -9.946  12.581  68.422  1.00  0.00    -0.212 C  
BRANCH  12  13
ATOM     13  CG  GLU A   1     -11.424  12.203  68.346  1.00  0.00    -0.356 C  
ATOM     14  CD  GLU A   1     -11.924  11.587  69.626  1.00  0.00    -0.339 C  
ATOM     15  OE2 GLU A   1     -12.325  10.436  69.710  1.00  0.00    -0.192 OA 
ATOM     16  OE1 GLU A   1     -11.931  12.438  70.674  1.00  0.00    -0.309 OA 
ENDBRANCH  12  13
ENDBRANCH   8  12
ENDBRANCH   6   8
ENDBRANCH   2   6
TORSDOF 4
ENDMDL
MODEL      248
REMARK 921   NORMALIZED FREE ENERGY PREDICTED BY IDOCK:   -2.83 KCAL/MOL
REMARK 922        TOTAL FREE ENERGY PREDICTED BY IDOCK:   -3.34 KCAL/MOL
REMARK 923 INTER-LIGAND FREE ENERGY PREDICTED BY IDOCK:   -2.76 KCAL/MOL
REMARK 924 INTRA-LIGAND FREE ENERGY PREDICTED BY IDOCK:   -0.58 KCAL/MOL
REMARK 927      BINDING AFFINITY PREDICTED BY RF-SCORE:    0.00 PKD
ROOT
HETATM    1  N   UNK A   0     -11.046  12.019  66.503  1.00  0.00    -0.299 N  
HETATM    2  C   UNK A   0     -10.134  12.699  65.771  1.00  0.00    -0.271 C  
HETATM    3  H2  UNK A   0     -12.015  12.339  66.504  1.00  0.00     0.000 HD 
HETATM    4  H1  UNK A   0     -10.799  11.196  67.052  1.00  0.00     0.000 HD 
HETATM    5  O   UNK A   0     -10.430  13.685  65.112  1.00  0.00    -0.333 OA 
ENDROOT
BRANCH   2   6
ATOM      6  N   GLU A   1      -8.890  12.163  65.847  1.00  0.00    -0.410 N  
ATOM      7  H   GLU A   1      -8.268  12.228  65.042  1.00  0.00     0.000 HD 
BRANCH   6   8
ATOM      8  CA  GLU A   1      -8.424  11.497  67.057  1.00  0.00    -0.164 C  
ATOM      9  O   GLU A   1      -7.149  12.628  68.775  1.00  0.00    -0.091 OA 
ATOM     10  C   GLU A   1      -7.134  12.189  67.496  1.00  0.00    -0.135 C  
ATOM     11  OXT GLU A   1      -6.154  12.315  66.773  1.00  0.00    -0.222 OA 
BRANCH   8  12
ATOM     12  CB  GLU A   1      -8.164  10.007  66.800  1.00  0.00    -0.121 C  
BRANCH  12  13
ATOM     13  CG  GLU A   1      -8.369   9.161  68.055  1.00  0.00    -0.120 C  
ATOM     14  CD  GLU A   1      -9.602   9.565  68.822  1.00  0.00    -0.157 C  
ATOM     15  OE2 GLU A   1      -9.572  10.028  69.952  1.00  0.00    -0.226 OA 
ATOM     16  OE1 GLU A   1     -10.756   9.330  68.163  1.00  0.00    -0.213 OA 
ENDBRANCH  12  13
ENDBRANCH   8  12
ENDBRANCH   6   8
ENDBRANCH   2   6
TORSDOF 4
ENDMDL
MODEL      249
REMARK 921   NORMALIZED FREE ENERGY PREDICTED BY IDOCK:   -2.83 KCAL/MOL
REMARK 922        TOTAL FREE ENERGY PREDICTED BY IDOCK:   -3.33 KCAL/MOL
REMARK 923 INTER-LIGAND FREE ENERGY PREDICTED BY IDOCK:   -3.23 KCAL/MOL
REMARK 924 INTRA-LIGAND FREE ENERGY PREDICTED BY IDOCK:   -0.09 KCAL/MOL
REMARK 927      BINDING AFFINITY PREDICTED BY RF-SCORE:    0.00 PKD
ROOT
HETATM    1  N   UNK A   0      -8.822   6.972  64.808  1.00  0.00    -0.218 N  
HETATM    2  C   UNK A   0      -8.292   8.197  65.029  1.00  0.00    -0.136 C  
HETATM    3  H2  UNK A   0      -8.229   6.243  64.411  1.00  0.00     0.000 HD 
HETATM    4  H1  UNK A   0      -9.794   6.752  65.027  1.00  0.00     0.000 HD 
HETATM    5  O   UNK A   0      -7.128   8.461  64.767  1.00  0.00    -0.077 OA 
ENDROOT
BRANCH   2   6
ATOM      6  N   GLU A   1      -9.181   9.068  65.569  1.00  0.00    -0.314 N  
ATOM      7  H   GLU A   1     -10.092   8.726  65.875  1.00  0.00     0.000 HD 
BRANCH   6   8
ATOM      8  CA  GLU A   1      -8.860  10.481  65.722  1.00  0.00    -0.175 C  
ATOM      9  O   GLU A   1      -6.745  11.264  66.599  1.00  0.00    -0.133 OA 
ATOM     10  C   GLU A   1      -7.890  10.609  66.896  1.00  0.00    -0.121 C  
ATOM     11  OXT GLU A   1      -8.128  10.186  68.020  1.00  0.00    -0.110 OA 
BRANCH   8  12
ATOM     12  CB  GLU A   1     -10.126  11.307  65.990  1.00  0.00    -0.283 C  
BRANCH  12  13
ATOM     13  CG  GLU A   1     -11.014  11.418  64.753  1.00  0.00    -0.303 C  
ATOM     14  CD  GLU A   1     -12.054  12.500  64.891  1.00  0.00    -0.440 C  
ATOM     15  OE2 GLU A   1     -13.256  12.283  64.909  1.00  0.00    -0.597 OA 
ATOM     16  OE1 GLU A   1     -11.540  13.747  64.950  1.00  0.00    -0.327 OA 
ENDBRANCH  12  13
ENDBRANCH   8  12
ENDBRANCH   6   8
ENDBRANCH   2   6
TORSDOF 4
ENDMDL
MODEL      250
REMARK 921   NORMALIZED FREE ENERGY PREDICTED BY IDOCK:   -2.82 KCAL/MOL
REMARK 922        TOTAL FREE ENERGY PREDICTED BY IDOCK:   -3.33 KCAL/MOL
REMARK 923 INTER-LIGAND FREE ENERGY PREDICTED BY IDOCK:   -3.05 KCAL/MOL
REMARK 924 INTRA-LIGAND FREE ENERGY PREDICTED BY IDOCK:   -0.28 KCAL/MOL
REMARK 927      BINDING AFFINITY PREDICTED BY RF-SCORE:    0.00 PKD
ROOT
HETATM    1  N   UNK A   0      -8.135   7.850  70.177  1.00  0.00    -0.114 N  
HETATM    2  C   UNK A   0      -8.944   7.932  69.096  1.00  0.00    -0.145 C  
HETATM    3  H2  UNK A   0      -7.180   7.515  70.054  1.00  0.00     0.000 HD 
HETATM    4  H1  UNK A   0      -8.448   8.114  71.112  1.00  0.00     0.000 HD 
HETATM    5  O   UNK A   0      -8.570   7.616  67.976  1.00  0.00    -0.123 OA 
ENDROOT
BRANCH   2   6
ATOM      6  N   GLU A   1     -10.181   8.402  69.396  1.00  0.00    -0.203 N  
ATOM      7  H   GLU A   1     -10.962   8.181  68.779  1.00  0.00     0.000 HD 
BRANCH   6   8
ATOM      8  CA  GLU A   1     -10.416   9.215  70.582  1.00  0.00    -0.245 C  
ATOM      9  O   GLU A   1     -10.984   8.270  72.736  1.00  0.00    -0.354 OA 
ATOM     10  C   GLU A   1     -11.409   8.463  71.467  1.00  0.00    -0.276 C  
ATOM     11  OXT GLU A   1     -12.510   8.089  71.082  1.00  0.00    -0.284 OA 
BRANCH   8  12
ATOM     12  CB  GLU A   1     -10.981  10.591  70.203  1.00  0.00    -0.338 C  
BRANCH  12  13
ATOM     13  CG  GLU A   1     -12.129  10.485  69.200  1.00  0.00    -0.059 C  
ATOM     14  CD  GLU A   1     -11.750  11.012  67.840  1.00  0.00    -0.135 C  
ATOM     15  OE2 GLU A   1     -12.276  11.984  67.322  1.00  0.00    -0.496 OA 
ATOM     16  OE1 GLU A   1     -10.798  10.283  67.219  1.00  0.00    -0.277 OA 
ENDBRANCH  12  13
ENDBRANCH   8  12
ENDBRANCH   6   8
ENDBRANCH   2   6
TORSDOF 4
ENDMDL
MODEL      251
REMARK 921   NORMALIZED FREE ENERGY PREDICTED BY IDOCK:   -2.80 KCAL/MOL
REMARK 922        TOTAL FREE ENERGY PREDICTED BY IDOCK:   -3.30 KCAL/MOL
REMARK 923 INTER-LIGAND FREE ENERGY PREDICTED BY IDOCK:   -3.69 KCAL/MOL
REMARK 924 INTRA-LIGAND FREE ENERGY PREDICTED BY IDOCK:    0.40 KCAL/MOL
REMARK 927      BINDING AFFINITY PREDICTED BY RF-SCORE:    0.00 PKD
ROOT
HETATM    1  N   UNK A   0     -11.249  16.219  69.281  1.00  0.00    -0.325 N  
HETATM    2  C   UNK A   0     -11.648  15.105  69.937  1.00  0.00    -0.300 C  
HETATM    3  H2  UNK A   0     -11.562  17.129  69.620  1.00  0.00     0.000 HD 
HETATM    4  H1  UNK A   0     -10.644  16.180  68.461  1.00  0.00     0.000 HD 
HETATM    5  O   UNK A   0     -12.372  15.151  70.920  1.00  0.00    -0.300 OA 
ENDROOT
BRANCH   2   6
ATOM      6  N   GLU A   1     -11.153  13.965  69.392  1.00  0.00    -0.382 N  
ATOM      7  H   GLU A   1     -11.163  13.105  69.939  1.00  0.00     0.000 HD 
BRANCH   6   8
ATOM      8  CA  GLU A   1     -10.608  13.946  68.041  1.00  0.00    -0.248 C  
ATOM      9  O   GLU A   1     -11.998  13.934  66.059  1.00  0.00    -0.369 OA 
ATOM     10  C   GLU A   1     -11.617  13.226  67.147  1.00  0.00    -0.357 C  
ATOM     11  OXT GLU A   1     -12.030  12.094  67.368  1.00  0.00    -0.563 OA 
BRANCH   8  12
ATOM     12  CB  GLU A   1      -9.256  13.221  68.002  1.00  0.00    -0.217 C  
BRANCH  12  13
ATOM     13  CG  GLU A   1      -9.401  11.751  67.612  1.00  0.00    -0.180 C  
ATOM     14  CD  GLU A   1      -8.343  11.311  66.634  1.00  0.00    -0.163 C  
ATOM     15  OE2 GLU A   1      -8.586  10.944  65.495  1.00  0.00    -0.182 OA 
ATOM     16  OE1 GLU A   1      -7.093  11.319  67.144  1.00  0.00    -0.108 OA 
ENDBRANCH  12  13
ENDBRANCH   8  12
ENDBRANCH   6   8
ENDBRANCH   2   6
TORSDOF 4
ENDMDL
MODEL      252
REMARK 921   NORMALIZED FREE ENERGY PREDICTED BY IDOCK:   -2.78 KCAL/MOL
REMARK 922        TOTAL FREE ENERGY PREDICTED BY IDOCK:   -3.27 KCAL/MOL
REMARK 923 INTER-LIGAND FREE ENERGY PREDICTED BY IDOCK:   -2.93 KCAL/MOL
REMARK 924 INTRA-LIGAND FREE ENERGY PREDICTED BY IDOCK:   -0.34 KCAL/MOL
REMARK 927      BINDING AFFINITY PREDICTED BY RF-SCORE:    0.00 PKD
ROOT
HETATM    1  N   UNK A   0     -13.039   7.518  70.788  1.00  0.00    -0.537 N  
HETATM    2  C   UNK A   0     -12.004   6.648  70.812  1.00  0.00    -0.353 C  
HETATM    3  H2  UNK A   0     -13.397   7.833  69.885  1.00  0.00     0.000 HD 
HETATM    4  H1  UNK A   0     -13.475   7.870  71.640  1.00  0.00     0.000 HD 
HETATM    5  O   UNK A   0     -11.482   6.226  69.791  1.00  0.00    -0.430 OA 
ENDROOT
BRANCH   2   6
ATOM      6  N   GLU A   1     -11.635   6.302  72.071  1.00  0.00    -0.311 N  
ATOM      7  H   GLU A   1     -12.286   6.451  72.841  1.00  0.00     0.000 HD 
BRANCH   6   8
ATOM      8  CA  GLU A   1     -10.327   5.721  72.343  1.00  0.00    -0.200 C  
ATOM      9  O   GLU A   1      -9.994   3.359  72.758  1.00  0.00    -0.136 OA 
ATOM     10  C   GLU A   1     -10.542   4.499  73.237  1.00  0.00    -0.216 C  
ATOM     11  OXT GLU A   1     -11.131   4.541  74.310  1.00  0.00    -0.277 OA 
BRANCH   8  12
ATOM     12  CB  GLU A   1      -9.410   6.732  73.044  1.00  0.00    -0.153 C  
BRANCH  12  13
ATOM     13  CG  GLU A   1      -8.017   6.778  72.418  1.00  0.00    -0.098 C  
ATOM     14  CD  GLU A   1      -6.935   6.411  73.401  1.00  0.00    -0.078 C  
ATOM     15  OE2 GLU A   1      -6.064   7.184  73.765  1.00  0.00    -0.061 OA 
ATOM     16  OE1 GLU A   1      -6.988   5.127  73.815  1.00  0.00    -0.077 OA 
ENDBRANCH  12  13
ENDBRANCH   8  12
ENDBRANCH   6   8
ENDBRANCH   2   6
TORSDOF 4
ENDMDL
MODEL      253
REMARK 921   NORMALIZED FREE ENERGY PREDICTED BY IDOCK:   -2.77 KCAL/MOL
REMARK 922        TOTAL FREE ENERGY PREDICTED BY IDOCK:   -3.26 KCAL/MOL
REMARK 923 INTER-LIGAND FREE ENERGY PREDICTED BY IDOCK:   -2.85 KCAL/MOL
REMARK 924 INTRA-LIGAND FREE ENERGY PREDICTED BY IDOCK:   -0.41 KCAL/MOL
REMARK 927      BINDING AFFINITY PREDICTED BY RF-SCORE:    0.00 PKD
ROOT
HETATM    1  N   UNK A   0      -9.942  11.693  66.986  1.00  0.00    -0.202 N  
HETATM    2  C   UNK A   0     -10.362  11.019  65.891  1.00  0.00    -0.257 C  
HETATM    3  H2  UNK A   0      -9.969  12.713  66.977  1.00  0.00     0.000 HD 
HETATM    4  H1  UNK A   0      -9.600  11.216  67.820  1.00  0.00     0.000 HD 
HETATM    5  O   UNK A   0     -10.771  11.590  64.891  1.00  0.00    -0.287 OA 
ENDROOT
BRANCH   2   6
ATOM      6  N   GLU A   1     -10.285   9.673  66.037  1.00  0.00    -0.235 N  
ATOM      7  H   GLU A   1     -11.134   9.113  65.964  1.00  0.00     0.000 HD 
BRANCH   6   8
ATOM      8  CA  GLU A   1      -9.013   9.010  66.296  1.00  0.00    -0.162 C  
ATOM      9  O   GLU A   1      -6.917   9.765  65.349  1.00  0.00    -0.094 OA 
ATOM     10  C   GLU A   1      -8.125   9.223  65.070  1.00  0.00    -0.127 C  
ATOM     11  OXT GLU A   1      -8.453   8.907  63.933  1.00  0.00    -0.182 OA 
BRANCH   8  12
ATOM     12  CB  GLU A   1      -9.215   7.510  66.548  1.00  0.00    -0.217 C  
BRANCH  12  13
ATOM     13  CG  GLU A   1     -10.629   7.192  67.030  1.00  0.00    -0.413 C  
ATOM     14  CD  GLU A   1     -10.739   7.209  68.532  1.00  0.00    -0.152 C  
ATOM     15  OE2 GLU A   1     -11.012   6.224  69.201  1.00  0.00    -0.306 OA 
ATOM     16  OE1 GLU A   1     -10.550   8.429  69.079  1.00  0.00    -0.218 OA 
ENDBRANCH  12  13
ENDBRANCH   8  12
ENDBRANCH   6   8
ENDBRANCH   2   6
TORSDOF 4
ENDMDL
MODEL      254
REMARK 921   NORMALIZED FREE ENERGY PREDICTED BY IDOCK:   -2.77 KCAL/MOL
REMARK 922        TOTAL FREE ENERGY PREDICTED BY IDOCK:   -3.26 KCAL/MOL
REMARK 923 INTER-LIGAND FREE ENERGY PREDICTED BY IDOCK:   -2.84 KCAL/MOL
REMARK 924 INTRA-LIGAND FREE ENERGY PREDICTED BY IDOCK:   -0.41 KCAL/MOL
REMARK 927      BINDING AFFINITY PREDICTED BY RF-SCORE:    0.00 PKD
ROOT
HETATM    1  N   UNK A   0      -7.200   9.933  70.492  1.00  0.00    -0.127 N  
HETATM    2  C   UNK A   0      -7.788  10.438  69.383  1.00  0.00    -0.161 C  
HETATM    3  H2  UNK A   0      -6.453  10.465  70.939  1.00  0.00     0.000 HD 
HETATM    4  H1  UNK A   0      -7.479   9.039  70.897  1.00  0.00     0.000 HD 
HETATM    5  O   UNK A   0      -7.455  11.509  68.898  1.00  0.00    -0.115 OA 
ENDROOT
BRANCH   2   6
ATOM      6  N   GLU A   1      -8.771   9.639  68.897  1.00  0.00    -0.127 N  
ATOM      7  H   GLU A   1      -8.565   8.662  68.692  1.00  0.00     0.000 HD 
BRANCH   6   8
ATOM      8  CA  GLU A   1     -10.115  10.150  68.661  1.00  0.00    -0.172 C  
ATOM      9  O   GLU A   1     -11.580  10.877  70.445  1.00  0.00    -0.308 OA 
ATOM     10  C   GLU A   1     -10.959   9.812  69.890  1.00  0.00    -0.264 C  
ATOM     11  OXT GLU A   1     -11.094   8.676  70.326  1.00  0.00    -0.247 OA 
BRANCH   8  12
ATOM     12  CB  GLU A   1     -10.733   9.518  67.406  1.00  0.00    -0.297 C  
BRANCH  12  13
ATOM     13  CG  GLU A   1      -9.791   8.514  66.744  1.00  0.00    -0.327 C  
ATOM     14  CD  GLU A   1      -9.983   7.115  67.270  1.00  0.00    -0.186 C  
ATOM     15  OE2 GLU A   1      -9.124   6.501  67.883  1.00  0.00    -0.116 OA 
ATOM     16  OE1 GLU A   1     -11.184   6.579  66.967  1.00  0.00    -0.397 OA 
ENDBRANCH  12  13
ENDBRANCH   8  12
ENDBRANCH   6   8
ENDBRANCH   2   6
TORSDOF 4
ENDMDL
MODEL      255
REMARK 921   NORMALIZED FREE ENERGY PREDICTED BY IDOCK:   -2.74 KCAL/MOL
REMARK 922        TOTAL FREE ENERGY PREDICTED BY IDOCK:   -3.22 KCAL/MOL
REMARK 923 INTER-LIGAND FREE ENERGY PREDICTED BY IDOCK:   -2.85 KCAL/MOL
REMARK 924 INTRA-LIGAND FREE ENERGY PREDICTED BY IDOCK:   -0.37 KCAL/MOL
REMARK 927      BINDING AFFINITY PREDICTED BY RF-SCORE:    0.00 PKD
ROOT
HETATM    1  N   UNK A   0      -9.055   6.049  66.813  1.00  0.00    -0.127 N  
HETATM    2  C   UNK A   0     -10.389   5.830  66.761  1.00  0.00    -0.256 C  
HETATM    3  H2  UNK A   0      -8.446   5.536  66.176  1.00  0.00     0.000 HD 
HETATM    4  H1  UNK A   0      -8.638   6.710  67.468  1.00  0.00     0.000 HD 
HETATM    5  O   UNK A   0     -10.890   5.038  65.976  1.00  0.00    -0.283 OA 
ENDROOT
BRANCH   2   6
ATOM      6  N   GLU A   1     -11.084   6.582  67.651  1.00  0.00    -0.524 N  
ATOM      7  H   GLU A   1     -12.100   6.502  67.687  1.00  0.00     0.000 HD 
BRANCH   6   8
ATOM      8  CA  GLU A   1     -10.407   7.501  68.557  1.00  0.00    -0.199 C  
ATOM      9  O   GLU A   1      -9.744   6.888  70.803  1.00  0.00    -0.172 OA 
ATOM     10  C   GLU A   1     -10.796   7.113  69.983  1.00  0.00    -0.254 C  
ATOM     11  OXT GLU A   1     -11.955   7.037  70.372  1.00  0.00    -0.289 OA 
BRANCH   8  12
ATOM     12  CB  GLU A   1     -10.816   8.953  68.275  1.00  0.00    -0.048 C  
BRANCH  12  13
ATOM     13  CG  GLU A   1     -10.383   9.414  66.884  1.00  0.00    -0.308 C  
ATOM     14  CD  GLU A   1      -8.967   9.930  66.868  1.00  0.00    -0.138 C  
ATOM     15  OE2 GLU A   1      -8.673  11.086  66.608  1.00  0.00    -0.150 OA 
ATOM     16  OE1 GLU A   1      -8.039   8.984  67.125  1.00  0.00    -0.105 OA 
ENDBRANCH  12  13
ENDBRANCH   8  12
ENDBRANCH   6   8
ENDBRANCH   2   6
TORSDOF 4
ENDMDL
MODEL      256
REMARK 921   NORMALIZED FREE ENERGY PREDICTED BY IDOCK:   -2.74 KCAL/MOL
REMARK 922        TOTAL FREE ENERGY PREDICTED BY IDOCK:   -3.22 KCAL/MOL
REMARK 923 INTER-LIGAND FREE ENERGY PREDICTED BY IDOCK:   -2.79 KCAL/MOL
REMARK 924 INTRA-LIGAND FREE ENERGY PREDICTED BY IDOCK:   -0.43 KCAL/MOL
REMARK 927      BINDING AFFINITY PREDICTED BY RF-SCORE:    0.00 PKD
ROOT
HETATM    1  N   UNK A   0      -6.925   8.027  71.778  1.00  0.00    -0.064 N  
HETATM    2  C   UNK A   0      -7.899   8.105  72.714  1.00  0.00    -0.145 C  
HETATM    3  H2  UNK A   0      -6.012   7.659  72.047  1.00  0.00     0.000 HD 
HETATM    4  H1  UNK A   0      -7.072   8.322  70.813  1.00  0.00     0.000 HD 
HETATM    5  O   UNK A   0      -7.722   7.752  73.871  1.00  0.00    -0.127 OA 
ENDROOT
BRANCH   2   6
ATOM      6  N   GLU A   1      -9.063   8.600  72.224  1.00  0.00    -0.242 N  
ATOM      7  H   GLU A   1      -9.521   9.372  72.709  1.00  0.00     0.000 HD 
BRANCH   6   8
ATOM      8  CA  GLU A   1      -9.672   8.052  71.019  1.00  0.00    -0.160 C  
ATOM      9  O   GLU A   1      -9.435   9.079  68.840  1.00  0.00    -0.149 OA 
ATOM     10  C   GLU A   1      -9.962   9.221  70.078  1.00  0.00    -0.209 C  
ATOM     11  OXT GLU A   1     -10.637  10.193  70.393  1.00  0.00    -0.290 OA 
BRANCH   8  12
ATOM     12  CB  GLU A   1     -10.971   7.305  71.350  1.00  0.00    -0.256 C  
BRANCH  12  13
ATOM     13  CG  GLU A   1     -11.487   6.494  70.163  1.00  0.00    -0.477 C  
ATOM     14  CD  GLU A   1     -10.461   5.517  69.648  1.00  0.00    -0.309 C  
ATOM     15  OE2 GLU A   1      -9.970   5.580  68.531  1.00  0.00    -0.138 OA 
ATOM     16  OE1 GLU A   1     -10.160   4.532  70.520  1.00  0.00    -0.222 OA 
ENDBRANCH  12  13
ENDBRANCH   8  12
ENDBRANCH   6   8
ENDBRANCH   2   6
TORSDOF 4
ENDMDL
MODEL      257
REMARK 921   NORMALIZED FREE ENERGY PREDICTED BY IDOCK:   -2.72 KCAL/MOL
REMARK 922        TOTAL FREE ENERGY PREDICTED BY IDOCK:   -3.20 KCAL/MOL
REMARK 923 INTER-LIGAND FREE ENERGY PREDICTED BY IDOCK:   -2.73 KCAL/MOL
REMARK 924 INTRA-LIGAND FREE ENERGY PREDICTED BY IDOCK:   -0.46 KCAL/MOL
REMARK 927      BINDING AFFINITY PREDICTED BY RF-SCORE:    0.00 PKD
ROOT
HETATM    1  N   UNK A   0      -8.036   7.008  69.420  1.00  0.00    -0.128 N  
HETATM    2  C   UNK A   0      -9.041   6.314  68.839  1.00  0.00    -0.124 C  
HETATM    3  H2  UNK A   0      -7.488   7.652  68.849  1.00  0.00     0.000 HD 
HETATM    4  H1  UNK A   0      -7.808   6.910  70.410  1.00  0.00     0.000 HD 
HETATM    5  O   UNK A   0      -9.315   6.432  67.653  1.00  0.00    -0.119 OA 
ENDROOT
BRANCH   2   6
ATOM      6  N   GLU A   1      -9.696   5.505  69.709  1.00  0.00    -0.164 N  
ATOM      7  H   GLU A   1     -10.184   4.682  69.354  1.00  0.00     0.000 HD 
BRANCH   6   8
ATOM      8  CA  GLU A   1      -9.717   5.787  71.138  1.00  0.00    -0.169 C  
ATOM      9  O   GLU A   1      -8.471   4.487  72.755  1.00  0.00    -0.110 OA 
ATOM     10  C   GLU A   1      -9.495   4.465  71.872  1.00  0.00    -0.144 C  
ATOM     11  OXT GLU A   1     -10.194   3.473  71.706  1.00  0.00    -0.120 OA 
BRANCH   8  12
ATOM     12  CB  GLU A   1     -11.057   6.406  71.558  1.00  0.00    -0.322 C  
BRANCH  12  13
ATOM     13  CG  GLU A   1     -10.891   7.440  72.669  1.00  0.00    -0.349 C  
ATOM     14  CD  GLU A   1      -9.913   8.526  72.299  1.00  0.00    -0.315 C  
ATOM     15  OE2 GLU A   1      -8.859   8.713  72.885  1.00  0.00    -0.367 OA 
ATOM     16  OE1 GLU A   1     -10.328   9.308  71.280  1.00  0.00    -0.302 OA 
ENDBRANCH  12  13
ENDBRANCH   8  12
ENDBRANCH   6   8
ENDBRANCH   2   6
TORSDOF 4
ENDMDL
MODEL      258
REMARK 921   NORMALIZED FREE ENERGY PREDICTED BY IDOCK:   -2.69 KCAL/MOL
REMARK 922        TOTAL FREE ENERGY PREDICTED BY IDOCK:   -3.17 KCAL/MOL
REMARK 923 INTER-LIGAND FREE ENERGY PREDICTED BY IDOCK:   -3.21 KCAL/MOL
REMARK 924 INTRA-LIGAND FREE ENERGY PREDICTED BY IDOCK:    0.04 KCAL/MOL
REMARK 927      BINDING AFFINITY PREDICTED BY RF-SCORE:    0.00 PKD
ROOT
HETATM    1  N   UNK A   0      -9.971  15.658  65.869  1.00  0.00    -0.323 N  
HETATM    2  C   UNK A   0      -8.817  15.108  66.309  1.00  0.00    -0.176 C  
HETATM    3  H2  UNK A   0     -10.007  16.665  65.707  1.00  0.00     0.000 HD 
HETATM    4  H1  UNK A   0     -10.807  15.101  65.693  1.00  0.00     0.000 HD 
HETATM    5  O   UNK A   0      -7.815  15.775  66.520  1.00  0.00    -0.220 OA 
ENDROOT
BRANCH   2   6
ATOM      6  N   GLU A   1      -8.901  13.764  66.473  1.00  0.00    -0.453 N  
ATOM      7  H   GLU A   1      -8.107  13.258  66.865  1.00  0.00     0.000 HD 
BRANCH   6   8
ATOM      8  CA  GLU A   1     -10.103  13.029  66.102  1.00  0.00    -0.285 C  
ATOM      9  O   GLU A   1     -11.994  12.759  67.588  1.00  0.00    -0.354 OA 
ATOM     10  C   GLU A   1     -10.697  12.440  67.381  1.00  0.00    -0.229 C  
ATOM     11  OXT GLU A   1     -10.072  11.715  68.145  1.00  0.00    -0.183 OA 
BRANCH   8  12
ATOM     12  CB  GLU A   1      -9.777  11.908  65.105  1.00  0.00    -0.197 C  
BRANCH  12  13
ATOM     13  CG  GLU A   1      -8.716  10.950  65.642  1.00  0.00    -0.190 C  
ATOM     14  CD  GLU A   1      -8.910   9.542  65.143  1.00  0.00    -0.186 C  
ATOM     15  OE2 GLU A   1      -9.170   8.597  65.871  1.00  0.00    -0.203 OA 
ATOM     16  OE1 GLU A   1      -8.729   9.406  63.812  1.00  0.00    -0.211 OA 
ENDBRANCH  12  13
ENDBRANCH   8  12
ENDBRANCH   6   8
ENDBRANCH   2   6
TORSDOF 4
ENDMDL
MODEL      259
REMARK 921   NORMALIZED FREE ENERGY PREDICTED BY IDOCK:   -2.68 KCAL/MOL
REMARK 922        TOTAL FREE ENERGY PREDICTED BY IDOCK:   -3.15 KCAL/MOL
REMARK 923 INTER-LIGAND FREE ENERGY PREDICTED BY IDOCK:   -3.65 KCAL/MOL
REMARK 924 INTRA-LIGAND FREE ENERGY PREDICTED BY IDOCK:    0.50 KCAL/MOL
REMARK 927      BINDING AFFINITY PREDICTED BY RF-SCORE:    0.00 PKD
ROOT
HETATM    1  N   UNK A   0      -8.895  10.289  63.725  1.00  0.00    -0.202 N  
HETATM    2  C   UNK A   0      -9.529  10.541  64.894  1.00  0.00    -0.252 C  
HETATM    3  H2  UNK A   0      -8.697   9.321  63.472  1.00  0.00     0.000 HD 
HETATM    4  H1  UNK A   0      -8.609  11.034  63.090  1.00  0.00     0.000 HD 
HETATM    5  O   UNK A   0      -9.871   9.649  65.656  1.00  0.00    -0.290 OA 
ENDROOT
BRANCH   2   6
ATOM      6  N   GLU A   1      -9.741  11.865  65.105  1.00  0.00    -0.361 N  
ATOM      7  H   GLU A   1     -10.088  12.443  64.340  1.00  0.00     0.000 HD 
BRANCH   6   8
ATOM      8  CA  GLU A   1      -9.484  12.475  66.402  1.00  0.00    -0.233 C  
ATOM      9  O   GLU A   1     -10.368  11.589  68.474  1.00  0.00    -0.197 OA 
ATOM     10  C   GLU A   1     -10.686  12.177  67.298  1.00  0.00    -0.229 C  
ATOM     11  OXT GLU A   1     -11.838  12.467  67.003  1.00  0.00    -0.481 OA 
BRANCH   8  12
ATOM     12  CB  GLU A   1      -9.288  13.992  66.268  1.00  0.00    -0.199 C  
BRANCH  12  13
ATOM     13  CG  GLU A   1     -10.617  14.746  66.270  1.00  0.00    -0.306 C  
ATOM     14  CD  GLU A   1     -10.593  15.942  67.187  1.00  0.00    -0.316 C  
ATOM     15  OE2 GLU A   1     -11.300  16.048  68.177  1.00  0.00    -0.342 OA 
ATOM     16  OE1 GLU A   1      -9.746  16.916  66.791  1.00  0.00    -0.246 OA 
ENDBRANCH  12  13
ENDBRANCH   8  12
ENDBRANCH   6   8
ENDBRANCH   2   6
TORSDOF 4
ENDMDL
MODEL      260
REMARK 921   NORMALIZED FREE ENERGY PREDICTED BY IDOCK:   -2.66 KCAL/MOL
REMARK 922        TOTAL FREE ENERGY PREDICTED BY IDOCK:   -3.12 KCAL/MOL
REMARK 923 INTER-LIGAND FREE ENERGY PREDICTED BY IDOCK:   -2.76 KCAL/MOL
REMARK 924 INTRA-LIGAND FREE ENERGY PREDICTED BY IDOCK:   -0.36 KCAL/MOL
REMARK 927      BINDING AFFINITY PREDICTED BY RF-SCORE:    0.00 PKD
ROOT
HETATM    1  N   UNK A   0      -7.815   8.522  68.428  1.00  0.00    -0.104 N  
HETATM    2  C   UNK A   0      -8.784   8.672  69.359  1.00  0.00    -0.139 C  
HETATM    3  H2  UNK A   0      -7.856   9.087  67.579  1.00  0.00     0.000 HD 
HETATM    4  H1  UNK A   0      -7.044   7.865  68.545  1.00  0.00     0.000 HD 
HETATM    5  O   UNK A   0      -9.708   9.460  69.219  1.00  0.00    -0.162 OA 
ENDROOT
BRANCH   2   6
ATOM      6  N   GLU A   1      -8.605   7.872  70.441  1.00  0.00    -0.131 N  
ATOM      7  H   GLU A   1      -8.563   6.861  70.312  1.00  0.00     0.000 HD 
BRANCH   6   8
ATOM      8  CA  GLU A   1      -8.472   8.428  71.781  1.00  0.00    -0.165 C  
ATOM      9  O   GLU A   1      -6.397   9.342  72.628  1.00  0.00    -0.297 OA 
ATOM     10  C   GLU A   1      -7.026   8.214  72.227  1.00  0.00    -0.089 C  
ATOM     11  OXT GLU A   1      -6.482   7.118  72.253  1.00  0.00    -0.051 OA 
BRANCH   8  12
ATOM     12  CB  GLU A   1      -9.435   7.742  72.760  1.00  0.00    -0.274 C  
BRANCH  12  13
ATOM     13  CG  GLU A   1     -10.895   8.078  72.463  1.00  0.00    -0.415 C  
ATOM     14  CD  GLU A   1     -11.602   6.964  71.736  1.00  0.00    -0.286 C  
ATOM     15  OE2 GLU A   1     -12.046   7.072  70.604  1.00  0.00    -0.341 OA 
ATOM     16  OE1 GLU A   1     -11.742   5.838  72.467  1.00  0.00    -0.309 OA 
ENDBRANCH  12  13
ENDBRANCH   8  12
ENDBRANCH   6   8
ENDBRANCH   2   6
TORSDOF 4
ENDMDL
MODEL      261
REMARK 921   NORMALIZED FREE ENERGY PREDICTED BY IDOCK:   -2.65 KCAL/MOL
REMARK 922        TOTAL FREE ENERGY PREDICTED BY IDOCK:   -3.12 KCAL/MOL
REMARK 923 INTER-LIGAND FREE ENERGY PREDICTED BY IDOCK:   -2.52 KCAL/MOL
REMARK 924 INTRA-LIGAND FREE ENERGY PREDICTED BY IDOCK:   -0.59 KCAL/MOL
REMARK 927      BINDING AFFINITY PREDICTED BY RF-SCORE:    0.00 PKD
ROOT
HETATM    1  N   UNK A   0     -10.097   8.185  68.350  1.00  0.00    -0.195 N  
HETATM    2  C   UNK A   0     -10.561   7.247  69.207  1.00  0.00    -0.221 C  
HETATM    3  H2  UNK A   0     -10.208   8.035  67.347  1.00  0.00     0.000 HD 
HETATM    4  H1  UNK A   0      -9.639   9.038  68.673  1.00  0.00     0.000 HD 
HETATM    5  O   UNK A   0     -11.109   6.225  68.821  1.00  0.00    -0.337 OA 
ENDROOT
BRANCH   2   6
ATOM      6  N   GLU A   1     -10.360   7.574  70.508  1.00  0.00    -0.212 N  
ATOM      7  H   GLU A   1     -10.499   8.539  70.808  1.00  0.00     0.000 HD 
BRANCH   6   8
ATOM      8  CA  GLU A   1      -9.949   6.574  71.486  1.00  0.00    -0.175 C  
ATOM      9  O   GLU A   1     -11.510   5.448  72.953  1.00  0.00    -0.309 OA 
ATOM     10  C   GLU A   1     -10.938   6.635  72.650  1.00  0.00    -0.255 C  
ATOM     11  OXT GLU A   1     -11.178   7.656  73.281  1.00  0.00    -0.358 OA 
BRANCH   8  12
ATOM     12  CB  GLU A   1      -8.525   6.847  71.988  1.00  0.00    -0.110 C  
BRANCH  12  13
ATOM     13  CG  GLU A   1      -8.146   8.323  71.872  1.00  0.00    -0.184 C  
ATOM     14  CD  GLU A   1      -6.914   8.533  71.030  1.00  0.00    -0.062 C  
ATOM     15  OE2 GLU A   1      -5.869   8.991  71.466  1.00  0.00    -0.051 OA 
ATOM     16  OE1 GLU A   1      -7.080   8.209  69.731  1.00  0.00    -0.057 OA 
ENDBRANCH  12  13
ENDBRANCH   8  12
ENDBRANCH   6   8
ENDBRANCH   2   6
TORSDOF 4
ENDMDL
MODEL      262
REMARK 921   NORMALIZED FREE ENERGY PREDICTED BY IDOCK:   -2.64 KCAL/MOL
REMARK 922        TOTAL FREE ENERGY PREDICTED BY IDOCK:   -3.10 KCAL/MOL
REMARK 923 INTER-LIGAND FREE ENERGY PREDICTED BY IDOCK:   -2.68 KCAL/MOL
REMARK 924 INTRA-LIGAND FREE ENERGY PREDICTED BY IDOCK:   -0.43 KCAL/MOL
REMARK 927      BINDING AFFINITY PREDICTED BY RF-SCORE:    0.00 PKD
ROOT
HETATM    1  N   UNK A   0      -8.012  11.861  69.000  1.00  0.00    -0.351 N  
HETATM    2  C   UNK A   0      -7.334  12.652  68.138  1.00  0.00    -0.112 C  
HETATM    3  H2  UNK A   0      -7.490  11.206  69.583  1.00  0.00     0.000 HD 
HETATM    4  H1  UNK A   0      -9.028  11.896  69.087  1.00  0.00     0.000 HD 
HETATM    5  O   UNK A   0      -6.117  12.609  68.034  1.00  0.00    -0.069 OA 
ENDROOT
BRANCH   2   6
ATOM      6  N   GLU A   1      -8.143  13.481  67.433  1.00  0.00    -0.206 N  
ATOM      7  H   GLU A   1      -7.981  13.607  66.434  1.00  0.00     0.000 HD 
BRANCH   6   8
ATOM      8  CA  GLU A   1      -9.241  14.194  68.073  1.00  0.00    -0.195 C  
ATOM      9  O   GLU A   1     -11.548  13.483  67.908  1.00  0.00    -0.300 OA 
ATOM     10  C   GLU A   1     -10.491  13.975  67.222  1.00  0.00    -0.268 C  
ATOM     11  OXT GLU A   1     -10.554  14.245  66.030  1.00  0.00    -0.288 OA 
BRANCH   8  12
ATOM     12  CB  GLU A   1      -8.933  15.693  68.184  1.00  0.00    -0.179 C  
BRANCH  12  13
ATOM     13  CG  GLU A   1      -8.185  16.220  66.960  1.00  0.00    -0.238 C  
ATOM     14  CD  GLU A   1      -6.856  16.831  67.321  1.00  0.00    -0.171 C  
ATOM     15  OE2 GLU A   1      -6.590  18.012  67.157  1.00  0.00    -0.174 OA 
ATOM     16  OE1 GLU A   1      -5.961  15.944  67.806  1.00  0.00    -0.125 OA 
ENDBRANCH  12  13
ENDBRANCH   8  12
ENDBRANCH   6   8
ENDBRANCH   2   6
TORSDOF 4
ENDMDL
MODEL      263
REMARK 921   NORMALIZED FREE ENERGY PREDICTED BY IDOCK:   -2.64 KCAL/MOL
REMARK 922        TOTAL FREE ENERGY PREDICTED BY IDOCK:   -3.10 KCAL/MOL
REMARK 923 INTER-LIGAND FREE ENERGY PREDICTED BY IDOCK:   -3.02 KCAL/MOL
REMARK 924 INTRA-LIGAND FREE ENERGY PREDICTED BY IDOCK:   -0.08 KCAL/MOL
REMARK 927      BINDING AFFINITY PREDICTED BY RF-SCORE:    0.00 PKD
ROOT
HETATM    1  N   UNK A   0     -11.433  11.913  66.833  1.00  0.00    -0.336 N  
HETATM    2  C   UNK A   0     -10.323  11.688  66.094  1.00  0.00    -0.241 C  
HETATM    3  H2  UNK A   0     -11.740  12.875  66.980  1.00  0.00     0.000 HD 
HETATM    4  H1  UNK A   0     -11.974  11.155  67.248  1.00  0.00     0.000 HD 
HETATM    5  O   UNK A   0      -9.675  12.597  65.596  1.00  0.00    -0.232 OA 
ENDROOT
BRANCH   2   6
ATOM      6  N   GLU A   1     -10.032  10.369  65.967  1.00  0.00    -0.229 N  
ATOM      7  H   GLU A   1      -9.741  10.007  65.059  1.00  0.00     0.000 HD 
BRANCH   6   8
ATOM      8  CA  GLU A   1     -10.125   9.460  67.102  1.00  0.00    -0.231 C  
ATOM      9  O   GLU A   1      -9.932  10.196  69.399  1.00  0.00    -0.204 OA 
ATOM     10  C   GLU A   1      -9.272  10.041  68.229  1.00  0.00    -0.129 C  
ATOM     11  OXT GLU A   1      -8.085  10.318  68.106  1.00  0.00    -0.107 OA 
BRANCH   8  12
ATOM     12  CB  GLU A   1      -9.623   8.059  66.728  1.00  0.00    -0.281 C  
BRANCH  12  13
ATOM     13  CG  GLU A   1     -10.675   6.982  66.985  1.00  0.00    -0.423 C  
ATOM     14  CD  GLU A   1     -10.193   5.607  66.599  1.00  0.00    -0.229 C  
ATOM     15  OE2 GLU A   1     -10.698   4.940  65.709  1.00  0.00    -0.270 OA 
ATOM     16  OE1 GLU A   1      -9.173   5.154  67.357  1.00  0.00    -0.113 OA 
ENDBRANCH  12  13
ENDBRANCH   8  12
ENDBRANCH   6   8
ENDBRANCH   2   6
TORSDOF 4
ENDMDL
MODEL      264
REMARK 921   NORMALIZED FREE ENERGY PREDICTED BY IDOCK:   -2.62 KCAL/MOL
REMARK 922        TOTAL FREE ENERGY PREDICTED BY IDOCK:   -3.08 KCAL/MOL
REMARK 923 INTER-LIGAND FREE ENERGY PREDICTED BY IDOCK:   -3.00 KCAL/MOL
REMARK 924 INTRA-LIGAND FREE ENERGY PREDICTED BY IDOCK:   -0.08 KCAL/MOL
REMARK 927      BINDING AFFINITY PREDICTED BY RF-SCORE:    0.00 PKD
ROOT
HETATM    1  N   UNK A   0      -6.965  10.168  68.799  1.00  0.00    -0.064 N  
HETATM    2  C   UNK A   0      -7.342  11.408  68.411  1.00  0.00    -0.095 C  
HETATM    3  H2  UNK A   0      -6.450  10.061  69.673  1.00  0.00     0.000 HD 
HETATM    4  H1  UNK A   0      -7.178   9.337  68.247  1.00  0.00     0.000 HD 
HETATM    5  O   UNK A   0      -7.087  12.404  69.071  1.00  0.00    -0.099 OA 
ENDROOT
BRANCH   2   6
ATOM      6  N   GLU A   1      -8.027  11.409  67.239  1.00  0.00    -0.141 N  
ATOM      7  H   GLU A   1      -7.520  11.548  66.365  1.00  0.00     0.000 HD 
BRANCH   6   8
ATOM      8  CA  GLU A   1      -9.470  11.216  67.205  1.00  0.00    -0.164 C  
ATOM      9  O   GLU A   1     -10.762  11.292  65.159  1.00  0.00    -0.288 OA 
ATOM     10  C   GLU A   1     -10.015  12.017  66.022  1.00  0.00    -0.234 C  
ATOM     11  OXT GLU A   1      -9.823  13.218  65.873  1.00  0.00    -0.277 OA 
BRANCH   8  12
ATOM     12  CB  GLU A   1     -10.121  11.694  68.510  1.00  0.00    -0.210 C  
BRANCH  12  13
ATOM     13  CG  GLU A   1     -11.364  10.881  68.866  1.00  0.00    -0.354 C  
ATOM     14  CD  GLU A   1     -11.771  11.057  70.306  1.00  0.00    -0.355 C  
ATOM     15  OE2 GLU A   1     -11.765  10.151  71.125  1.00  0.00    -0.352 OA 
ATOM     16  OE1 GLU A   1     -12.186  12.306  70.607  1.00  0.00    -0.371 OA 
ENDBRANCH  12  13
ENDBRANCH   8  12
ENDBRANCH   6   8
ENDBRANCH   2   6
TORSDOF 4
ENDMDL
MODEL      265
REMARK 921   NORMALIZED FREE ENERGY PREDICTED BY IDOCK:   -2.57 KCAL/MOL
REMARK 922        TOTAL FREE ENERGY PREDICTED BY IDOCK:   -3.01 KCAL/MOL
REMARK 923 INTER-LIGAND FREE ENERGY PREDICTED BY IDOCK:   -2.96 KCAL/MOL
REMARK 924 INTRA-LIGAND FREE ENERGY PREDICTED BY IDOCK:   -0.05 KCAL/MOL
REMARK 927      BINDING AFFINITY PREDICTED BY RF-SCORE:    0.00 PKD
ROOT
HETATM    1  N   UNK A   0      -7.219   8.098  70.946  1.00  0.00    -0.052 N  
HETATM    2  C   UNK A   0      -7.938   8.036  69.802  1.00  0.00    -0.115 C  
HETATM    3  H2  UNK A   0      -6.255   8.430  70.905  1.00  0.00     0.000 HD 
HETATM    4  H1  UNK A   0      -7.608   7.824  71.849  1.00  0.00     0.000 HD 
HETATM    5  O   UNK A   0      -7.473   8.365  68.721  1.00  0.00    -0.088 OA 
ENDROOT
BRANCH   2   6
ATOM      6  N   GLU A   1      -9.204   7.589  69.997  1.00  0.00    -0.151 N  
ATOM      7  H   GLU A   1      -9.677   7.087  69.246  1.00  0.00     0.000 HD 
BRANCH   6   8
ATOM      8  CA  GLU A   1      -9.900   7.811  71.258  1.00  0.00    -0.171 C  
ATOM      9  O   GLU A   1      -9.313   6.665  73.307  1.00  0.00    -0.130 OA 
ATOM     10  C   GLU A   1      -9.821   6.515  72.063  1.00  0.00    -0.158 C  
ATOM     11  OXT GLU A   1     -10.208   5.432  71.642  1.00  0.00    -0.195 OA 
BRANCH   8  12
ATOM     12  CB  GLU A   1     -11.367   8.195  71.017  1.00  0.00    -0.293 C  
BRANCH  12  13
ATOM     13  CG  GLU A   1     -12.225   8.003  72.266  1.00  0.00    -0.366 C  
ATOM     14  CD  GLU A   1     -13.667   8.371  72.031  1.00  0.00    -0.374 C  
ATOM     15  OE2 GLU A   1     -14.231   9.291  72.602  1.00  0.00    -0.498 OA 
ATOM     16  OE1 GLU A   1     -14.301   7.560  71.157  1.00  0.00    -0.370 OA 
ENDBRANCH  12  13
ENDBRANCH   8  12
ENDBRANCH   6   8
ENDBRANCH   2   6
TORSDOF 4
ENDMDL
MODEL      266
REMARK 921   NORMALIZED FREE ENERGY PREDICTED BY IDOCK:   -2.54 KCAL/MOL
REMARK 922        TOTAL FREE ENERGY PREDICTED BY IDOCK:   -2.98 KCAL/MOL
REMARK 923 INTER-LIGAND FREE ENERGY PREDICTED BY IDOCK:   -2.70 KCAL/MOL
REMARK 924 INTRA-LIGAND FREE ENERGY PREDICTED BY IDOCK:   -0.28 KCAL/MOL
REMARK 927      BINDING AFFINITY PREDICTED BY RF-SCORE:    0.00 PKD
ROOT
HETATM    1  N   UNK A   0      -9.786  10.936  69.614  1.00  0.00    -0.403 N  
HETATM    2  C   UNK A   0     -10.162   9.697  69.224  1.00  0.00    -0.205 C  
HETATM    3  H2  UNK A   0     -10.191  11.745  69.143  1.00  0.00     0.000 HD 
HETATM    4  H1  UNK A   0      -9.112  11.089  70.364  1.00  0.00     0.000 HD 
HETATM    5  O   UNK A   0     -10.970   9.513  68.326  1.00  0.00    -0.182 OA 
ENDROOT
BRANCH   2   6
ATOM      6  N   GLU A   1      -9.559   8.712  69.937  1.00  0.00    -0.170 N  
ATOM      7  H   GLU A   1      -9.526   7.768  69.554  1.00  0.00     0.000 HD 
BRANCH   6   8
ATOM      8  CA  GLU A   1      -8.958   8.978  71.237  1.00  0.00    -0.211 C  
ATOM      9  O   GLU A   1      -6.581   9.320  71.544  1.00  0.00    -0.208 OA 
ATOM     10  C   GLU A   1      -7.535   8.421  71.209  1.00  0.00    -0.089 C  
ATOM     11  OXT GLU A   1      -7.269   7.257  70.938  1.00  0.00    -0.067 OA 
BRANCH   8  12
ATOM     12  CB  GLU A   1      -9.763   8.314  72.362  1.00  0.00    -0.373 C  
BRANCH  12  13
ATOM     13  CG  GLU A   1     -10.327   6.958  71.944  1.00  0.00    -0.210 C  
ATOM     14  CD  GLU A   1      -9.944   5.859  72.901  1.00  0.00    -0.173 C  
ATOM     15  OE2 GLU A   1      -9.242   4.909  72.593  1.00  0.00    -0.130 OA 
ATOM     16  OE1 GLU A   1     -10.486   5.993  74.130  1.00  0.00    -0.279 OA 
ENDBRANCH  12  13
ENDBRANCH   8  12
ENDBRANCH   6   8
ENDBRANCH   2   6
TORSDOF 4
ENDMDL
MODEL      267
REMARK 921   NORMALIZED FREE ENERGY PREDICTED BY IDOCK:   -2.50 KCAL/MOL
REMARK 922        TOTAL FREE ENERGY PREDICTED BY IDOCK:   -2.92 KCAL/MOL
REMARK 923 INTER-LIGAND FREE ENERGY PREDICTED BY IDOCK:   -2.57 KCAL/MOL
REMARK 924 INTRA-LIGAND FREE ENERGY PREDICTED BY IDOCK:   -0.35 KCAL/MOL
REMARK 927      BINDING AFFINITY PREDICTED BY RF-SCORE:    0.00 PKD
ROOT
HETATM    1  N   UNK A   0      -6.063   8.163  69.635  1.00  0.00    -0.029 N  
HETATM    2  C   UNK A   0      -7.070   8.465  68.783  1.00  0.00    -0.068 C  
HETATM    3  H2  UNK A   0      -5.261   8.791  69.692  1.00  0.00     0.000 HD 
HETATM    4  H1  UNK A   0      -6.079   7.329  70.223  1.00  0.00     0.000 HD 
HETATM    5  O   UNK A   0      -7.051   9.464  68.079  1.00  0.00    -0.079 OA 
ENDROOT
BRANCH   2   6
ATOM      6  N   GLU A   1      -8.077   7.557  68.813  1.00  0.00    -0.126 N  
ATOM      7  H   GLU A   1      -8.194   6.914  68.030  1.00  0.00     0.000 HD 
BRANCH   6   8
ATOM      8  CA  GLU A   1      -8.996   7.481  69.941  1.00  0.00    -0.141 C  
ATOM      9  O   GLU A   1     -10.517   5.629  70.281  1.00  0.00    -0.246 OA 
ATOM     10  C   GLU A   1     -10.219   6.684  69.488  1.00  0.00    -0.183 C  
ATOM     11  OXT GLU A   1     -10.896   6.980  68.512  1.00  0.00    -0.198 OA 
BRANCH   8  12
ATOM     12  CB  GLU A   1      -9.420   8.883  70.401  1.00  0.00    -0.227 C  
BRANCH  12  13
ATOM     13  CG  GLU A   1     -10.256   8.842  71.679  1.00  0.00    -0.415 C  
ATOM     14  CD  GLU A   1      -9.561   8.105  72.794  1.00  0.00    -0.283 C  
ATOM     15  OE2 GLU A   1      -9.983   7.069  73.284  1.00  0.00    -0.184 OA 
ATOM     16  OE1 GLU A   1      -8.443   8.717  73.238  1.00  0.00    -0.395 OA 
ENDBRANCH  12  13
ENDBRANCH   8  12
ENDBRANCH   6   8
ENDBRANCH   2   6
TORSDOF 4
ENDMDL
MODEL      268
REMARK 921   NORMALIZED FREE ENERGY PREDICTED BY IDOCK:   -2.48 KCAL/MOL
REMARK 922        TOTAL FREE ENERGY PREDICTED BY IDOCK:   -2.91 KCAL/MOL
REMARK 923 INTER-LIGAND FREE ENERGY PREDICTED BY IDOCK:   -2.59 KCAL/MOL
REMARK 924 INTRA-LIGAND FREE ENERGY PREDICTED BY IDOCK:   -0.32 KCAL/MOL
REMARK 927      BINDING AFFINITY PREDICTED BY RF-SCORE:    0.00 PKD
ROOT
HETATM    1  N   UNK A   0      -8.293   4.359  67.004  1.00  0.00    -0.101 N  
HETATM    2  C   UNK A   0      -8.959   4.503  68.172  1.00  0.00    -0.116 C  
HETATM    3  H2  UNK A   0      -8.083   3.419  66.669  1.00  0.00     0.000 HD 
HETATM    4  H1  UNK A   0      -7.994   5.159  66.445  1.00  0.00     0.000 HD 
HETATM    5  O   UNK A   0      -9.317   3.545  68.841  1.00  0.00    -0.151 OA 
ENDROOT
BRANCH   2   6
ATOM      6  N   GLU A   1      -9.183   5.801  68.496  1.00  0.00    -0.120 N  
ATOM      7  H   GLU A   1      -9.008   6.527  67.801  1.00  0.00     0.000 HD 
BRANCH   6   8
ATOM      8  CA  GLU A   1      -9.669   6.179  69.817  1.00  0.00    -0.157 C  
ATOM      9  O   GLU A   1     -11.981   6.741  70.259  1.00  0.00    -0.352 OA 
ATOM     10  C   GLU A   1     -10.854   7.125  69.619  1.00  0.00    -0.234 C  
ATOM     11  OXT GLU A   1     -10.793   8.158  68.965  1.00  0.00    -0.133 OA 
BRANCH   8  12
ATOM     12  CB  GLU A   1      -8.568   6.875  70.630  1.00  0.00    -0.141 C  
BRANCH  12  13
ATOM     13  CG  GLU A   1      -8.861   6.856  72.129  1.00  0.00    -0.136 C  
ATOM     14  CD  GLU A   1      -9.003   8.243  72.702  1.00  0.00    -0.246 C  
ATOM     15  OE2 GLU A   1      -8.243   8.709  73.536  1.00  0.00    -0.404 OA 
ATOM     16  OE1 GLU A   1     -10.077   8.917  72.239  1.00  0.00    -0.294 OA 
ENDBRANCH  12  13
ENDBRANCH   8  12
ENDBRANCH   6   8
ENDBRANCH   2   6
TORSDOF 4
ENDMDL
MODEL      269
REMARK 921   NORMALIZED FREE ENERGY PREDICTED BY IDOCK:   -2.44 KCAL/MOL
REMARK 922        TOTAL FREE ENERGY PREDICTED BY IDOCK:   -2.86 KCAL/MOL
REMARK 923 INTER-LIGAND FREE ENERGY PREDICTED BY IDOCK:   -2.52 KCAL/MOL
REMARK 924 INTRA-LIGAND FREE ENERGY PREDICTED BY IDOCK:   -0.34 KCAL/MOL
REMARK 927      BINDING AFFINITY PREDICTED BY RF-SCORE:    0.00 PKD
ROOT
HETATM    1  N   UNK A   0      -9.487  14.300  66.597  1.00  0.00    -0.276 N  
HETATM    2  C   UNK A   0     -10.436  14.335  67.560  1.00  0.00    -0.252 C  
HETATM    3  H2  UNK A   0      -9.327  15.135  66.033  1.00  0.00     0.000 HD 
HETATM    4  H1  UNK A   0      -8.925  13.468  66.416  1.00  0.00     0.000 HD 
HETATM    5  O   UNK A   0     -11.109  15.332  67.777  1.00  0.00    -0.300 OA 
ENDROOT
BRANCH   2   6
ATOM      6  N   GLU A   1     -10.539  13.167  68.243  1.00  0.00    -0.241 N  
ATOM      7  H   GLU A   1     -11.082  13.140  69.106  1.00  0.00     0.000 HD 
BRANCH   6   8
ATOM      8  CA  GLU A   1      -9.892  11.952  67.767  1.00  0.00    -0.184 C  
ATOM      9  O   GLU A   1     -10.993  10.350  66.325  1.00  0.00    -0.030 OA 
ATOM     10  C   GLU A   1     -10.981  10.900  67.560  1.00  0.00    -0.293 C  
ATOM     11  OXT GLU A   1     -11.763  10.554  68.437  1.00  0.00    -0.365 OA 
BRANCH   8  12
ATOM     12  CB  GLU A   1      -8.856  11.447  68.781  1.00  0.00    -0.076 C  
BRANCH  12  13
ATOM     13  CG  GLU A   1      -7.553  11.019  68.108  1.00  0.00    -0.095 C  
ATOM     14  CD  GLU A   1      -6.505  12.101  68.150  1.00  0.00    -0.056 C  
ATOM     15  OE2 GLU A   1      -6.057  12.646  67.153  1.00  0.00    -0.259 OA 
ATOM     16  OE1 GLU A   1      -6.068  12.390  69.394  1.00  0.00    -0.090 OA 
ENDBRANCH  12  13
ENDBRANCH   8  12
ENDBRANCH   6   8
ENDBRANCH   2   6
TORSDOF 4
ENDMDL
MODEL      270
REMARK 921   NORMALIZED FREE ENERGY PREDICTED BY IDOCK:   -2.42 KCAL/MOL
REMARK 922        TOTAL FREE ENERGY PREDICTED BY IDOCK:   -2.82 KCAL/MOL
REMARK 923 INTER-LIGAND FREE ENERGY PREDICTED BY IDOCK:   -2.53 KCAL/MOL
REMARK 924 INTRA-LIGAND FREE ENERGY PREDICTED BY IDOCK:   -0.29 KCAL/MOL
REMARK 927      BINDING AFFINITY PREDICTED BY RF-SCORE:    0.00 PKD
ROOT
HETATM    1  N   UNK A   0      -7.713   8.883  66.325  1.00  0.00    -0.097 N  
HETATM    2  C   UNK A   0      -7.962   7.589  66.021  1.00  0.00    -0.113 C  
HETATM    3  H2  UNK A   0      -6.781   9.260  66.148  1.00  0.00     0.000 HD 
HETATM    4  H1  UNK A   0      -8.424   9.495  66.724  1.00  0.00     0.000 HD 
HETATM    5  O   UNK A   0      -7.109   6.855  65.543  1.00  0.00    -0.064 OA 
ENDROOT
BRANCH   2   6
ATOM      6  N   GLU A   1      -9.238   7.218  66.295  1.00  0.00    -0.268 N  
ATOM      7  H   GLU A   1     -10.003   7.629  65.760  1.00  0.00     0.000 HD 
BRANCH   6   8
ATOM      8  CA  GLU A   1      -9.538   6.244  67.336  1.00  0.00    -0.119 C  
ATOM      9  O   GLU A   1      -9.330   3.856  67.005  1.00  0.00    -0.162 OA 
ATOM     10  C   GLU A   1     -10.015   4.966  66.648  1.00  0.00    -0.229 C  
ATOM     11  OXT GLU A   1     -10.954   4.930  65.862  1.00  0.00    -0.248 OA 
BRANCH   8  12
ATOM     12  CB  GLU A   1     -10.623   6.770  68.286  1.00  0.00    -0.276 C  
BRANCH  12  13
ATOM     13  CG  GLU A   1     -10.168   8.013  69.048  1.00  0.00    -0.217 C  
ATOM     14  CD  GLU A   1     -10.931   8.207  70.333  1.00  0.00    -0.247 C  
ATOM     15  OE2 GLU A   1     -11.659   9.164  70.547  1.00  0.00    -0.263 OA 
ATOM     16  OE1 GLU A   1     -10.705   7.245  71.253  1.00  0.00    -0.224 OA 
ENDBRANCH  12  13
ENDBRANCH   8  12
ENDBRANCH   6   8
ENDBRANCH   2   6
TORSDOF 4
ENDMDL
MODEL      271
REMARK 921   NORMALIZED FREE ENERGY PREDICTED BY IDOCK:   -2.40 KCAL/MOL
REMARK 922        TOTAL FREE ENERGY PREDICTED BY IDOCK:   -2.80 KCAL/MOL
REMARK 923 INTER-LIGAND FREE ENERGY PREDICTED BY IDOCK:   -2.38 KCAL/MOL
REMARK 924 INTRA-LIGAND FREE ENERGY PREDICTED BY IDOCK:   -0.42 KCAL/MOL
REMARK 927      BINDING AFFINITY PREDICTED BY RF-SCORE:    0.00 PKD
ROOT
HETATM    1  N   UNK A   0     -11.735  12.196  66.886  1.00  0.00    -0.337 N  
HETATM    2  C   UNK A   0     -10.609  11.648  66.374  1.00  0.00    -0.258 C  
HETATM    3  H2  UNK A   0     -11.959  13.165  66.658  1.00  0.00     0.000 HD 
HETATM    4  H1  UNK A   0     -12.368  11.674  67.491  1.00  0.00     0.000 HD 
HETATM    5  O   UNK A   0      -9.851  12.274  65.649  1.00  0.00    -0.250 OA 
ENDROOT
BRANCH   2   6
ATOM      6  N   GLU A   1     -10.436  10.354  66.745  1.00  0.00    -0.237 N  
ATOM      7  H   GLU A   1     -10.806   9.612  66.152  1.00  0.00     0.000 HD 
BRANCH   6   8
ATOM      8  CA  GLU A   1      -9.732  10.006  67.971  1.00  0.00    -0.139 C  
ATOM      9  O   GLU A   1     -10.579   8.391  69.564  1.00  0.00    -0.227 OA 
ATOM     10  C   GLU A   1     -10.781   9.608  69.009  1.00  0.00    -0.211 C  
ATOM     11  OXT GLU A   1     -11.713  10.330  69.339  1.00  0.00    -0.194 OA 
BRANCH   8  12
ATOM     12  CB  GLU A   1      -8.903  11.190  68.486  1.00  0.00    -0.161 C  
BRANCH  12  13
ATOM     13  CG  GLU A   1      -7.424  10.838  68.633  1.00  0.00    -0.102 C  
ATOM     14  CD  GLU A   1      -6.818  10.359  67.340  1.00  0.00    -0.076 C  
ATOM     15  OE2 GLU A   1      -6.380   9.230  67.176  1.00  0.00    -0.061 OA 
ATOM     16  OE1 GLU A   1      -6.762  11.306  66.380  1.00  0.00    -0.128 OA 
ENDBRANCH  12  13
ENDBRANCH   8  12
ENDBRANCH   6   8
ENDBRANCH   2   6
TORSDOF 4
ENDMDL
MODEL      272
REMARK 921   NORMALIZED FREE ENERGY PREDICTED BY IDOCK:   -2.39 KCAL/MOL
REMARK 922        TOTAL FREE ENERGY PREDICTED BY IDOCK:   -2.79 KCAL/MOL
REMARK 923 INTER-LIGAND FREE ENERGY PREDICTED BY IDOCK:   -2.22 KCAL/MOL
REMARK 924 INTRA-LIGAND FREE ENERGY PREDICTED BY IDOCK:   -0.57 KCAL/MOL
REMARK 927      BINDING AFFINITY PREDICTED BY RF-SCORE:    0.00 PKD
ROOT
HETATM    1  N   UNK A   0      -6.902   8.012  67.066  1.00  0.00    -0.071 N  
HETATM    2  C   UNK A   0      -7.820   7.292  66.381  1.00  0.00    -0.106 C  
HETATM    3  H2  UNK A   0      -5.965   7.626  67.189  1.00  0.00     0.000 HD 
HETATM    4  H1  UNK A   0      -7.114   8.927  67.464  1.00  0.00     0.000 HD 
HETATM    5  O   UNK A   0      -7.566   6.196  65.904  1.00  0.00    -0.083 OA 
ENDROOT
BRANCH   2   6
ATOM      6  N   GLU A   1      -9.018   7.922  66.282  1.00  0.00    -0.164 N  
ATOM      7  H   GLU A   1      -9.362   8.197  65.362  1.00  0.00     0.000 HD 
BRANCH   6   8
ATOM      8  CA  GLU A   1      -9.821   8.212  67.462  1.00  0.00    -0.177 C  
ATOM      9  O   GLU A   1     -10.477   6.516  69.059  1.00  0.00    -0.182 OA 
ATOM     10  C   GLU A   1     -10.629   6.957  67.789  1.00  0.00    -0.244 C  
ATOM     11  OXT GLU A   1     -11.376   6.405  66.991  1.00  0.00    -0.314 OA 
BRANCH   8  12
ATOM     12  CB  GLU A   1     -10.764   9.396  67.208  1.00  0.00    -0.258 C  
BRANCH  12  13
ATOM     13  CG  GLU A   1     -10.219  10.701  67.787  1.00  0.00    -0.212 C  
ATOM     14  CD  GLU A   1      -8.783  10.943  67.400  1.00  0.00    -0.130 C  
ATOM     15  OE2 GLU A   1      -7.866  10.985  68.205  1.00  0.00    -0.106 OA 
ATOM     16  OE1 GLU A   1      -8.602  11.153  66.079  1.00  0.00    -0.172 OA 
ENDBRANCH  12  13
ENDBRANCH   8  12
ENDBRANCH   6   8
ENDBRANCH   2   6
TORSDOF 4
ENDMDL
MODEL      273
REMARK 921   NORMALIZED FREE ENERGY PREDICTED BY IDOCK:   -2.36 KCAL/MOL
REMARK 922        TOTAL FREE ENERGY PREDICTED BY IDOCK:   -2.75 KCAL/MOL
REMARK 923 INTER-LIGAND FREE ENERGY PREDICTED BY IDOCK:   -3.32 KCAL/MOL
REMARK 924 INTRA-LIGAND FREE ENERGY PREDICTED BY IDOCK:    0.57 KCAL/MOL
REMARK 927      BINDING AFFINITY PREDICTED BY RF-SCORE:    0.00 PKD
ROOT
HETATM    1  N   UNK A   0     -11.141  16.391  69.120  1.00  0.00    -0.316 N  
HETATM    2  C   UNK A   0     -11.296  15.509  70.134  1.00  0.00    -0.326 C  
HETATM    3  H2  UNK A   0     -11.414  17.363  69.268  1.00  0.00     0.000 HD 
HETATM    4  H1  UNK A   0     -10.760  16.118  68.215  1.00  0.00     0.000 HD 
HETATM    5  O   UNK A   0     -11.752  15.836  71.220  1.00  0.00    -0.362 OA 
ENDROOT
BRANCH   2   6
ATOM      6  N   GLU A   1     -10.886  14.256  69.812  1.00  0.00    -0.454 N  
ATOM      7  H   GLU A   1     -10.950  13.515  70.509  1.00  0.00     0.000 HD 
BRANCH   6   8
ATOM      8  CA  GLU A   1     -10.358  13.949  68.489  1.00  0.00    -0.244 C  
ATOM      9  O   GLU A   1     -11.310  12.251  67.051  1.00  0.00    -0.293 OA 
ATOM     10  C   GLU A   1     -10.647  12.475  68.208  1.00  0.00    -0.231 C  
ATOM     11  OXT GLU A   1     -10.289  11.563  68.943  1.00  0.00    -0.209 OA 
BRANCH   8  12
ATOM     12  CB  GLU A   1      -8.847  14.213  68.425  1.00  0.00    -0.187 C  
BRANCH  12  13
ATOM     13  CG  GLU A   1      -8.051  12.940  68.142  1.00  0.00    -0.158 C  
ATOM     14  CD  GLU A   1      -6.564  13.176  68.172  1.00  0.00    -0.107 C  
ATOM     15  OE2 GLU A   1      -5.839  13.043  67.198  1.00  0.00    -0.341 OA 
ATOM     16  OE1 GLU A   1      -6.089  13.509  69.391  1.00  0.00    -0.091 OA 
ENDBRANCH  12  13
ENDBRANCH   8  12
ENDBRANCH   6   8
ENDBRANCH   2   6
TORSDOF 4
ENDMDL
MODEL      274
REMARK 921   NORMALIZED FREE ENERGY PREDICTED BY IDOCK:   -2.35 KCAL/MOL
REMARK 922        TOTAL FREE ENERGY PREDICTED BY IDOCK:   -2.75 KCAL/MOL
REMARK 923 INTER-LIGAND FREE ENERGY PREDICTED BY IDOCK:   -2.11 KCAL/MOL
REMARK 924 INTRA-LIGAND FREE ENERGY PREDICTED BY IDOCK:   -0.64 KCAL/MOL
REMARK 927      BINDING AFFINITY PREDICTED BY RF-SCORE:    0.00 PKD
ROOT
HETATM    1  N   UNK A   0      -6.276   9.275  68.547  1.00  0.00    -0.048 N  
HETATM    2  C   UNK A   0      -7.224   9.586  67.633  1.00  0.00    -0.082 C  
HETATM    3  H2  UNK A   0      -5.298   9.464  68.326  1.00  0.00     0.000 HD 
HETATM    4  H1  UNK A   0      -6.506   8.858  69.449  1.00  0.00     0.000 HD 
HETATM    5  O   UNK A   0      -6.948  10.085  66.552  1.00  0.00    -0.089 OA 
ENDROOT
BRANCH   2   6
ATOM      6  N   GLU A   1      -8.480   9.295  68.054  1.00  0.00    -0.120 N  
ATOM      7  H   GLU A   1      -9.148  10.053  68.192  1.00  0.00     0.000 HD 
BRANCH   6   8
ATOM      8  CA  GLU A   1      -8.894   7.922  68.313  1.00  0.00    -0.129 C  
ATOM      9  O   GLU A   1      -9.422   6.351  66.550  1.00  0.00    -0.159 OA 
ATOM     10  C   GLU A   1      -9.807   7.492  67.166  1.00  0.00    -0.201 C  
ATOM     11  OXT GLU A   1     -10.818   8.101  66.840  1.00  0.00    -0.250 OA 
BRANCH   8  12
ATOM     12  CB  GLU A   1      -9.640   7.815  69.650  1.00  0.00    -0.163 C  
BRANCH  12  13
ATOM     13  CG  GLU A   1      -9.343   8.996  70.572  1.00  0.00    -0.262 C  
ATOM     14  CD  GLU A   1      -8.430   8.618  71.711  1.00  0.00    -0.155 C  
ATOM     15  OE2 GLU A   1      -8.766   8.651  72.884  1.00  0.00    -0.384 OA 
ATOM     16  OE1 GLU A   1      -7.184   8.278  71.320  1.00  0.00    -0.060 OA 
ENDBRANCH  12  13
ENDBRANCH   8  12
ENDBRANCH   6   8
ENDBRANCH   2   6
TORSDOF 4
ENDMDL
MODEL      275
REMARK 921   NORMALIZED FREE ENERGY PREDICTED BY IDOCK:   -2.35 KCAL/MOL
REMARK 922        TOTAL FREE ENERGY PREDICTED BY IDOCK:   -2.74 KCAL/MOL
REMARK 923 INTER-LIGAND FREE ENERGY PREDICTED BY IDOCK:   -2.12 KCAL/MOL
REMARK 924 INTRA-LIGAND FREE ENERGY PREDICTED BY IDOCK:   -0.62 KCAL/MOL
REMARK 927      BINDING AFFINITY PREDICTED BY RF-SCORE:    0.00 PKD
ROOT
HETATM    1  N   UNK A   0      -8.630   8.273  71.710  1.00  0.00    -0.146 N  
HETATM    2  C   UNK A   0      -9.732   8.649  71.022  1.00  0.00    -0.210 C  
HETATM    3  H2  UNK A   0      -8.522   8.583  72.676  1.00  0.00     0.000 HD 
HETATM    4  H1  UNK A   0      -7.903   7.689  71.297  1.00  0.00     0.000 HD 
HETATM    5  O   UNK A   0     -10.603   9.348  71.517  1.00  0.00    -0.341 OA 
ENDROOT
BRANCH   2   6
ATOM      6  N   GLU A   1      -9.756   8.161  69.756  1.00  0.00    -0.172 N  
ATOM      7  H   GLU A   1     -10.036   7.194  69.599  1.00  0.00     0.000 HD 
BRANCH   6   8
ATOM      8  CA  GLU A   1      -9.391   8.993  68.617  1.00  0.00    -0.136 C  
ATOM      9  O   GLU A   1     -11.025  10.052  67.180  1.00  0.00    -0.226 OA 
ATOM     10  C   GLU A   1     -10.506   8.869  67.579  1.00  0.00    -0.269 C  
ATOM     11  OXT GLU A   1     -10.886   7.800  67.118  1.00  0.00    -0.313 OA 
BRANCH   8  12
ATOM     12  CB  GLU A   1      -8.054   8.542  68.012  1.00  0.00    -0.115 C  
BRANCH  12  13
ATOM     13  CG  GLU A   1      -7.709   7.102  68.387  1.00  0.00    -0.120 C  
ATOM     14  CD  GLU A   1      -6.354   6.989  69.039  1.00  0.00    -0.028 C  
ATOM     15  OE2 GLU A   1      -5.419   6.377  68.548  1.00  0.00    -0.010 OA 
ATOM     16  OE1 GLU A   1      -6.277   7.594  70.243  1.00  0.00    -0.033 OA 
ENDBRANCH  12  13
ENDBRANCH   8  12
ENDBRANCH   6   8
ENDBRANCH   2   6
TORSDOF 4
ENDMDL
MODEL      276
REMARK 921   NORMALIZED FREE ENERGY PREDICTED BY IDOCK:   -2.30 KCAL/MOL
REMARK 922        TOTAL FREE ENERGY PREDICTED BY IDOCK:   -2.68 KCAL/MOL
REMARK 923 INTER-LIGAND FREE ENERGY PREDICTED BY IDOCK:   -2.30 KCAL/MOL
REMARK 924 INTRA-LIGAND FREE ENERGY PREDICTED BY IDOCK:   -0.38 KCAL/MOL
REMARK 927      BINDING AFFINITY PREDICTED BY RF-SCORE:    0.00 PKD
ROOT
HETATM    1  N   UNK A   0      -8.629   8.279  71.714  1.00  0.00    -0.146 N  
HETATM    2  C   UNK A   0      -9.731   8.664  71.030  1.00  0.00    -0.210 C  
HETATM    3  H2  UNK A   0      -8.525   8.571  72.686  1.00  0.00     0.000 HD 
HETATM    4  H1  UNK A   0      -7.898   7.706  71.292  1.00  0.00     0.000 HD 
HETATM    5  O   UNK A   0     -10.606   9.350  71.537  1.00  0.00    -0.341 OA 
ENDROOT
BRANCH   2   6
ATOM      6  N   GLU A   1      -9.750   8.200  69.756  1.00  0.00    -0.172 N  
ATOM      7  H   GLU A   1     -10.025   7.234  69.580  1.00  0.00     0.000 HD 
BRANCH   6   8
ATOM      8  CA  GLU A   1      -9.387   9.055  68.633  1.00  0.00    -0.136 C  
ATOM      9  O   GLU A   1     -11.026  10.138  67.218  1.00  0.00    -0.266 OA 
ATOM     10  C   GLU A   1     -10.502   8.948  67.593  1.00  0.00    -0.255 C  
ATOM     11  OXT GLU A   1     -10.879   7.887  67.111  1.00  0.00    -0.296 OA 
BRANCH   8  12
ATOM     12  CB  GLU A   1      -8.049   8.620  68.020  1.00  0.00    -0.111 C  
BRANCH  12  13
ATOM     13  CG  GLU A   1      -7.400   9.737  67.204  1.00  0.00    -0.087 C  
ATOM     14  CD  GLU A   1      -7.091   9.310  65.793  1.00  0.00    -0.086 C  
ATOM     15  OE2 GLU A   1      -5.959   9.236  65.342  1.00  0.00    -0.060 OA 
ATOM     16  OE1 GLU A   1      -8.188   9.054  65.048  1.00  0.00    -0.135 OA 
ENDBRANCH  12  13
ENDBRANCH   8  12
ENDBRANCH   6   8
ENDBRANCH   2   6
TORSDOF 4
ENDMDL
MODEL      277
REMARK 921   NORMALIZED FREE ENERGY PREDICTED BY IDOCK:   -2.28 KCAL/MOL
REMARK 922        TOTAL FREE ENERGY PREDICTED BY IDOCK:   -2.66 KCAL/MOL
REMARK 923 INTER-LIGAND FREE ENERGY PREDICTED BY IDOCK:   -2.36 KCAL/MOL
REMARK 924 INTRA-LIGAND FREE ENERGY PREDICTED BY IDOCK:   -0.30 KCAL/MOL
REMARK 927      BINDING AFFINITY PREDICTED BY RF-SCORE:    0.00 PKD
ROOT
HETATM    1  N   UNK A   0      -7.496   9.195  68.005  1.00  0.00    -0.084 N  
HETATM    2  C   UNK A   0      -8.602   8.418  68.057  1.00  0.00    -0.135 C  
HETATM    3  H2  UNK A   0      -7.594  10.175  67.738  1.00  0.00     0.000 HD 
HETATM    4  H1  UNK A   0      -6.567   8.835  68.224  1.00  0.00     0.000 HD 
HETATM    5  O   UNK A   0      -9.715   8.849  67.795  1.00  0.00    -0.151 OA 
ENDROOT
BRANCH   2   6
ATOM      6  N   GLU A   1      -8.334   7.143  68.436  1.00  0.00    -0.124 N  
ATOM      7  H   GLU A   1      -7.415   6.917  68.814  1.00  0.00     0.000 HD 
BRANCH   6   8
ATOM      8  CA  GLU A   1      -9.334   6.091  68.313  1.00  0.00    -0.116 C  
ATOM      9  O   GLU A   1     -11.531   6.236  69.319  1.00  0.00    -0.411 OA 
ATOM     10  C   GLU A   1     -10.205   6.134  69.568  1.00  0.00    -0.198 C  
ATOM     11  OXT GLU A   1      -9.758   6.053  70.705  1.00  0.00    -0.170 OA 
BRANCH   8  12
ATOM     12  CB  GLU A   1      -8.671   4.713  68.177  1.00  0.00    -0.113 C  
BRANCH  12  13
ATOM     13  CG  GLU A   1      -9.429   3.801  67.215  1.00  0.00    -0.238 C  
ATOM     14  CD  GLU A   1      -9.694   4.463  65.887  1.00  0.00    -0.211 C  
ATOM     15  OE2 GLU A   1     -10.813   4.714  65.470  1.00  0.00    -0.278 OA 
ATOM     16  OE1 GLU A   1      -8.577   4.717  65.173  1.00  0.00    -0.128 OA 
ENDBRANCH  12  13
ENDBRANCH   8  12
ENDBRANCH   6   8
ENDBRANCH   2   6
TORSDOF 4
ENDMDL
MODEL      278
REMARK 921   NORMALIZED FREE ENERGY PREDICTED BY IDOCK:   -2.26 KCAL/MOL
REMARK 922        TOTAL FREE ENERGY PREDICTED BY IDOCK:   -2.63 KCAL/MOL
REMARK 923 INTER-LIGAND FREE ENERGY PREDICTED BY IDOCK:   -2.37 KCAL/MOL
REMARK 924 INTRA-LIGAND FREE ENERGY PREDICTED BY IDOCK:   -0.26 KCAL/MOL
REMARK 927      BINDING AFFINITY PREDICTED BY RF-SCORE:    0.00 PKD
ROOT
HETATM    1  N   UNK A   0      -7.614   8.971  71.119  1.00  0.00    -0.120 N  
HETATM    2  C   UNK A   0      -8.436   8.137  70.441  1.00  0.00    -0.129 C  
HETATM    3  H2  UNK A   0      -6.953   9.544  70.595  1.00  0.00     0.000 HD 
HETATM    4  H1  UNK A   0      -7.634   9.046  72.136  1.00  0.00     0.000 HD 
HETATM    5  O   UNK A   0      -8.413   8.046  69.223  1.00  0.00    -0.132 OA 
ENDROOT
BRANCH   2   6
ATOM      6  N   GLU A   1      -9.271   7.442  71.254  1.00  0.00    -0.150 N  
ATOM      7  H   GLU A   1      -9.471   7.800  72.188  1.00  0.00     0.000 HD 
BRANCH   6   8
ATOM      8  CA  GLU A   1      -9.889   6.196  70.819  1.00  0.00    -0.186 C  
ATOM      9  O   GLU A   1     -11.438   6.070  68.964  1.00  0.00    -0.275 OA 
ATOM     10  C   GLU A   1     -11.251   6.541  70.218  1.00  0.00    -0.374 C  
ATOM     11  OXT GLU A   1     -12.117   7.164  70.819  1.00  0.00    -0.331 OA 
BRANCH   8  12
ATOM     12  CB  GLU A   1     -10.061   5.227  71.997  1.00  0.00    -0.247 C  
BRANCH  12  13
ATOM     13  CG  GLU A   1      -9.893   3.769  71.572  1.00  0.00    -0.235 C  
ATOM     14  CD  GLU A   1      -8.578   3.189  72.026  1.00  0.00    -0.077 C  
ATOM     15  OE2 GLU A   1      -7.706   2.813  71.259  1.00  0.00    -0.043 OA 
ATOM     16  OE1 GLU A   1      -8.463   3.081  73.367  1.00  0.00    -0.072 OA 
ENDBRANCH  12  13
ENDBRANCH   8  12
ENDBRANCH   6   8
ENDBRANCH   2   6
TORSDOF 4
ENDMDL
MODEL      279
REMARK 921   NORMALIZED FREE ENERGY PREDICTED BY IDOCK:   -2.25 KCAL/MOL
REMARK 922        TOTAL FREE ENERGY PREDICTED BY IDOCK:   -2.61 KCAL/MOL
REMARK 923 INTER-LIGAND FREE ENERGY PREDICTED BY IDOCK:   -2.75 KCAL/MOL
REMARK 924 INTRA-LIGAND FREE ENERGY PREDICTED BY IDOCK:    0.14 KCAL/MOL
REMARK 927      BINDING AFFINITY PREDICTED BY RF-SCORE:    0.00 PKD
ROOT
HETATM    1  N   UNK A   0     -11.602   9.769  71.267  1.00  0.00    -0.373 N  
HETATM    2  C   UNK A   0     -10.669   9.373  70.371  1.00  0.00    -0.263 C  
HETATM    3  H2  UNK A   0     -11.680  10.761  71.492  1.00  0.00     0.000 HD 
HETATM    4  H1  UNK A   0     -12.232   9.109  71.725  1.00  0.00     0.000 HD 
HETATM    5  O   UNK A   0      -9.915  10.163  69.823  1.00  0.00    -0.231 OA 
ENDROOT
BRANCH   2   6
ATOM      6  N   GLU A   1     -10.679   8.034  70.155  1.00  0.00    -0.242 N  
ATOM      7  H   GLU A   1     -10.687   7.683  69.197  1.00  0.00     0.000 HD 
BRANCH   6   8
ATOM      8  CA  GLU A   1     -10.679   7.087  71.262  1.00  0.00    -0.221 C  
ATOM      9  O   GLU A   1     -10.529   7.770  73.579  1.00  0.00    -0.311 OA 
ATOM     10  C   GLU A   1      -9.870   7.708  72.400  1.00  0.00    -0.181 C  
ATOM     11  OXT GLU A   1      -8.714   8.094  72.276  1.00  0.00    -0.146 OA 
BRANCH   8  12
ATOM     12  CB  GLU A   1     -10.058   5.748  70.842  1.00  0.00    -0.256 C  
BRANCH  12  13
ATOM     13  CG  GLU A   1     -10.149   4.698  71.948  1.00  0.00    -0.266 C  
ATOM     14  CD  GLU A   1      -8.833   4.002  72.185  1.00  0.00    -0.106 C  
ATOM     15  OE2 GLU A   1      -8.656   2.810  71.991  1.00  0.00    -0.065 OA 
ATOM     16  OE1 GLU A   1      -7.870   4.810  72.677  1.00  0.00    -0.090 OA 
ENDBRANCH  12  13
ENDBRANCH   8  12
ENDBRANCH   6   8
ENDBRANCH   2   6
TORSDOF 4
ENDMDL
MODEL      280
REMARK 921   NORMALIZED FREE ENERGY PREDICTED BY IDOCK:   -2.21 KCAL/MOL
REMARK 922        TOTAL FREE ENERGY PREDICTED BY IDOCK:   -2.56 KCAL/MOL
REMARK 923 INTER-LIGAND FREE ENERGY PREDICTED BY IDOCK:   -2.30 KCAL/MOL
REMARK 924 INTRA-LIGAND FREE ENERGY PREDICTED BY IDOCK:   -0.27 KCAL/MOL
REMARK 927      BINDING AFFINITY PREDICTED BY RF-SCORE:    0.00 PKD
ROOT
HETATM    1  N   UNK A   0      -9.528   3.911  69.538  1.00  0.00    -0.178 N  
HETATM    2  C   UNK A   0      -8.784   4.441  70.536  1.00  0.00    -0.082 C  
HETATM    3  H2  UNK A   0      -9.190   3.075  69.062  1.00  0.00     0.000 HD 
HETATM    4  H1  UNK A   0     -10.416   4.320  69.245  1.00  0.00     0.000 HD 
HETATM    5  O   UNK A   0      -7.721   3.951  70.887  1.00  0.00    -0.050 OA 
ENDROOT
BRANCH   2   6
ATOM      6  N   GLU A   1      -9.351   5.541  71.090  1.00  0.00    -0.148 N  
ATOM      7  H   GLU A   1      -9.642   6.311  70.488  1.00  0.00     0.000 HD 
BRANCH   6   8
ATOM      8  CA  GLU A   1      -9.552   5.646  72.530  1.00  0.00    -0.151 C  
ATOM      9  O   GLU A   1     -11.262   4.410  73.715  1.00  0.00    -0.266 OA 
ATOM     10  C   GLU A   1     -11.032   5.387  72.809  1.00  0.00    -0.277 C  
ATOM     11  OXT GLU A   1     -11.940   6.022  72.287  1.00  0.00    -0.318 OA 
BRANCH   8  12
ATOM     12  CB  GLU A   1      -9.153   7.038  73.041  1.00  0.00    -0.156 C  
BRANCH  12  13
ATOM     13  CG  GLU A   1      -8.435   7.860  71.973  1.00  0.00    -0.169 C  
ATOM     14  CD  GLU A   1      -9.395   8.575  71.059  1.00  0.00    -0.185 C  
ATOM     15  OE2 GLU A   1      -9.487   8.344  69.863  1.00  0.00    -0.164 OA 
ATOM     16  OE1 GLU A   1     -10.123   9.532  71.673  1.00  0.00    -0.153 OA 
ENDBRANCH  12  13
ENDBRANCH   8  12
ENDBRANCH   6   8
ENDBRANCH   2   6
TORSDOF 4
ENDMDL
MODEL      281
REMARK 921   NORMALIZED FREE ENERGY PREDICTED BY IDOCK:   -2.20 KCAL/MOL
REMARK 922        TOTAL FREE ENERGY PREDICTED BY IDOCK:   -2.55 KCAL/MOL
REMARK 923 INTER-LIGAND FREE ENERGY PREDICTED BY IDOCK:   -2.23 KCAL/MOL
REMARK 924 INTRA-LIGAND FREE ENERGY PREDICTED BY IDOCK:   -0.32 KCAL/MOL
REMARK 927      BINDING AFFINITY PREDICTED BY RF-SCORE:    0.00 PKD
ROOT
HETATM    1  N   UNK A   0      -9.554   3.895  69.571  1.00  0.00    -0.193 N  
HETATM    2  C   UNK A   0      -8.882   4.408  70.627  1.00  0.00    -0.095 C  
HETATM    3  H2  UNK A   0      -9.121   3.147  69.028  1.00  0.00     0.000 HD 
HETATM    4  H1  UNK A   0     -10.478   4.229  69.299  1.00  0.00     0.000 HD 
HETATM    5  O   UNK A   0      -7.774   4.007  70.952  1.00  0.00    -0.050 OA 
ENDROOT
BRANCH   2   6
ATOM      6  N   GLU A   1      -9.572   5.385  71.268  1.00  0.00    -0.153 N  
ATOM      7  H   GLU A   1     -10.586   5.429  71.166  1.00  0.00     0.000 HD 
BRANCH   6   8
ATOM      8  CA  GLU A   1      -8.894   6.371  72.098  1.00  0.00    -0.136 C  
ATOM      9  O   GLU A   1      -7.867   5.824  74.221  1.00  0.00    -0.101 OA 
ATOM     10  C   GLU A   1      -9.039   5.927  73.554  1.00  0.00    -0.131 C  
ATOM     11  OXT GLU A   1     -10.118   5.708  74.090  1.00  0.00    -0.202 OA 
BRANCH   8  12
ATOM     12  CB  GLU A   1      -9.506   7.765  71.908  1.00  0.00    -0.197 C  
BRANCH  12  13
ATOM     13  CG  GLU A   1     -10.569   7.783  70.811  1.00  0.00    -0.220 C  
ATOM     14  CD  GLU A   1     -11.920   7.349  71.317  1.00  0.00    -0.313 C  
ATOM     15  OE2 GLU A   1     -12.495   6.344  70.927  1.00  0.00    -0.114 OA 
ATOM     16  OE1 GLU A   1     -12.465   8.196  72.215  1.00  0.00    -0.329 OA 
ENDBRANCH  12  13
ENDBRANCH   8  12
ENDBRANCH   6   8
ENDBRANCH   2   6
TORSDOF 4
ENDMDL
MODEL      282
REMARK 921   NORMALIZED FREE ENERGY PREDICTED BY IDOCK:   -2.18 KCAL/MOL
REMARK 922        TOTAL FREE ENERGY PREDICTED BY IDOCK:   -2.53 KCAL/MOL
REMARK 923 INTER-LIGAND FREE ENERGY PREDICTED BY IDOCK:   -2.35 KCAL/MOL
REMARK 924 INTRA-LIGAND FREE ENERGY PREDICTED BY IDOCK:   -0.17 KCAL/MOL
REMARK 927      BINDING AFFINITY PREDICTED BY RF-SCORE:    0.00 PKD
ROOT
HETATM    1  N   UNK A   0      -9.653   3.128  70.567  1.00  0.00    -0.162 N  
HETATM    2  C   UNK A   0      -8.431   3.491  71.019  1.00  0.00    -0.067 C  
HETATM    3  H2  UNK A   0      -9.721   2.382  69.875  1.00  0.00     0.000 HD 
HETATM    4  H1  UNK A   0     -10.510   3.574  70.896  1.00  0.00     0.000 HD 
HETATM    5  O   UNK A   0      -7.405   2.957  70.625  1.00  0.00    -0.036 OA 
ENDROOT
BRANCH   2   6
ATOM      6  N   GLU A   1      -8.483   4.484  71.942  1.00  0.00    -0.111 N  
ATOM      7  H   GLU A   1      -8.218   4.284  72.906  1.00  0.00     0.000 HD 
BRANCH   6   8
ATOM      8  CA  GLU A   1      -8.908   5.831  71.583  1.00  0.00    -0.136 C  
ATOM      9  O   GLU A   1      -7.476   7.400  70.424  1.00  0.00    -0.082 OA 
ATOM     10  C   GLU A   1      -7.665   6.721  71.578  1.00  0.00    -0.096 C  
ATOM     11  OXT GLU A   1      -6.914   6.840  72.537  1.00  0.00    -0.063 OA 
BRANCH   8  12
ATOM     12  CB  GLU A   1      -9.938   6.368  72.586  1.00  0.00    -0.184 C  
BRANCH  12  13
ATOM     13  CG  GLU A   1     -11.318   5.745  72.385  1.00  0.00    -0.348 C  
ATOM     14  CD  GLU A   1     -12.132   6.478  71.350  1.00  0.00    -0.287 C  
ATOM     15  OE2 GLU A   1     -13.173   7.064  71.601  1.00  0.00    -0.374 OA 
ATOM     16  OE1 GLU A   1     -11.628   6.394  70.100  1.00  0.00    -0.408 OA 
ENDBRANCH  12  13
ENDBRANCH   8  12
ENDBRANCH   6   8
ENDBRANCH   2   6
TORSDOF 4
ENDMDL
MODEL      283
REMARK 921   NORMALIZED FREE ENERGY PREDICTED BY IDOCK:   -2.11 KCAL/MOL
REMARK 922        TOTAL FREE ENERGY PREDICTED BY IDOCK:   -2.45 KCAL/MOL
REMARK 923 INTER-LIGAND FREE ENERGY PREDICTED BY IDOCK:   -2.09 KCAL/MOL
REMARK 924 INTRA-LIGAND FREE ENERGY PREDICTED BY IDOCK:   -0.36 KCAL/MOL
REMARK 927      BINDING AFFINITY PREDICTED BY RF-SCORE:    0.00 PKD
ROOT
HETATM    1  N   UNK A   0      -7.948   8.256  68.499  1.00  0.00    -0.120 N  
HETATM    2  C   UNK A   0      -8.710   8.264  69.616  1.00  0.00    -0.138 C  
HETATM    3  H2  UNK A   0      -8.081   8.993  67.806  1.00  0.00     0.000 HD 
HETATM    4  H1  UNK A   0      -7.245   7.538  68.326  1.00  0.00     0.000 HD 
HETATM    5  O   UNK A   0      -9.553   9.125  69.824  1.00  0.00    -0.167 OA 
ENDROOT
BRANCH   2   6
ATOM      6  N   GLU A   1      -8.427   7.238  70.458  1.00  0.00    -0.136 N  
ATOM      7  H   GLU A   1      -7.480   7.140  70.823  1.00  0.00     0.000 HD 
BRANCH   6   8
ATOM      8  CA  GLU A   1      -9.448   6.276  70.850  1.00  0.00    -0.172 C  
ATOM      9  O   GLU A   1     -11.172   6.771  72.474  1.00  0.00    -0.256 OA 
ATOM     10  C   GLU A   1      -9.845   6.586  72.293  1.00  0.00    -0.156 C  
ATOM     11  OXT GLU A   1      -9.045   6.637  73.219  1.00  0.00    -0.127 OA 
BRANCH   8  12
ATOM     12  CB  GLU A   1      -8.919   4.839  70.745  1.00  0.00    -0.163 C  
BRANCH  12  13
ATOM     13  CG  GLU A   1      -9.692   4.013  69.719  1.00  0.00    -0.254 C  
ATOM     14  CD  GLU A   1      -9.231   4.276  68.308  1.00  0.00    -0.142 C  
ATOM     15  OE2 GLU A   1      -9.940   4.773  67.448  1.00  0.00    -0.179 OA 
ATOM     16  OE1 GLU A   1      -7.967   3.869  68.064  1.00  0.00    -0.079 OA 
ENDBRANCH  12  13
ENDBRANCH   8  12
ENDBRANCH   6   8
ENDBRANCH   2   6
TORSDOF 4
ENDMDL
MODEL      284
REMARK 921   NORMALIZED FREE ENERGY PREDICTED BY IDOCK:   -1.95 KCAL/MOL
REMARK 922        TOTAL FREE ENERGY PREDICTED BY IDOCK:   -2.25 KCAL/MOL
REMARK 923 INTER-LIGAND FREE ENERGY PREDICTED BY IDOCK:   -2.44 KCAL/MOL
REMARK 924 INTRA-LIGAND FREE ENERGY PREDICTED BY IDOCK:    0.19 KCAL/MOL
REMARK 927      BINDING AFFINITY PREDICTED BY RF-SCORE:    0.00 PKD
ROOT
HETATM    1  N   UNK A   0     -11.565   9.580  71.202  1.00  0.00    -0.336 N  
HETATM    2  C   UNK A   0     -11.059   9.560  69.947  1.00  0.00    -0.216 C  
HETATM    3  H2  UNK A   0     -11.604  10.467  71.703  1.00  0.00     0.000 HD 
HETATM    4  H1  UNK A   0     -11.908   8.737  71.663  1.00  0.00     0.000 HD 
HETATM    5  O   UNK A   0     -10.648  10.569  69.394  1.00  0.00    -0.213 OA 
ENDROOT
BRANCH   2   6
ATOM      6  N   GLU A   1     -11.074   8.323  69.390  1.00  0.00    -0.441 N  
ATOM      7  H   GLU A   1     -11.737   8.120  68.642  1.00  0.00     0.000 HD 
BRANCH   6   8
ATOM      8  CA  GLU A   1     -10.162   7.279  69.839  1.00  0.00    -0.205 C  
ATOM      9  O   GLU A   1      -8.311   7.703  71.339  1.00  0.00    -0.104 OA 
ATOM     10  C   GLU A   1      -8.806   7.934  70.102  1.00  0.00    -0.144 C  
ATOM     11  OXT GLU A   1      -8.197   8.588  69.265  1.00  0.00    -0.111 OA 
BRANCH   8  12
ATOM     12  CB  GLU A   1     -10.021   6.179  68.779  1.00  0.00    -0.175 C  
BRANCH  12  13
ATOM     13  CG  GLU A   1      -8.752   5.350  68.974  1.00  0.00    -0.103 C  
ATOM     14  CD  GLU A   1      -9.043   3.877  69.091  1.00  0.00    -0.136 C  
ATOM     15  OE2 GLU A   1      -8.821   3.222  70.098  1.00  0.00    -0.070 OA 
ATOM     16  OE1 GLU A   1      -9.537   3.327  67.961  1.00  0.00    -0.181 OA 
ENDBRANCH  12  13
ENDBRANCH   8  12
ENDBRANCH   6   8
ENDBRANCH   2   6
TORSDOF 4
ENDMDL
MODEL      285
REMARK 921   NORMALIZED FREE ENERGY PREDICTED BY IDOCK:   -1.83 KCAL/MOL
REMARK 922        TOTAL FREE ENERGY PREDICTED BY IDOCK:   -2.10 KCAL/MOL
REMARK 923 INTER-LIGAND FREE ENERGY PREDICTED BY IDOCK:   -1.82 KCAL/MOL
REMARK 924 INTRA-LIGAND FREE ENERGY PREDICTED BY IDOCK:   -0.28 KCAL/MOL
REMARK 927      BINDING AFFINITY PREDICTED BY RF-SCORE:    0.00 PKD
ROOT
HETATM    1  N   UNK A   0      -9.003  10.319  66.724  1.00  0.00    -0.133 N  
HETATM    2  C   UNK A   0     -10.062   9.494  66.887  1.00  0.00    -0.230 C  
HETATM    3  H2  UNK A   0      -9.170  11.286  66.444  1.00  0.00     0.000 HD 
HETATM    4  H1  UNK A   0      -8.043  10.008  66.872  1.00  0.00     0.000 HD 
HETATM    5  O   UNK A   0     -11.213   9.867  66.709  1.00  0.00     0.098 OA 
ENDROOT
BRANCH   2   6
ATOM      6  N   GLU A   1      -9.704   8.243  67.270  1.00  0.00    -0.163 N  
ATOM      7  H   GLU A   1     -10.322   7.460  67.058  1.00  0.00     0.000 HD 
BRANCH   6   8
ATOM      8  CA  GLU A   1      -8.454   7.996  67.977  1.00  0.00    -0.126 C  
ATOM      9  O   GLU A   1      -6.654   6.672  67.048  1.00  0.00    -0.044 OA 
ATOM     10  C   GLU A   1      -7.923   6.640  67.515  1.00  0.00    -0.115 C  
ATOM     11  OXT GLU A   1      -8.568   5.601  67.582  1.00  0.00    -0.110 OA 
BRANCH   8  12
ATOM     12  CB  GLU A   1      -8.674   7.987  69.496  1.00  0.00    -0.136 C  
BRANCH  12  13
ATOM     13  CG  GLU A   1     -10.143   7.786  69.865  1.00  0.00    -0.203 C  
ATOM     14  CD  GLU A   1     -10.357   6.556  70.709  1.00  0.00    -0.204 C  
ATOM     15  OE2 GLU A   1     -11.012   5.592  70.343  1.00  0.00    -0.285 OA 
ATOM     16  OE1 GLU A   1      -9.793   6.629  71.933  1.00  0.00    -0.167 OA 
ENDBRANCH  12  13
ENDBRANCH   8  12
ENDBRANCH   6   8
ENDBRANCH   2   6
TORSDOF 4
ENDMDL
MODEL      286
REMARK 921   NORMALIZED FREE ENERGY PREDICTED BY IDOCK:   -1.78 KCAL/MOL
REMARK 922        TOTAL FREE ENERGY PREDICTED BY IDOCK:   -2.04 KCAL/MOL
REMARK 923 INTER-LIGAND FREE ENERGY PREDICTED BY IDOCK:   -1.73 KCAL/MOL
REMARK 924 INTRA-LIGAND FREE ENERGY PREDICTED BY IDOCK:   -0.31 KCAL/MOL
REMARK 927      BINDING AFFINITY PREDICTED BY RF-SCORE:    0.00 PKD
ROOT
HETATM    1  N   UNK A   0      -6.175   7.416  67.308  1.00  0.00    -0.049 N  
HETATM    2  C   UNK A   0      -7.444   7.500  66.848  1.00  0.00    -0.098 C  
HETATM    3  H2  UNK A   0      -5.404   7.512  66.647  1.00  0.00     0.000 HD 
HETATM    4  H1  UNK A   0      -5.962   7.260  68.293  1.00  0.00     0.000 HD 
HETATM    5  O   UNK A   0      -7.698   7.687  65.667  1.00  0.00    -0.089 OA 
ENDROOT
BRANCH   2   6
ATOM      6  N   GLU A   1      -8.372   7.367  67.828  1.00  0.00    -0.118 N  
ATOM      7  H   GLU A   1      -8.820   8.200  68.208  1.00  0.00     0.000 HD 
BRANCH   6   8
ATOM      8  CA  GLU A   1      -8.741   6.057  68.349  1.00  0.00    -0.113 C  
ATOM      9  O   GLU A   1      -9.974   4.425  67.056  1.00  0.00    -0.206 OA 
ATOM     10  C   GLU A   1     -10.037   5.634  67.658  1.00  0.00    -0.172 C  
ATOM     11  OXT GLU A   1     -11.059   6.309  67.666  1.00  0.00    -0.341 OA 
BRANCH   8  12
ATOM     12  CB  GLU A   1      -8.944   6.106  69.869  1.00  0.00    -0.139 C  
BRANCH  12  13
ATOM     13  CG  GLU A   1      -7.630   6.309  70.621  1.00  0.00    -0.096 C  
ATOM     14  CD  GLU A   1      -7.841   6.880  71.999  1.00  0.00    -0.095 C  
ATOM     15  OE2 GLU A   1      -7.431   7.977  72.345  1.00  0.00    -0.094 OA 
ATOM     16  OE1 GLU A   1      -8.491   6.048  72.840  1.00  0.00    -0.118 OA 
ENDBRANCH  12  13
ENDBRANCH   8  12
ENDBRANCH   6   8
ENDBRANCH   2   6
TORSDOF 4
ENDMDL
MODEL      287
REMARK 921   NORMALIZED FREE ENERGY PREDICTED BY IDOCK:   -1.76 KCAL/MOL
REMARK 922        TOTAL FREE ENERGY PREDICTED BY IDOCK:   -2.01 KCAL/MOL
REMARK 923 INTER-LIGAND FREE ENERGY PREDICTED BY IDOCK:   -1.59 KCAL/MOL
REMARK 924 INTRA-LIGAND FREE ENERGY PREDICTED BY IDOCK:   -0.42 KCAL/MOL
REMARK 927      BINDING AFFINITY PREDICTED BY RF-SCORE:    0.00 PKD
ROOT
HETATM    1  N   UNK A   0      -8.893  10.142  66.257  1.00  0.00    -0.146 N  
HETATM    2  C   UNK A   0      -8.085   9.076  66.060  1.00  0.00    -0.111 C  
HETATM    3  H2  UNK A   0      -8.871  10.908  65.584  1.00  0.00     0.000 HD 
HETATM    4  H1  UNK A   0      -9.525  10.205  67.056  1.00  0.00     0.000 HD 
HETATM    5  O   UNK A   0      -7.328   9.000  65.103  1.00  0.00    -0.093 OA 
ENDROOT
BRANCH   2   6
ATOM      6  N   GLU A   1      -8.220   8.125  67.018  1.00  0.00    -0.114 N  
ATOM      7  H   GLU A   1      -7.785   8.270  67.929  1.00  0.00     0.000 HD 
BRANCH   6   8
ATOM      8  CA  GLU A   1      -8.973   6.903  66.772  1.00  0.00    -0.132 C  
ATOM      9  O   GLU A   1     -11.389   6.798  66.891  1.00  0.00    -0.318 OA 
ATOM     10  C   GLU A   1     -10.253   6.975  67.605  1.00  0.00    -0.193 C  
ATOM     11  OXT GLU A   1     -10.263   7.148  68.817  1.00  0.00    -0.168 OA 
BRANCH   8  12
ATOM     12  CB  GLU A   1      -8.157   5.664  67.165  1.00  0.00    -0.102 C  
BRANCH  12  13
ATOM     13  CG  GLU A   1      -6.871   6.032  67.902  1.00  0.00    -0.063 C  
ATOM     14  CD  GLU A   1      -6.885   5.578  69.339  1.00  0.00    -0.061 C  
ATOM     15  OE2 GLU A   1      -6.855   6.344  70.289  1.00  0.00    -0.051 OA 
ATOM     16  OE1 GLU A   1      -6.890   4.236  69.487  1.00  0.00    -0.043 OA 
ENDBRANCH  12  13
ENDBRANCH   8  12
ENDBRANCH   6   8
ENDBRANCH   2   6
TORSDOF 4
ENDMDL
MODEL      288
REMARK 921   NORMALIZED FREE ENERGY PREDICTED BY IDOCK:   -1.67 KCAL/MOL
REMARK 922        TOTAL FREE ENERGY PREDICTED BY IDOCK:   -1.90 KCAL/MOL
REMARK 923 INTER-LIGAND FREE ENERGY PREDICTED BY IDOCK:   -1.78 KCAL/MOL
REMARK 924 INTRA-LIGAND FREE ENERGY PREDICTED BY IDOCK:   -0.12 KCAL/MOL
REMARK 927      BINDING AFFINITY PREDICTED BY RF-SCORE:    0.00 PKD
ROOT
HETATM    1  N   UNK A   0      -5.663   7.473  67.317  1.00  0.00    -0.030 N  
HETATM    2  C   UNK A   0      -6.647   7.917  66.502  1.00  0.00    -0.054 C  
HETATM    3  H2  UNK A   0      -4.692   7.628  67.047  1.00  0.00     0.000 HD 
HETATM    4  H1  UNK A   0      -5.860   6.989  68.193  1.00  0.00     0.000 HD 
HETATM    5  O   UNK A   0      -6.411   8.497  65.452  1.00  0.00    -0.055 OA 
ENDROOT
BRANCH   2   6
ATOM      6  N   GLU A   1      -7.889   7.657  66.982  1.00  0.00    -0.110 N  
ATOM      7  H   GLU A   1      -8.633   7.407  66.331  1.00  0.00     0.000 HD 
BRANCH   6   8
ATOM      8  CA  GLU A   1      -8.180   7.728  68.407  1.00  0.00    -0.124 C  
ATOM      9  O   GLU A   1      -7.406   6.072  69.994  1.00  0.00    -0.071 OA 
ATOM     10  C   GLU A   1      -8.224   6.296  68.940  1.00  0.00    -0.113 C  
ATOM     11  OXT GLU A   1      -8.954   5.426  68.482  1.00  0.00    -0.107 OA 
BRANCH   8  12
ATOM     12  CB  GLU A   1      -9.522   8.428  68.661  1.00  0.00    -0.147 C  
BRANCH  12  13
ATOM     13  CG  GLU A   1      -9.459   9.924  68.358  1.00  0.00    -0.142 C  
ATOM     14  CD  GLU A   1     -10.824  10.520  68.129  1.00  0.00    -0.253 C  
ATOM     15  OE2 GLU A   1     -11.179  11.002  67.065  1.00  0.00    -0.308 OA 
ATOM     16  OE1 GLU A   1     -11.612  10.513  69.224  1.00  0.00    -0.261 OA 
ENDBRANCH  12  13
ENDBRANCH   8  12
ENDBRANCH   6   8
ENDBRANCH   2   6
TORSDOF 4
ENDMDL
MODEL      289
REMARK 921   NORMALIZED FREE ENERGY PREDICTED BY IDOCK:   -1.63 KCAL/MOL
REMARK 922        TOTAL FREE ENERGY PREDICTED BY IDOCK:   -1.86 KCAL/MOL
REMARK 923 INTER-LIGAND FREE ENERGY PREDICTED BY IDOCK:   -1.71 KCAL/MOL
REMARK 924 INTRA-LIGAND FREE ENERGY PREDICTED BY IDOCK:   -0.15 KCAL/MOL
REMARK 927      BINDING AFFINITY PREDICTED BY RF-SCORE:    0.00 PKD
ROOT
HETATM    1  N   UNK A   0      -6.463   7.360  67.334  1.00  0.00    -0.058 N  
HETATM    2  C   UNK A   0      -7.343   8.371  67.516  1.00  0.00    -0.093 C  
HETATM    3  H2  UNK A   0      -6.255   7.053  66.383  1.00  0.00     0.000 HD 
HETATM    4  H1  UNK A   0      -6.000   6.895  68.114  1.00  0.00     0.000 HD 
HETATM    5  O   UNK A   0      -7.899   8.928  66.581  1.00  0.00    -0.098 OA 
ENDROOT
BRANCH   2   6
ATOM      6  N   GLU A   1      -7.521   8.688  68.823  1.00  0.00    -0.090 N  
ATOM      7  H   GLU A   1      -6.803   8.433  69.501  1.00  0.00     0.000 HD 
BRANCH   6   8
ATOM      8  CA  GLU A   1      -8.717   9.385  69.278  1.00  0.00    -0.145 C  
ATOM      9  O   GLU A   1      -9.564  11.384  68.206  1.00  0.00    -0.179 OA 
ATOM     10  C   GLU A   1      -8.547  10.864  68.932  1.00  0.00    -0.140 C  
ATOM     11  OXT GLU A   1      -7.594  11.540  69.298  1.00  0.00    -0.049 OA 
BRANCH   8  12
ATOM     12  CB  GLU A   1      -8.912   9.216  70.790  1.00  0.00    -0.296 C  
BRANCH  12  13
ATOM     13  CG  GLU A   1      -8.521   7.818  71.268  1.00  0.00    -0.125 C  
ATOM     14  CD  GLU A   1      -7.496   7.857  72.372  1.00  0.00    -0.092 C  
ATOM     15  OE2 GLU A   1      -6.367   7.404  72.261  1.00  0.00    -0.043 OA 
ATOM     16  OE1 GLU A   1      -7.951   8.403  73.520  1.00  0.00    -0.305 OA 
ENDBRANCH  12  13
ENDBRANCH   8  12
ENDBRANCH   6   8
ENDBRANCH   2   6
TORSDOF 4
ENDMDL
MODEL      290
REMARK 921   NORMALIZED FREE ENERGY PREDICTED BY IDOCK:   -1.59 KCAL/MOL
REMARK 922        TOTAL FREE ENERGY PREDICTED BY IDOCK:   -1.81 KCAL/MOL
REMARK 923 INTER-LIGAND FREE ENERGY PREDICTED BY IDOCK:   -1.37 KCAL/MOL
REMARK 924 INTRA-LIGAND FREE ENERGY PREDICTED BY IDOCK:   -0.44 KCAL/MOL
REMARK 927      BINDING AFFINITY PREDICTED BY RF-SCORE:    0.00 PKD
ROOT
HETATM    1  N   UNK A   0      -8.299   7.894  68.162  1.00  0.00    -0.123 N  
HETATM    2  C   UNK A   0      -9.157   7.268  69.000  1.00  0.00    -0.133 C  
HETATM    3  H2  UNK A   0      -8.365   8.906  68.056  1.00  0.00     0.000 HD 
HETATM    4  H1  UNK A   0      -7.588   7.388  67.633  1.00  0.00     0.000 HD 
HETATM    5  O   UNK A   0     -10.008   7.874  69.634  1.00  0.00    -0.184 OA 
ENDROOT
BRANCH   2   6
ATOM      6  N   GLU A   1      -8.956   5.927  69.058  1.00  0.00    -0.122 N  
ATOM      7  H   GLU A   1      -9.523   5.364  69.691  1.00  0.00     0.000 HD 
BRANCH   6   8
ATOM      8  CA  GLU A   1      -7.946   5.276  68.233  1.00  0.00    -0.088 C  
ATOM      9  O   GLU A   1      -8.224   4.905  65.858  1.00  0.00    -0.110 OA 
ATOM     10  C   GLU A   1      -8.672   4.569  67.089  1.00  0.00    -0.104 C  
ATOM     11  OXT GLU A   1      -9.562   3.745  67.259  1.00  0.00    -0.202 OA 
BRANCH   8  12
ATOM     12  CB  GLU A   1      -7.136   4.262  69.052  1.00  0.00    -0.051 C  
BRANCH  12  13
ATOM     13  CG  GLU A   1      -7.772   3.981  70.412  1.00  0.00    -0.045 C  
ATOM     14  CD  GLU A   1      -8.486   2.655  70.447  1.00  0.00    -0.050 C  
ATOM     15  OE2 GLU A   1      -9.690   2.541  70.611  1.00  0.00    -0.121 OA 
ATOM     16  OE1 GLU A   1      -7.665   1.590  70.323  1.00  0.00    -0.036 OA 
ENDBRANCH  12  13
ENDBRANCH   8  12
ENDBRANCH   6   8
ENDBRANCH   2   6
TORSDOF 4
ENDMDL
