MODEL        1
REMARK 921   NORMALIZED FREE ENERGY PREDICTED BY IDOCK:   -6.59 KCAL/MOL
REMARK 922        TOTAL FREE ENERGY PREDICTED BY IDOCK:  -10.06 KCAL/MOL
REMARK 923 INTER-LIGAND FREE ENERGY PREDICTED BY IDOCK:   -9.29 KCAL/MOL
REMARK 924 INTRA-LIGAND FREE ENERGY PREDICTED BY IDOCK:   -0.77 KCAL/MOL
REMARK 927      BINDING AFFINITY PREDICTED BY RF-SCORE:    0.00 PKD
ROOT
HETATM    1  C   UNL     1      -9.810   4.663  70.818  1.00  0.00    -0.214 C  
HETATM    2  N   UNL     1     -10.805   5.698  70.605  1.00  0.00    -0.263 N  
HETATM    3  C   UNL     1     -11.150   6.050  69.237  1.00  0.00    -0.354 C  
ENDROOT
BRANCH   2   4
HETATM    4  C   UNL     1     -11.422   6.212  71.737  1.00  0.00    -0.285 C  
HETATM    5  O   UNL     1     -11.373   5.650  72.829  1.00  0.00    -0.289 OA 
BRANCH   4   6
HETATM    6  N   UNL     1     -12.123   7.367  71.541  1.00  0.00    -0.311 N  
HETATM    7  H   UNL     1     -12.990   7.332  71.005  1.00  0.00     0.000 HD 
BRANCH   6   8
HETATM    8  C   UNL     1     -11.673   8.650  72.072  1.00  0.00    -0.369 C  
HETATM    9  C   UNL     1     -10.571   9.250  71.191  1.00  0.00    -0.402 C  
HETATM   10  C   UNL     1     -11.100   9.681  69.821  1.00  0.00    -0.247 C  
HETATM   11  C   UNL     1     -12.314  10.625  69.913  1.00  0.00    -0.304 C  
HETATM   12  C   UNL     1     -12.859   9.612  72.199  1.00  0.00    -0.460 C  
HETATM   13  C   UNL     1     -13.400  10.052  70.839  1.00  0.00    -0.281 C  
BRANCH  11  14
HETATM   14  C   UNL     1     -11.925  12.046  70.364  1.00  0.00    -0.379 C  
BRANCH  14  15
HETATM   15  C   UNL     1     -11.323  12.919  69.256  1.00  0.00    -0.243 C  
BRANCH  15  16
HETATM   16  N   UNL     1     -12.135  14.094  68.893  1.00  0.00    -0.336 NA 
HETATM   17  C   UNL     1     -11.943  15.237  69.818  1.00  0.00    -0.347 C  
HETATM   18  C   UNL     1     -10.536  15.878  69.775  1.00  0.00    -0.322 C  
HETATM   19  N   UNL     1     -10.190  16.253  68.388  1.00  0.00    -0.240 NA 
HETATM   20  C   UNL     1     -11.778  14.564  67.525  1.00  0.00    -0.386 C  
HETATM   21  C   UNL     1     -10.348  15.153  67.421  1.00  0.00    -0.244 C  
BRANCH  19  22
HETATM   22  C   UNL     1      -9.819  17.552  68.067  1.00  0.00    -0.299 A  
HETATM   23  C   UNL     1      -8.556  18.154  68.321  1.00  0.00    -0.288 A  
HETATM   24  C   UNL     1      -8.316  19.503  67.974  1.00  0.00    -0.320 A  
HETATM   25 CL   UNL     1      -7.200  17.241  68.934  1.00  0.00    -0.241 Cl 
HETATM   26  C   UNL     1      -9.289  20.258  67.319  1.00  0.00    -0.538 A  
HETATM   27 CL   UNL     1      -6.820  20.312  68.317  1.00  0.00    -0.334 Cl 
HETATM   28  C   UNL     1     -10.514  19.686  67.025  1.00  0.00    -0.600 A  
HETATM   29  C   UNL     1     -10.774  18.372  67.416  1.00  0.00    -0.397 A  
ENDBRANCH  19  22
ENDBRANCH  15  16
ENDBRANCH  14  15
ENDBRANCH  11  14
ENDBRANCH   6   8
ENDBRANCH   4   6
ENDBRANCH   2   4
TORSDOF 7
ENDMDL
MODEL        2
REMARK 921   NORMALIZED FREE ENERGY PREDICTED BY IDOCK:   -6.49 KCAL/MOL
REMARK 922        TOTAL FREE ENERGY PREDICTED BY IDOCK:   -9.92 KCAL/MOL
REMARK 923 INTER-LIGAND FREE ENERGY PREDICTED BY IDOCK:   -9.09 KCAL/MOL
REMARK 924 INTRA-LIGAND FREE ENERGY PREDICTED BY IDOCK:   -0.83 KCAL/MOL
REMARK 927      BINDING AFFINITY PREDICTED BY RF-SCORE:    0.00 PKD
ROOT
HETATM    1  C   UNL     1      -9.243   5.625  74.379  1.00  0.00    -0.127 C  
HETATM    2  N   UNL     1      -9.813   6.764  73.684  1.00  0.00    -0.215 N  
HETATM    3  C   UNL     1      -9.017   7.975  73.578  1.00  0.00    -0.260 C  
ENDROOT
BRANCH   2   4
HETATM    4  C   UNL     1     -11.052   6.573  73.087  1.00  0.00    -0.166 C  
HETATM    5  O   UNL     1     -11.500   5.456  72.836  1.00  0.00    -0.309 OA 
BRANCH   4   6
HETATM    6  N   UNL     1     -11.720   7.718  72.760  1.00  0.00    -0.584 N  
HETATM    7  H   UNL     1     -11.782   8.467  73.450  1.00  0.00     0.000 HD 
BRANCH   6   8
HETATM    8  C   UNL     1     -12.347   7.908  71.456  1.00  0.00    -0.315 C  
HETATM    9  C   UNL     1     -13.351   9.066  71.495  1.00  0.00    -0.394 C  
HETATM   10  C   UNL     1     -12.661  10.419  71.676  1.00  0.00    -0.560 C  
HETATM   11  C   UNL     1     -11.556  10.677  70.634  1.00  0.00    -0.432 C  
HETATM   12  C   UNL     1     -11.276   8.145  70.386  1.00  0.00    -0.221 C  
HETATM   13  C   UNL     1     -10.577   9.494  70.553  1.00  0.00    -0.358 C  
BRANCH  11  14
HETATM   14  C   UNL     1     -12.122  10.997  69.237  1.00  0.00    -0.363 C  
BRANCH  14  15
HETATM   15  C   UNL     1     -11.420  12.157  68.520  1.00  0.00    -0.300 C  
BRANCH  15  16
HETATM   16  N   UNL     1     -12.247  13.366  68.357  1.00  0.00    -0.215 NA 
HETATM   17  C   UNL     1     -12.072  14.337  69.464  1.00  0.00    -0.330 C  
HETATM   18  C   UNL     1     -10.673  14.994  69.536  1.00  0.00    -0.256 C  
HETATM   19  N   UNL     1     -10.328  15.603  68.234  1.00  0.00    -0.239 NA 
HETATM   20  C   UNL     1     -11.893  14.065  67.090  1.00  0.00    -0.411 C  
HETATM   21  C   UNL     1     -10.470  14.681  67.094  1.00  0.00    -0.268 C  
BRANCH  19  22
HETATM   22  C   UNL     1      -9.974  16.942  68.139  1.00  0.00    -0.285 A  
HETATM   23  C   UNL     1      -8.756  17.524  68.589  1.00  0.00    -0.258 A  
HETATM   24  C   UNL     1      -8.532  18.914  68.464  1.00  0.00    -0.349 A  
HETATM   25 CL   UNL     1      -7.428  16.557  69.180  1.00  0.00    -0.232 Cl 
HETATM   26  C   UNL     1      -9.470  19.738  67.843  1.00  0.00    -0.458 A  
HETATM   27 CL   UNL     1      -7.097  19.692  69.052  1.00  0.00    -0.390 Cl 
HETATM   28  C   UNL     1     -10.646  19.192  67.362  1.00  0.00    -0.577 A  
HETATM   29  C   UNL     1     -10.896  17.830  67.533  1.00  0.00    -0.221 A  
ENDBRANCH  19  22
ENDBRANCH  15  16
ENDBRANCH  14  15
ENDBRANCH  11  14
ENDBRANCH   6   8
ENDBRANCH   4   6
ENDBRANCH   2   4
TORSDOF 7
ENDMDL
MODEL        3
REMARK 921   NORMALIZED FREE ENERGY PREDICTED BY IDOCK:   -6.45 KCAL/MOL
REMARK 922        TOTAL FREE ENERGY PREDICTED BY IDOCK:   -9.86 KCAL/MOL
REMARK 923 INTER-LIGAND FREE ENERGY PREDICTED BY IDOCK:   -9.03 KCAL/MOL
REMARK 924 INTRA-LIGAND FREE ENERGY PREDICTED BY IDOCK:   -0.83 KCAL/MOL
REMARK 927      BINDING AFFINITY PREDICTED BY RF-SCORE:    0.00 PKD
ROOT
HETATM    1  C   UNL     1     -14.262   7.236  71.557  1.00  0.00    -0.390 C  
HETATM    2  N   UNL     1     -13.149   8.161  71.647  1.00  0.00    -0.338 N  
HETATM    3  C   UNL     1     -13.374   9.451  72.278  1.00  0.00    -0.461 C  
ENDROOT
BRANCH   2   4
HETATM    4  C   UNL     1     -11.917   7.701  71.200  1.00  0.00    -0.297 C  
HETATM    5  O   UNL     1     -11.193   6.982  71.886  1.00  0.00    -0.237 OA 
BRANCH   4   6
HETATM    6  N   UNL     1     -11.550   8.138  69.961  1.00  0.00    -0.456 N  
HETATM    7  H   UNL     1     -12.109   7.859  69.154  1.00  0.00     0.000 HD 
BRANCH   6   8
HETATM    8  C   UNL     1     -10.384   8.991  69.750  1.00  0.00    -0.211 C  
HETATM    9  C   UNL     1      -9.684   8.645  68.431  1.00  0.00    -0.176 C  
HETATM   10  C   UNL     1     -10.532   9.020  67.214  1.00  0.00    -0.343 C  
HETATM   11  C   UNL     1     -10.993  10.490  67.229  1.00  0.00    -0.325 C  
HETATM   12  C   UNL     1     -10.799  10.466  69.781  1.00  0.00    -0.342 C  
HETATM   13  C   UNL     1     -11.648  10.857  68.572  1.00  0.00    -0.360 C  
BRANCH  11  14
HETATM   14  C   UNL     1      -9.849  11.472  66.909  1.00  0.00    -0.220 C  
BRANCH  14  15
HETATM   15  C   UNL     1     -10.238  12.604  65.950  1.00  0.00    -0.274 C  
BRANCH  15  16
HETATM   16  N   UNL     1     -11.178  13.589  66.513  1.00  0.00    -0.301 NA 
HETATM   17  C   UNL     1     -10.667  14.235  67.746  1.00  0.00    -0.251 C  
HETATM   18  C   UNL     1      -9.437  15.150  67.538  1.00  0.00    -0.206 C  
HETATM   19  N   UNL     1      -9.720  16.153  66.490  1.00  0.00    -0.247 NA 
HETATM   20  C   UNL     1     -11.448  14.669  65.523  1.00  0.00    -0.341 C  
HETATM   21  C   UNL     1     -10.220  15.570  65.233  1.00  0.00    -0.346 C  
BRANCH  19  22
HETATM   22  C   UNL     1      -9.575  17.510  66.739  1.00  0.00    -0.282 A  
HETATM   23  C   UNL     1      -8.361  18.250  66.692  1.00  0.00    -0.264 A  
HETATM   24  C   UNL     1      -8.343  19.629  67.003  1.00  0.00    -0.294 A  
HETATM   25 CL   UNL     1      -6.868  17.548  66.121  1.00  0.00    -0.312 Cl 
HETATM   26  C   UNL     1      -9.523  20.311  67.301  1.00  0.00    -0.557 A  
HETATM   27 CL   UNL     1      -6.885  20.570  67.028  1.00  0.00    -0.312 Cl 
HETATM   28  C   UNL     1     -10.723  19.624  67.315  1.00  0.00    -0.583 A  
HETATM   29  C   UNL     1     -10.738  18.252  67.065  1.00  0.00    -0.305 A  
ENDBRANCH  19  22
ENDBRANCH  15  16
ENDBRANCH  14  15
ENDBRANCH  11  14
ENDBRANCH   6   8
ENDBRANCH   4   6
ENDBRANCH   2   4
TORSDOF 7
ENDMDL
MODEL        4
REMARK 921   NORMALIZED FREE ENERGY PREDICTED BY IDOCK:   -6.42 KCAL/MOL
REMARK 922        TOTAL FREE ENERGY PREDICTED BY IDOCK:   -9.83 KCAL/MOL
REMARK 923 INTER-LIGAND FREE ENERGY PREDICTED BY IDOCK:   -8.95 KCAL/MOL
REMARK 924 INTRA-LIGAND FREE ENERGY PREDICTED BY IDOCK:   -0.87 KCAL/MOL
REMARK 927      BINDING AFFINITY PREDICTED BY RF-SCORE:    0.00 PKD
ROOT
HETATM    1  C   UNL     1      -7.068  18.974  68.694  1.00  0.00    -0.307 C  
HETATM    2  N   UNL     1      -7.772  19.957  67.892  1.00  0.00    -0.292 N  
HETATM    3  C   UNL     1      -6.987  20.878  67.087  1.00  0.00    -0.364 C  
ENDROOT
BRANCH   2   4
HETATM    4  C   UNL     1      -9.159  19.880  67.886  1.00  0.00    -0.313 C  
HETATM    5  O   UNL     1      -9.870  20.813  67.518  1.00  0.00    -0.439 OA 
BRANCH   4   6
HETATM    6  N   UNL     1      -9.676  18.709  68.358  1.00  0.00    -0.347 N  
HETATM    7  H   UNL     1      -9.425  18.403  69.299  1.00  0.00     0.000 HD 
BRANCH   6   8
HETATM    8  C   UNL     1     -10.575  17.879  67.562  1.00  0.00    -0.376 C  
HETATM    9  C   UNL     1      -9.984  17.609  66.174  1.00  0.00    -0.281 C  
HETATM   10  C   UNL     1      -8.751  16.706  66.239  1.00  0.00    -0.359 C  
HETATM   11  C   UNL     1      -9.005  15.391  67.000  1.00  0.00    -0.253 C  
HETATM   12  C   UNL     1     -10.871  16.568  68.298  1.00  0.00    -0.352 C  
HETATM   13  C   UNL     1      -9.648  15.654  68.372  1.00  0.00    -0.199 C  
BRANCH  11  14
HETATM   14  C   UNL     1      -9.862  14.396  66.193  1.00  0.00    -0.340 C  
BRANCH  14  15
HETATM   15  C   UNL     1      -9.775  12.945  66.682  1.00  0.00    -0.254 C  
BRANCH  15  16
HETATM   16  N   UNL     1     -11.073  12.257  66.794  1.00  0.00    -0.279 NA 
HETATM   17  C   UNL     1     -10.936  10.794  66.989  1.00  0.00    -0.227 C  
HETATM   18  C   UNL     1     -10.311  10.375  68.340  1.00  0.00    -0.174 C  
HETATM   19  N   UNL     1     -11.053  10.994  69.459  1.00  0.00    -0.254 NA 
HETATM   20  C   UNL     1     -11.841  12.792  67.953  1.00  0.00    -0.339 C  
HETATM   21  C   UNL     1     -11.211  12.452  69.328  1.00  0.00    -0.201 C  
BRANCH  19  22
HETATM   22  C   UNL     1     -11.588  10.220  70.479  1.00  0.00    -0.338 A  
HETATM   23  C   UNL     1     -10.885   9.277  71.279  1.00  0.00    -0.347 A  
HETATM   24  C   UNL     1     -11.558   8.524  72.268  1.00  0.00    -0.374 A  
HETATM   25 CL   UNL     1      -9.151   9.096  71.190  1.00  0.00    -0.304 Cl 
HETATM   26  C   UNL     1     -12.913   8.731  72.526  1.00  0.00    -0.382 A  
HETATM   27 CL   UNL     1     -10.769   7.314  73.228  1.00  0.00    -0.410 Cl 
HETATM   28  C   UNL     1     -13.613   9.669  71.790  1.00  0.00    -0.424 A  
HETATM   29  C   UNL     1     -12.966  10.375  70.775  1.00  0.00    -0.422 A  
ENDBRANCH  19  22
ENDBRANCH  15  16
ENDBRANCH  14  15
ENDBRANCH  11  14
ENDBRANCH   6   8
ENDBRANCH   4   6
ENDBRANCH   2   4
TORSDOF 7
ENDMDL
MODEL        5
REMARK 921   NORMALIZED FREE ENERGY PREDICTED BY IDOCK:   -6.37 KCAL/MOL
REMARK 922        TOTAL FREE ENERGY PREDICTED BY IDOCK:   -9.74 KCAL/MOL
REMARK 923 INTER-LIGAND FREE ENERGY PREDICTED BY IDOCK:   -8.94 KCAL/MOL
REMARK 924 INTRA-LIGAND FREE ENERGY PREDICTED BY IDOCK:   -0.80 KCAL/MOL
REMARK 927      BINDING AFFINITY PREDICTED BY RF-SCORE:    0.00 PKD
ROOT
HETATM    1  C   UNL     1     -10.456   5.360  71.610  1.00  0.00    -0.227 C  
HETATM    2  N   UNL     1     -11.117   6.555  72.099  1.00  0.00    -0.248 N  
HETATM    3  C   UNL     1     -10.740   7.064  73.407  1.00  0.00    -0.345 C  
ENDROOT
BRANCH   2   4
HETATM    4  C   UNL     1     -12.002   7.178  71.228  1.00  0.00    -0.337 C  
HETATM    5  O   UNL     1     -13.215   7.203  71.426  1.00  0.00    -0.385 OA 
BRANCH   4   6
HETATM    6  N   UNL     1     -11.432   7.725  70.116  1.00  0.00    -0.473 N  
HETATM    7  H   UNL     1     -11.707   7.375  69.198  1.00  0.00     0.000 HD 
BRANCH   6   8
HETATM    8  C   UNL     1     -10.442   8.795  70.195  1.00  0.00    -0.213 C  
HETATM    9  C   UNL     1      -9.862   9.107  68.811  1.00  0.00    -0.175 C  
HETATM   10  C   UNL     1     -10.898   9.749  67.885  1.00  0.00    -0.298 C  
HETATM   11  C   UNL     1     -11.569  10.991  68.499  1.00  0.00    -0.380 C  
HETATM   12  C   UNL     1     -11.067  10.045  70.823  1.00  0.00    -0.407 C  
HETATM   13  C   UNL     1     -12.104  10.698  69.911  1.00  0.00    -0.372 C  
BRANCH  11  14
HETATM   14  C   UNL     1     -10.633  12.216  68.529  1.00  0.00    -0.252 C  
BRANCH  14  15
HETATM   15  C   UNL     1     -11.161  13.396  69.354  1.00  0.00    -0.175 C  
BRANCH  15  16
HETATM   16  N   UNL     1     -11.903  14.403  68.576  1.00  0.00    -0.338 NA 
HETATM   17  C   UNL     1     -12.097  15.675  69.314  1.00  0.00    -0.241 C  
HETATM   18  C   UNL     1     -10.799  16.471  69.586  1.00  0.00    -0.322 C  
HETATM   19  N   UNL     1     -10.064  16.696  68.324  1.00  0.00    -0.257 NA 
HETATM   20  C   UNL     1     -11.172  14.725  67.318  1.00  0.00    -0.346 C  
HETATM   21  C   UNL     1      -9.829  15.465  67.550  1.00  0.00    -0.217 C  
BRANCH  19  22
HETATM   22  C   UNL     1      -9.710  17.975  67.918  1.00  0.00    -0.297 A  
HETATM   23  C   UNL     1      -8.442  18.594  68.098  1.00  0.00    -0.312 A  
HETATM   24  C   UNL     1      -8.219  19.922  67.667  1.00  0.00    -0.313 A  
HETATM   25 CL   UNL     1      -7.063  17.722  68.721  1.00  0.00    -0.256 Cl 
HETATM   26  C   UNL     1      -9.215  20.635  67.001  1.00  0.00    -0.390 A  
HETATM   27 CL   UNL     1      -6.717  20.753  67.917  1.00  0.00    -0.357 Cl 
HETATM   28  C   UNL     1     -10.446  20.043  66.778  1.00  0.00    -0.520 A  
HETATM   29  C   UNL     1     -10.688  18.753  67.251  1.00  0.00    -0.490 A  
ENDBRANCH  19  22
ENDBRANCH  15  16
ENDBRANCH  14  15
ENDBRANCH  11  14
ENDBRANCH   6   8
ENDBRANCH   4   6
ENDBRANCH   2   4
TORSDOF 7
ENDMDL
MODEL        6
REMARK 921   NORMALIZED FREE ENERGY PREDICTED BY IDOCK:   -6.27 KCAL/MOL
REMARK 922        TOTAL FREE ENERGY PREDICTED BY IDOCK:   -9.61 KCAL/MOL
REMARK 923 INTER-LIGAND FREE ENERGY PREDICTED BY IDOCK:   -8.77 KCAL/MOL
REMARK 924 INTRA-LIGAND FREE ENERGY PREDICTED BY IDOCK:   -0.84 KCAL/MOL
REMARK 927      BINDING AFFINITY PREDICTED BY RF-SCORE:    0.00 PKD
ROOT
HETATM    1  C   UNL     1     -10.393  17.738  67.944  1.00  0.00    -0.386 C  
HETATM    2  N   UNL     1     -10.560  18.067  66.542  1.00  0.00    -0.305 N  
HETATM    3  C   UNL     1     -10.513  19.467  66.153  1.00  0.00    -0.508 C  
ENDROOT
BRANCH   2   4
HETATM    4  C   UNL     1     -10.660  17.000  65.658  1.00  0.00    -0.197 C  
HETATM    5  O   UNL     1     -11.114  17.125  64.522  1.00  0.00    -1.105 OA 
BRANCH   4   6
HETATM    6  N   UNL     1     -10.258  15.795  66.157  1.00  0.00    -0.296 N  
HETATM    7  H   UNL     1      -9.489  15.771  66.827  1.00  0.00     0.000 HD 
BRANCH   6   8
HETATM    8  C   UNL     1     -10.890  14.540  65.763  1.00  0.00    -0.315 C  
HETATM    9  C   UNL     1      -9.958  13.352  66.028  1.00  0.00    -0.300 C  
HETATM   10  C   UNL     1      -9.750  13.106  67.523  1.00  0.00    -0.213 C  
HETATM   11  C   UNL     1     -11.072  12.959  68.300  1.00  0.00    -0.294 C  
HETATM   12  C   UNL     1     -12.222  14.368  66.499  1.00  0.00    -0.358 C  
HETATM   13  C   UNL     1     -12.032  14.122  67.996  1.00  0.00    -0.372 C  
BRANCH  11  14
HETATM   14  C   UNL     1     -11.768  11.610  68.034  1.00  0.00    -0.351 C  
BRANCH  14  15
HETATM   15  C   UNL     1     -10.994  10.388  68.544  1.00  0.00    -0.254 C  
BRANCH  15  16
HETATM   16  N   UNL     1     -10.543  10.488  69.943  1.00  0.00    -0.245 NA 
HETATM   17  C   UNL     1     -11.578  10.060  70.915  1.00  0.00    -0.378 C  
HETATM   18  C   UNL     1     -11.927   8.554  70.870  1.00  0.00    -0.181 C  
HETATM   19  N   UNL     1     -10.700   7.741  71.006  1.00  0.00    -0.225 NA 
HETATM   20  C   UNL     1      -9.345   9.631  70.162  1.00  0.00    -0.251 C  
HETATM   21  C   UNL     1      -9.637   8.112  70.056  1.00  0.00    -0.171 C  
BRANCH  19  22
HETATM   22  C   UNL     1     -10.585   6.776  71.997  1.00  0.00    -0.213 A  
HETATM   23  C   UNL     1     -10.505   5.370  71.798  1.00  0.00    -0.226 A  
HETATM   24  C   UNL     1     -10.425   4.488  72.900  1.00  0.00    -0.190 A  
HETATM   25 CL   UNL     1     -10.359   4.665  70.207  1.00  0.00    -0.204 Cl 
HETATM   26  C   UNL     1     -10.361   4.976  74.204  1.00  0.00    -0.307 A  
HETATM   27 CL   UNL     1     -10.392   2.762  72.723  1.00  0.00    -0.235 Cl 
HETATM   28  C   UNL     1     -10.398   6.341  74.425  1.00  0.00    -0.278 A  
HETATM   29  C   UNL     1     -10.533   7.213  73.344  1.00  0.00    -0.410 A  
ENDBRANCH  19  22
ENDBRANCH  15  16
ENDBRANCH  14  15
ENDBRANCH  11  14
ENDBRANCH   6   8
ENDBRANCH   4   6
ENDBRANCH   2   4
TORSDOF 7
ENDMDL
MODEL        7
REMARK 921   NORMALIZED FREE ENERGY PREDICTED BY IDOCK:   -6.14 KCAL/MOL
REMARK 922        TOTAL FREE ENERGY PREDICTED BY IDOCK:   -9.43 KCAL/MOL
REMARK 923 INTER-LIGAND FREE ENERGY PREDICTED BY IDOCK:   -8.64 KCAL/MOL
REMARK 924 INTRA-LIGAND FREE ENERGY PREDICTED BY IDOCK:   -0.79 KCAL/MOL
REMARK 927      BINDING AFFINITY PREDICTED BY RF-SCORE:    0.00 PKD
ROOT
HETATM    1  C   UNL     1     -10.384  17.901  66.410  1.00  0.00    -0.365 C  
HETATM    2  N   UNL     1      -9.934  16.635  65.862  1.00  0.00    -0.316 N  
HETATM    3  C   UNL     1      -8.641  16.123  66.283  1.00  0.00    -0.338 C  
ENDROOT
BRANCH   2   4
HETATM    4  C   UNL     1     -10.826  15.960  65.038  1.00  0.00    -0.426 C  
HETATM    5  O   UNL     1     -11.523  16.537  64.206  1.00  0.00    -1.000 OA 
BRANCH   4   6
HETATM    6  N   UNL     1     -10.903  14.614  65.249  1.00  0.00    -0.350 N  
HETATM    7  H   UNL     1     -10.174  14.012  64.866  1.00  0.00     0.000 HD 
BRANCH   6   8
HETATM    8  C   UNL     1     -11.995  14.007  66.004  1.00  0.00    -0.416 C  
HETATM    9  C   UNL     1     -12.140  12.521  65.656  1.00  0.00    -0.464 C  
HETATM   10  C   UNL     1     -10.955  11.693  66.156  1.00  0.00    -0.339 C  
HETATM   11  C   UNL     1     -10.676  11.886  67.659  1.00  0.00    -0.253 C  
HETATM   12  C   UNL     1     -11.765  14.198  67.507  1.00  0.00    -0.418 C  
HETATM   13  C   UNL     1     -10.583  13.377  68.024  1.00  0.00    -0.252 C  
BRANCH  11  14
HETATM   14  C   UNL     1     -11.721  11.185  68.549  1.00  0.00    -0.368 C  
BRANCH  14  15
HETATM   15  C   UNL     1     -11.152  10.594  69.846  1.00  0.00    -0.298 C  
BRANCH  15  16
HETATM   16  N   UNL     1     -10.076   9.607  69.649  1.00  0.00    -0.209 NA 
HETATM   17  C   UNL     1      -9.318   9.324  70.891  1.00  0.00    -0.245 C  
HETATM   18  C   UNL     1     -10.126   8.600  71.994  1.00  0.00    -0.331 C  
HETATM   19  N   UNL     1     -10.738   7.369  71.452  1.00  0.00    -0.220 NA 
HETATM   20  C   UNL     1     -10.642   8.315  69.168  1.00  0.00    -0.165 C  
HETATM   21  C   UNL     1     -11.517   7.588  70.221  1.00  0.00    -0.152 C  
BRANCH  19  22
HETATM   22  C   UNL     1     -10.514   6.135  72.047  1.00  0.00    -0.211 A  
HETATM   23  C   UNL     1      -9.969   4.982  71.415  1.00  0.00    -0.193 A  
HETATM   24  C   UNL     1      -9.823   3.770  72.128  1.00  0.00    -0.168 A  
HETATM   25 CL   UNL     1      -9.323   5.031  69.794  1.00  0.00    -0.174 Cl 
HETATM   26  C   UNL     1     -10.153   3.690  73.481  1.00  0.00    -0.194 A  
HETATM   27 CL   UNL     1      -9.227   2.314  71.396  1.00  0.00    -0.163 Cl 
HETATM   28  C   UNL     1     -10.649   4.807  74.130  1.00  0.00    -0.351 A  
HETATM   29  C   UNL     1     -10.847   5.989  73.416  1.00  0.00    -0.256 A  
ENDBRANCH  19  22
ENDBRANCH  15  16
ENDBRANCH  14  15
ENDBRANCH  11  14
ENDBRANCH   6   8
ENDBRANCH   4   6
ENDBRANCH   2   4
TORSDOF 7
ENDMDL
MODEL        8
REMARK 921   NORMALIZED FREE ENERGY PREDICTED BY IDOCK:   -5.99 KCAL/MOL
REMARK 922        TOTAL FREE ENERGY PREDICTED BY IDOCK:   -9.21 KCAL/MOL
REMARK 923 INTER-LIGAND FREE ENERGY PREDICTED BY IDOCK:   -8.19 KCAL/MOL
REMARK 924 INTRA-LIGAND FREE ENERGY PREDICTED BY IDOCK:   -1.02 KCAL/MOL
REMARK 927      BINDING AFFINITY PREDICTED BY RF-SCORE:    0.00 PKD
ROOT
HETATM    1  C   UNL     1     -12.464  15.169  73.514  1.00  0.00    -0.540 C  
HETATM    2  N   UNL     1     -13.059  14.561  72.339  1.00  0.00    -0.371 N  
HETATM    3  C   UNL     1     -13.560  13.200  72.447  1.00  0.00    -0.567 C  
ENDROOT
BRANCH   2   4
HETATM    4  C   UNL     1     -13.187  15.368  71.217  1.00  0.00    -0.510 C  
HETATM    5  O   UNL     1     -14.280  15.654  70.731  1.00  0.00    -0.289 OA 
BRANCH   4   6
HETATM    6  N   UNL     1     -12.011  15.786  70.666  1.00  0.00    -0.379 N  
HETATM    7  H   UNL     1     -11.820  16.787  70.611  1.00  0.00     0.000 HD 
BRANCH   6   8
HETATM    8  C   UNL     1     -11.016  14.850  70.154  1.00  0.00    -0.180 C  
HETATM    9  C   UNL     1     -11.633  13.915  69.106  1.00  0.00    -0.359 C  
HETATM   10  C   UNL     1     -12.009  14.657  67.823  1.00  0.00    -0.302 C  
HETATM   11  C   UNL     1     -10.840  15.464  67.227  1.00  0.00    -0.316 C  
HETATM   12  C   UNL     1      -9.823  15.615  69.571  1.00  0.00    -0.289 C  
HETATM   13  C   UNL     1     -10.183  16.363  68.288  1.00  0.00    -0.255 C  
BRANCH  11  14
HETATM   14  C   UNL     1      -9.780  14.565  66.561  1.00  0.00    -0.301 C  
BRANCH  14  15
HETATM   15  C   UNL     1     -10.347  13.305  65.895  1.00  0.00    -0.292 C  
BRANCH  15  16
HETATM   16  N   UNL     1      -9.437  12.146  65.902  1.00  0.00    -0.216 NA 
HETATM   17  C   UNL     1      -8.541  12.123  67.084  1.00  0.00    -0.185 C  
HETATM   18  C   UNL     1      -9.256  11.892  68.436  1.00  0.00    -0.173 C  
HETATM   19  N   UNL     1     -10.085  10.669  68.371  1.00  0.00    -0.160 NA 
HETATM   20  C   UNL     1     -10.218  10.877  65.910  1.00  0.00    -0.257 C  
HETATM   21  C   UNL     1     -11.007  10.639  67.223  1.00  0.00    -0.284 C  
BRANCH  19  22
HETATM   22  C   UNL     1      -9.923   9.644  69.293  1.00  0.00    -0.191 A  
HETATM   23  C   UNL     1     -10.755   9.385  70.418  1.00  0.00    -0.263 A  
HETATM   24  C   UNL     1     -10.460   8.324  71.305  1.00  0.00    -0.211 A  
HETATM   25 CL   UNL     1     -12.246  10.252  70.689  1.00  0.00    -0.400 Cl 
HETATM   26  C   UNL     1      -9.384   7.469  71.065  1.00  0.00    -0.157 A  
HETATM   27 CL   UNL     1     -11.397   7.998  72.728  1.00  0.00    -0.467 Cl 
HETATM   28  C   UNL     1      -8.581   7.675  69.958  1.00  0.00    -0.138 A  
HETATM   29  C   UNL     1      -8.835   8.755  69.111  1.00  0.00    -0.137 A  
ENDBRANCH  19  22
ENDBRANCH  15  16
ENDBRANCH  14  15
ENDBRANCH  11  14
ENDBRANCH   6   8
ENDBRANCH   4   6
ENDBRANCH   2   4
TORSDOF 7
ENDMDL
MODEL        9
REMARK 921   NORMALIZED FREE ENERGY PREDICTED BY IDOCK:   -5.97 KCAL/MOL
REMARK 922        TOTAL FREE ENERGY PREDICTED BY IDOCK:   -9.19 KCAL/MOL
REMARK 923 INTER-LIGAND FREE ENERGY PREDICTED BY IDOCK:   -8.56 KCAL/MOL
REMARK 924 INTRA-LIGAND FREE ENERGY PREDICTED BY IDOCK:   -0.63 KCAL/MOL
REMARK 927      BINDING AFFINITY PREDICTED BY RF-SCORE:    0.00 PKD
ROOT
HETATM    1  C   UNL     1     -12.217  12.871  63.465  1.00  0.00    -0.512 C  
HETATM    2  N   UNL     1     -10.833  12.762  63.886  1.00  0.00    -0.412 N  
HETATM    3  C   UNL     1     -10.016  11.711  63.302  1.00  0.00    -0.419 C  
ENDROOT
BRANCH   2   4
HETATM    4  C   UNL     1     -10.366  13.739  64.755  1.00  0.00    -0.398 C  
HETATM    5  O   UNL     1     -10.584  14.937  64.580  1.00  0.00    -0.360 OA 
BRANCH   4   6
HETATM    6  N   UNL     1      -9.613  13.278  65.796  1.00  0.00    -0.481 N  
HETATM    7  H   UNL     1      -8.806  12.687  65.596  1.00  0.00     0.000 HD 
BRANCH   6   8
HETATM    8  C   UNL     1      -9.925  13.600  67.185  1.00  0.00    -0.247 C  
HETATM    9  C   UNL     1     -11.428  13.463  67.454  1.00  0.00    -0.368 C  
HETATM   10  C   UNL     1     -11.893  12.007  67.392  1.00  0.00    -0.268 C  
HETATM   11  C   UNL     1     -11.077  11.073  68.305  1.00  0.00    -0.316 C  
HETATM   12  C   UNL     1      -9.114  12.705  68.127  1.00  0.00    -0.204 C  
HETATM   13  C   UNL     1      -9.566  11.246  68.077  1.00  0.00    -0.182 C  
BRANCH  11  14
HETATM   14  C   UNL     1     -11.414  11.262  69.797  1.00  0.00    -0.386 C  
BRANCH  14  15
HETATM   15  C   UNL     1     -12.380  10.213  70.365  1.00  0.00    -0.190 C  
BRANCH  15  16
HETATM   16  N   UNL     1     -12.018   9.708  71.701  1.00  0.00    -0.392 NA 
HETATM   17  C   UNL     1     -12.880   8.587  72.146  1.00  0.00    -0.369 C  
HETATM   18  C   UNL     1     -12.721   7.282  71.331  1.00  0.00    -0.389 C  
HETATM   19  N   UNL     1     -11.300   6.877  71.289  1.00  0.00    -0.266 NA 
HETATM   20  C   UNL     1     -10.611   9.217  71.703  1.00  0.00    -0.357 C  
HETATM   21  C   UNL     1     -10.393   7.947  70.840  1.00  0.00    -0.200 C  
BRANCH  19  22
HETATM   22  C   UNL     1     -10.902   5.615  71.708  1.00  0.00    -0.239 A  
HETATM   23  C   UNL     1     -10.150   4.675  70.950  1.00  0.00    -0.187 A  
HETATM   24  C   UNL     1      -9.837   3.403  71.482  1.00  0.00    -0.142 A  
HETATM   25 CL   UNL     1      -9.456   5.077  69.399  1.00  0.00    -0.186 Cl 
HETATM   26  C   UNL     1     -10.203   3.062  72.784  1.00  0.00    -0.236 A  
HETATM   27 CL   UNL     1      -8.981   2.191  70.583  1.00  0.00    -0.133 Cl 
HETATM   28  C   UNL     1     -10.902   3.972  73.558  1.00  0.00    -0.336 A  
HETATM   29  C   UNL     1     -11.261   5.207  73.016  1.00  0.00    -0.390 A  
ENDBRANCH  19  22
ENDBRANCH  15  16
ENDBRANCH  14  15
ENDBRANCH  11  14
ENDBRANCH   6   8
ENDBRANCH   4   6
ENDBRANCH   2   4
TORSDOF 7
ENDMDL
MODEL       10
REMARK 921   NORMALIZED FREE ENERGY PREDICTED BY IDOCK:   -5.94 KCAL/MOL
REMARK 922        TOTAL FREE ENERGY PREDICTED BY IDOCK:   -9.15 KCAL/MOL
REMARK 923 INTER-LIGAND FREE ENERGY PREDICTED BY IDOCK:   -8.50 KCAL/MOL
REMARK 924 INTRA-LIGAND FREE ENERGY PREDICTED BY IDOCK:   -0.65 KCAL/MOL
REMARK 927      BINDING AFFINITY PREDICTED BY RF-SCORE:    0.00 PKD
ROOT
HETATM    1  C   UNL     1     -12.280  13.174  63.413  1.00  0.00    -0.444 C  
HETATM    2  N   UNL     1     -10.983  12.857  63.981  1.00  0.00    -0.399 N  
HETATM    3  C   UNL     1     -10.314  11.646  63.536  1.00  0.00    -0.441 C  
ENDROOT
BRANCH   2   4
HETATM    4  C   UNL     1     -10.436  13.794  64.848  1.00  0.00    -0.418 C  
HETATM    5  O   UNL     1     -10.628  15.002  64.721  1.00  0.00    -0.402 OA 
BRANCH   4   6
HETATM    6  N   UNL     1      -9.635  13.280  65.826  1.00  0.00    -0.481 N  
HETATM    7  H   UNL     1      -8.877  12.650  65.562  1.00  0.00     0.000 HD 
BRANCH   6   8
HETATM    8  C   UNL     1      -9.826  13.601  67.236  1.00  0.00    -0.241 C  
HETATM    9  C   UNL     1     -11.318  13.711  67.575  1.00  0.00    -0.335 C  
HETATM   10  C   UNL     1     -12.027  12.358  67.495  1.00  0.00    -0.253 C  
HETATM   11  C   UNL     1     -11.344  11.267  68.341  1.00  0.00    -0.348 C  
HETATM   12  C   UNL     1      -9.140  12.549  68.114  1.00  0.00    -0.204 C  
HETATM   13  C   UNL     1      -9.837  11.190  68.045  1.00  0.00    -0.185 C  
BRANCH  11  14
HETATM   14  C   UNL     1     -11.579  11.457  69.853  1.00  0.00    -0.402 C  
BRANCH  14  15
HETATM   15  C   UNL     1     -12.433  10.361  70.503  1.00  0.00    -0.317 C  
BRANCH  15  16
HETATM   16  N   UNL     1     -11.821   9.727  71.683  1.00  0.00    -0.390 NA 
HETATM   17  C   UNL     1     -12.544   8.509  72.124  1.00  0.00    -0.377 C  
HETATM   18  C   UNL     1     -12.476   7.321  71.136  1.00  0.00    -0.336 C  
HETATM   19  N   UNL     1     -11.069   7.015  70.803  1.00  0.00    -0.261 NA 
HETATM   20  C   UNL     1     -10.417   9.329  71.385  1.00  0.00    -0.338 C  
HETATM   21  C   UNL     1     -10.301   8.185  70.345  1.00  0.00    -0.206 C  
BRANCH  19  22
HETATM   22  C   UNL     1     -10.550   5.740  70.986  1.00  0.00    -0.253 A  
HETATM   23  C   UNL     1     -10.275   5.114  72.233  1.00  0.00    -0.202 A  
HETATM   24  C   UNL     1      -9.712   3.818  72.282  1.00  0.00    -0.156 A  
HETATM   25 CL   UNL     1     -10.739   5.834  73.755  1.00  0.00    -0.284 Cl 
HETATM   26  C   UNL     1      -9.471   3.098  71.113  1.00  0.00    -0.222 A  
HETATM   27 CL   UNL     1      -9.293   3.030  73.770  1.00  0.00    -0.096 Cl 
HETATM   28  C   UNL     1      -9.765   3.667  69.887  1.00  0.00    -0.166 A  
HETATM   29  C   UNL     1     -10.268   4.968  69.832  1.00  0.00    -0.340 A  
ENDBRANCH  19  22
ENDBRANCH  15  16
ENDBRANCH  14  15
ENDBRANCH  11  14
ENDBRANCH   6   8
ENDBRANCH   4   6
ENDBRANCH   2   4
TORSDOF 7
ENDMDL
MODEL       11
REMARK 921   NORMALIZED FREE ENERGY PREDICTED BY IDOCK:   -5.93 KCAL/MOL
REMARK 922        TOTAL FREE ENERGY PREDICTED BY IDOCK:   -9.13 KCAL/MOL
REMARK 923 INTER-LIGAND FREE ENERGY PREDICTED BY IDOCK:   -8.31 KCAL/MOL
REMARK 924 INTRA-LIGAND FREE ENERGY PREDICTED BY IDOCK:   -0.82 KCAL/MOL
REMARK 927      BINDING AFFINITY PREDICTED BY RF-SCORE:    0.00 PKD
ROOT
HETATM    1  C   UNL     1     -11.212   5.482  72.509  1.00  0.00    -0.274 C  
HETATM    2  N   UNL     1     -10.548   5.959  71.310  1.00  0.00    -0.242 N  
HETATM    3  C   UNL     1      -9.139   5.650  71.133  1.00  0.00    -0.145 C  
ENDROOT
BRANCH   2   4
HETATM    4  C   UNL     1     -11.344   6.603  70.371  1.00  0.00    -0.365 C  
HETATM    5  O   UNL     1     -11.371   6.269  69.188  1.00  0.00    -0.395 OA 
BRANCH   4   6
HETATM    6  N   UNL     1     -12.063   7.660  70.849  1.00  0.00    -0.461 N  
HETATM    7  H   UNL     1     -13.082   7.620  70.812  1.00  0.00     0.000 HD 
BRANCH   6   8
HETATM    8  C   UNL     1     -11.423   8.846  71.410  1.00  0.00    -0.311 C  
HETATM    9  C   UNL     1     -10.495   9.505  70.383  1.00  0.00    -0.336 C  
HETATM   10  C   UNL     1     -11.272  10.126  69.221  1.00  0.00    -0.247 C  
HETATM   11  C   UNL     1     -12.371  11.102  69.682  1.00  0.00    -0.287 C  
HETATM   12  C   UNL     1     -12.486   9.834  71.903  1.00  0.00    -0.451 C  
HETATM   13  C   UNL     1     -13.272  10.464  70.753  1.00  0.00    -0.266 C  
BRANCH  11  14
HETATM   14  C   UNL     1     -11.798  12.438  70.196  1.00  0.00    -0.341 C  
BRANCH  14  15
HETATM   15  C   UNL     1     -12.008  13.623  69.245  1.00  0.00    -0.336 C  
BRANCH  15  16
HETATM   16  N   UNL     1     -11.180  13.585  68.027  1.00  0.00    -0.259 NA 
HETATM   17  C   UNL     1     -11.446  14.722  67.113  1.00  0.00    -0.364 C  
HETATM   18  C   UNL     1     -11.027  16.107  67.660  1.00  0.00    -0.268 C  
HETATM   19  N   UNL     1      -9.610  16.082  68.080  1.00  0.00    -0.215 NA 
HETATM   20  C   UNL     1      -9.734  13.630  68.384  1.00  0.00    -0.217 C  
HETATM   21  C   UNL     1      -9.286  14.979  69.001  1.00  0.00    -0.206 C  
BRANCH  19  22
HETATM   22  C   UNL     1      -8.696  16.994  67.572  1.00  0.00    -0.210 A  
HETATM   23  C   UNL     1      -8.704  18.400  67.783  1.00  0.00    -0.267 A  
HETATM   24  C   UNL     1      -7.730  19.227  67.177  1.00  0.00    -0.246 A  
HETATM   25 CL   UNL     1      -9.809  19.165  68.897  1.00  0.00    -0.486 Cl 
HETATM   26  C   UNL     1      -6.702  18.679  66.410  1.00  0.00    -0.236 A  
HETATM   27 CL   UNL     1      -7.727  20.954  67.343  1.00  0.00    -0.338 Cl 
HETATM   28  C   UNL     1      -6.648  17.310  66.220  1.00  0.00    -0.248 A  
HETATM   29  C   UNL     1      -7.639  16.496  66.770  1.00  0.00    -0.298 A  
ENDBRANCH  19  22
ENDBRANCH  15  16
ENDBRANCH  14  15
ENDBRANCH  11  14
ENDBRANCH   6   8
ENDBRANCH   4   6
ENDBRANCH   2   4
TORSDOF 7
ENDMDL
MODEL       12
REMARK 921   NORMALIZED FREE ENERGY PREDICTED BY IDOCK:   -5.91 KCAL/MOL
REMARK 922        TOTAL FREE ENERGY PREDICTED BY IDOCK:   -9.10 KCAL/MOL
REMARK 923 INTER-LIGAND FREE ENERGY PREDICTED BY IDOCK:   -8.32 KCAL/MOL
REMARK 924 INTRA-LIGAND FREE ENERGY PREDICTED BY IDOCK:   -0.78 KCAL/MOL
REMARK 927      BINDING AFFINITY PREDICTED BY RF-SCORE:    0.00 PKD
ROOT
HETATM    1  C   UNL     1     -10.641   5.790  72.457  1.00  0.00    -0.221 C  
HETATM    2  N   UNL     1     -11.528   6.294  71.425  1.00  0.00    -0.301 N  
HETATM    3  C   UNL     1     -12.806   6.856  71.830  1.00  0.00    -0.304 C  
ENDROOT
BRANCH   2   4
HETATM    4  C   UNL     1     -11.040   6.285  70.125  1.00  0.00    -0.377 C  
HETATM    5  O   UNL     1     -10.494   5.300  69.632  1.00  0.00    -0.281 OA 
BRANCH   4   6
HETATM    6  N   UNL     1     -11.175   7.462  69.447  1.00  0.00    -0.456 N  
HETATM    7  H   UNL     1     -12.057   7.659  68.973  1.00  0.00     0.000 HD 
BRANCH   6   8
HETATM    8  C   UNL     1     -10.101   8.447  69.379  1.00  0.00    -0.198 C  
HETATM    9  C   UNL     1      -9.674   8.692  67.927  1.00  0.00    -0.192 C  
HETATM   10  C   UNL     1     -10.762   9.403  67.119  1.00  0.00    -0.234 C  
HETATM   11  C   UNL     1     -11.251  10.705  67.781  1.00  0.00    -0.383 C  
HETATM   12  C   UNL     1     -10.541   9.753  70.049  1.00  0.00    -0.320 C  
HETATM   13  C   UNL     1     -11.629  10.477  69.254  1.00  0.00    -0.308 C  
BRANCH  11  14
HETATM   14  C   UNL     1     -10.224  11.849  67.666  1.00  0.00    -0.215 C  
BRANCH  14  15
HETATM   15  C   UNL     1     -10.632  12.971  66.704  1.00  0.00    -0.266 C  
BRANCH  15  16
HETATM   16  N   UNL     1      -9.504  13.716  66.119  1.00  0.00    -0.202 NA 
HETATM   17  C   UNL     1      -9.939  14.782  65.184  1.00  0.00    -0.244 C  
HETATM   18  C   UNL     1     -10.700  15.955  65.847  1.00  0.00    -0.296 C  
HETATM   19  N   UNL     1      -9.905  16.515  66.960  1.00  0.00    -0.250 NA 
HETATM   20  C   UNL     1      -8.702  14.366  67.193  1.00  0.00    -0.226 C  
HETATM   21  C   UNL     1      -9.453  15.504  67.931  1.00  0.00    -0.201 C  
BRANCH  19  22
HETATM   22  C   UNL     1      -9.585  17.865  67.004  1.00  0.00    -0.286 A  
HETATM   23  C   UNL     1      -8.320  18.441  66.698  1.00  0.00    -0.265 A  
HETATM   24  C   UNL     1      -8.114  19.835  66.816  1.00  0.00    -0.304 A  
HETATM   25 CL   UNL     1      -7.009  17.500  66.032  1.00  0.00    -0.321 Cl 
HETATM   26  C   UNL     1      -9.160  20.685  67.175  1.00  0.00    -0.401 A  
HETATM   27 CL   UNL     1      -6.579  20.587  66.522  1.00  0.00    -0.277 Cl 
HETATM   28  C   UNL     1     -10.410  20.156  67.441  1.00  0.00    -0.488 A  
HETATM   29  C   UNL     1     -10.603  18.776  67.380  1.00  0.00    -0.505 A  
ENDBRANCH  19  22
ENDBRANCH  15  16
ENDBRANCH  14  15
ENDBRANCH  11  14
ENDBRANCH   6   8
ENDBRANCH   4   6
ENDBRANCH   2   4
TORSDOF 7
ENDMDL
MODEL       13
REMARK 921   NORMALIZED FREE ENERGY PREDICTED BY IDOCK:   -5.88 KCAL/MOL
REMARK 922        TOTAL FREE ENERGY PREDICTED BY IDOCK:   -9.06 KCAL/MOL
REMARK 923 INTER-LIGAND FREE ENERGY PREDICTED BY IDOCK:   -8.66 KCAL/MOL
REMARK 924 INTRA-LIGAND FREE ENERGY PREDICTED BY IDOCK:   -0.40 KCAL/MOL
REMARK 927      BINDING AFFINITY PREDICTED BY RF-SCORE:    0.00 PKD
ROOT
HETATM    1  C   UNL     1     -10.285  19.167  66.364  1.00  0.00    -0.438 C  
HETATM    2  N   UNL     1     -10.459  17.784  66.768  1.00  0.00    -0.328 N  
HETATM    3  C   UNL     1     -10.628  17.496  68.182  1.00  0.00    -0.366 C  
ENDROOT
BRANCH   2   4
HETATM    4  C   UNL     1     -10.544  16.843  65.750  1.00  0.00    -0.230 C  
HETATM    5  O   UNL     1     -11.115  17.071  64.685  1.00  0.00    -0.997 OA 
BRANCH   4   6
HETATM    6  N   UNL     1      -9.983  15.631  66.033  1.00  0.00    -0.307 N  
HETATM    7  H   UNL     1      -9.086  15.605  66.519  1.00  0.00     0.000 HD 
BRANCH   6   8
HETATM    8  C   UNL     1     -10.624  14.373  65.665  1.00  0.00    -0.329 C  
HETATM    9  C   UNL     1      -9.722  13.180  66.006  1.00  0.00    -0.234 C  
HETATM   10  C   UNL     1      -9.569  12.988  67.516  1.00  0.00    -0.204 C  
HETATM   11  C   UNL     1     -10.919  12.892  68.252  1.00  0.00    -0.282 C  
HETATM   12  C   UNL     1     -11.983  14.250  66.361  1.00  0.00    -0.438 C  
HETATM   13  C   UNL     1     -11.848  14.057  67.871  1.00  0.00    -0.411 C  
BRANCH  11  14
HETATM   14  C   UNL     1     -11.629  11.545  68.012  1.00  0.00    -0.370 C  
BRANCH  14  15
HETATM   15  C   UNL     1     -12.203  10.898  69.279  1.00  0.00    -0.169 C  
BRANCH  15  16
HETATM   16  N   UNL     1     -11.202  10.589  70.315  1.00  0.00    -0.312 NA 
HETATM   17  C   UNL     1     -11.746   9.750  71.410  1.00  0.00    -0.398 C  
HETATM   18  C   UNL     1     -12.132   8.311  70.995  1.00  0.00    -0.208 C  
HETATM   19  N   UNL     1     -10.988   7.647  70.333  1.00  0.00    -0.246 NA 
HETATM   20  C   UNL     1     -10.052   9.853  69.719  1.00  0.00    -0.242 C  
HETATM   21  C   UNL     1     -10.412   8.429  69.225  1.00  0.00    -0.215 C  
BRANCH  19  22
HETATM   22  C   UNL     1     -10.500   6.433  70.793  1.00  0.00    -0.222 A  
HETATM   23  C   UNL     1     -10.189   6.107  72.142  1.00  0.00    -0.186 A  
HETATM   24  C   UNL     1      -9.663   4.838  72.476  1.00  0.00    -0.148 A  
HETATM   25 CL   UNL     1     -10.566   7.181  73.466  1.00  0.00    -0.419 Cl 
HETATM   26  C   UNL     1      -9.493   3.855  71.502  1.00  0.00    -0.226 A  
HETATM   27 CL   UNL     1      -9.203   4.405  74.092  1.00  0.00    -0.112 Cl 
HETATM   28  C   UNL     1      -9.823   4.131  70.187  1.00  0.00    -0.242 A  
HETATM   29  C   UNL     1     -10.290   5.401  69.845  1.00  0.00    -0.377 A  
ENDBRANCH  19  22
ENDBRANCH  15  16
ENDBRANCH  14  15
ENDBRANCH  11  14
ENDBRANCH   6   8
ENDBRANCH   4   6
ENDBRANCH   2   4
TORSDOF 7
ENDMDL
MODEL       14
REMARK 921   NORMALIZED FREE ENERGY PREDICTED BY IDOCK:   -5.84 KCAL/MOL
REMARK 922        TOTAL FREE ENERGY PREDICTED BY IDOCK:   -9.00 KCAL/MOL
REMARK 923 INTER-LIGAND FREE ENERGY PREDICTED BY IDOCK:   -8.15 KCAL/MOL
REMARK 924 INTRA-LIGAND FREE ENERGY PREDICTED BY IDOCK:   -0.85 KCAL/MOL
REMARK 927      BINDING AFFINITY PREDICTED BY RF-SCORE:    0.00 PKD
ROOT
HETATM    1  C   UNL     1      -9.933  20.135  67.948  1.00  0.00    -0.398 C  
HETATM    2  N   UNL     1      -9.956  19.419  66.687  1.00  0.00    -0.357 N  
HETATM    3  C   UNL     1     -10.762  19.957  65.604  1.00  0.00    -0.272 C  
ENDROOT
BRANCH   2   4
HETATM    4  C   UNL     1      -9.123  18.312  66.583  1.00  0.00    -0.288 C  
HETATM    5  O   UNL     1      -8.182  18.266  65.793  1.00  0.00    -0.503 OA 
BRANCH   4   6
HETATM    6  N   UNL     1      -9.450  17.263  67.392  1.00  0.00    -0.243 N  
HETATM    7  H   UNL     1      -8.768  16.938  68.078  1.00  0.00     0.000 HD 
BRANCH   6   8
HETATM    8  C   UNL     1     -10.742  16.590  67.309  1.00  0.00    -0.243 C  
HETATM    9  C   UNL     1     -10.735  15.528  66.203  1.00  0.00    -0.315 C  
HETATM   10  C   UNL     1      -9.823  14.348  66.545  1.00  0.00    -0.298 C  
HETATM   11  C   UNL     1     -10.136  13.720  67.916  1.00  0.00    -0.246 C  
HETATM   12  C   UNL     1     -11.101  15.970  68.664  1.00  0.00    -0.349 C  
HETATM   13  C   UNL     1     -10.198  14.789  69.020  1.00  0.00    -0.237 C  
BRANCH  11  14
HETATM   14  C   UNL     1     -11.436  12.891  67.905  1.00  0.00    -0.362 C  
BRANCH  14  15
HETATM   15  C   UNL     1     -11.767  12.216  69.241  1.00  0.00    -0.328 C  
BRANCH  15  16
HETATM   16  N   UNL     1     -12.174  10.804  69.130  1.00  0.00    -0.386 NA 
HETATM   17  C   UNL     1     -11.026   9.887  68.931  1.00  0.00    -0.179 C  
HETATM   18  C   UNL     1     -10.066   9.778  70.139  1.00  0.00    -0.265 C  
HETATM   19  N   UNL     1     -10.821   9.430  71.361  1.00  0.00    -0.359 NA 
HETATM   20  C   UNL     1     -12.881  10.372  70.368  1.00  0.00    -0.183 C  
HETATM   21  C   UNL     1     -11.968  10.315  71.620  1.00  0.00    -0.160 C  
BRANCH  19  22
HETATM   22  C   UNL     1     -10.479   8.321  72.123  1.00  0.00    -0.301 A  
HETATM   23  C   UNL     1     -11.231   7.120  72.245  1.00  0.00    -0.261 A  
HETATM   24  C   UNL     1     -10.787   6.072  73.086  1.00  0.00    -0.259 A  
HETATM   25 CL   UNL     1     -12.648   6.809  71.274  1.00  0.00    -0.378 Cl 
HETATM   26  C   UNL     1      -9.573   6.166  73.765  1.00  0.00    -0.167 A  
HETATM   27 CL   UNL     1     -11.692   4.612  73.327  1.00  0.00    -0.306 Cl 
HETATM   28  C   UNL     1      -8.803   7.307  73.634  1.00  0.00    -0.223 A  
HETATM   29  C   UNL     1      -9.264   8.366  72.850  1.00  0.00    -0.288 A  
ENDBRANCH  19  22
ENDBRANCH  15  16
ENDBRANCH  14  15
ENDBRANCH  11  14
ENDBRANCH   6   8
ENDBRANCH   4   6
ENDBRANCH   2   4
TORSDOF 7
ENDMDL
MODEL       15
REMARK 921   NORMALIZED FREE ENERGY PREDICTED BY IDOCK:   -5.81 KCAL/MOL
REMARK 922        TOTAL FREE ENERGY PREDICTED BY IDOCK:   -8.96 KCAL/MOL
REMARK 923 INTER-LIGAND FREE ENERGY PREDICTED BY IDOCK:   -8.21 KCAL/MOL
REMARK 924 INTRA-LIGAND FREE ENERGY PREDICTED BY IDOCK:   -0.76 KCAL/MOL
REMARK 927      BINDING AFFINITY PREDICTED BY RF-SCORE:    0.00 PKD
ROOT
HETATM    1  C   UNL     1     -10.303  17.521  67.950  1.00  0.00    -0.371 C  
HETATM    2  N   UNL     1     -10.638  17.897  66.589  1.00  0.00    -0.289 N  
HETATM    3  C   UNL     1     -10.622  19.308  66.241  1.00  0.00    -0.454 C  
ENDROOT
BRANCH   2   4
HETATM    4  C   UNL     1     -10.859  16.860  65.692  1.00  0.00    -0.079 C  
HETATM    5  O   UNL     1     -11.147  17.057  64.514  1.00  0.00    -1.098 OA 
BRANCH   4   6
HETATM    6  N   UNL     1     -10.775  15.606  66.224  1.00  0.00    -0.309 N  
HETATM    7  H   UNL     1     -11.368  15.367  67.020  1.00  0.00     0.000 HD 
BRANCH   6   8
HETATM    8  C   UNL     1      -9.866  14.595  65.694  1.00  0.00    -0.321 C  
HETATM    9  C   UNL     1      -9.252  13.763  66.826  1.00  0.00    -0.255 C  
HETATM   10  C   UNL     1     -10.289  12.876  67.516  1.00  0.00    -0.223 C  
HETATM   11  C   UNL     1     -11.070  11.984  66.533  1.00  0.00    -0.362 C  
HETATM   12  C   UNL     1     -10.602  13.699  64.692  1.00  0.00    -0.446 C  
HETATM   13  C   UNL     1     -11.643  12.806  65.366  1.00  0.00    -0.393 C  
BRANCH  11  14
HETATM   14  C   UNL     1     -10.224  10.814  65.994  1.00  0.00    -0.310 C  
BRANCH  14  15
HETATM   15  C   UNL     1      -9.249  10.215  67.016  1.00  0.00    -0.146 C  
BRANCH  15  16
HETATM   16  N   UNL     1      -9.461   8.785  67.301  1.00  0.00    -0.153 NA 
HETATM   17  C   UNL     1      -8.362   8.185  68.095  1.00  0.00    -0.129 C  
HETATM   18  C   UNL     1      -8.243   8.716  69.543  1.00  0.00    -0.115 C  
HETATM   19  N   UNL     1      -9.538   8.584  70.242  1.00  0.00    -0.164 NA 
HETATM   20  C   UNL     1     -10.723   8.594  68.070  1.00  0.00    -0.074 C  
HETATM   21  C   UNL     1     -10.670   9.174  69.507  1.00  0.00    -0.215 C  
BRANCH  19  22
HETATM   22  C   UNL     1      -9.637   7.900  71.446  1.00  0.00    -0.153 A  
HETATM   23  C   UNL     1     -10.390   6.717  71.683  1.00  0.00    -0.205 A  
HETATM   24  C   UNL     1     -10.435   6.135  72.971  1.00  0.00    -0.226 A  
HETATM   25 CL   UNL     1     -11.178   5.844  70.392  1.00  0.00    -0.368 Cl 
HETATM   26  C   UNL     1      -9.693   6.669  74.024  1.00  0.00    -0.287 A  
HETATM   27 CL   UNL     1     -11.388   4.732  73.337  1.00  0.00    -0.419 Cl 
HETATM   28  C   UNL     1      -8.920   7.797  73.812  1.00  0.00    -0.335 A  
HETATM   29  C   UNL     1      -8.918   8.407  72.557  1.00  0.00    -0.308 A  
ENDBRANCH  19  22
ENDBRANCH  15  16
ENDBRANCH  14  15
ENDBRANCH  11  14
ENDBRANCH   6   8
ENDBRANCH   4   6
ENDBRANCH   2   4
TORSDOF 7
ENDMDL
MODEL       16
REMARK 921   NORMALIZED FREE ENERGY PREDICTED BY IDOCK:   -5.78 KCAL/MOL
REMARK 922        TOTAL FREE ENERGY PREDICTED BY IDOCK:   -8.91 KCAL/MOL
REMARK 923 INTER-LIGAND FREE ENERGY PREDICTED BY IDOCK:   -8.30 KCAL/MOL
REMARK 924 INTRA-LIGAND FREE ENERGY PREDICTED BY IDOCK:   -0.61 KCAL/MOL
REMARK 927      BINDING AFFINITY PREDICTED BY RF-SCORE:    0.00 PKD
ROOT
HETATM    1  C   UNL     1     -10.525  19.571  65.883  1.00  0.00    -0.491 C  
HETATM    2  N   UNL     1      -9.572  18.977  66.801  1.00  0.00    -0.319 N  
HETATM    3  C   UNL     1      -8.187  19.411  66.733  1.00  0.00    -0.292 C  
ENDROOT
BRANCH   2   4
HETATM    4  C   UNL     1     -10.083  18.096  67.746  1.00  0.00    -0.362 C  
HETATM    5  O   UNL     1     -10.034  18.322  68.953  1.00  0.00    -0.375 OA 
BRANCH   4   6
HETATM    6  N   UNL     1     -10.605  16.942  67.239  1.00  0.00    -0.304 N  
HETATM    7  H   UNL     1     -11.523  16.969  66.794  1.00  0.00     0.000 HD 
BRANCH   6   8
HETATM    8  C   UNL     1      -9.895  15.669  67.311  1.00  0.00    -0.225 C  
HETATM    9  C   UNL     1     -10.266  14.907  68.590  1.00  0.00    -0.236 C  
HETATM   10  C   UNL     1     -11.716  14.421  68.570  1.00  0.00    -0.370 C  
HETATM   11  C   UNL     1     -12.059  13.598  67.314  1.00  0.00    -0.385 C  
HETATM   12  C   UNL     1     -10.193  14.828  66.066  1.00  0.00    -0.320 C  
HETATM   13  C   UNL     1     -11.640  14.334  66.030  1.00  0.00    -0.362 C  
BRANCH  11  14
HETATM   14  C   UNL     1     -11.441  12.186  67.344  1.00  0.00    -0.415 C  
BRANCH  14  15
HETATM   15  C   UNL     1     -11.966  11.290  68.472  1.00  0.00    -0.218 C  
BRANCH  15  16
HETATM   16  N   UNL     1     -11.170  11.335  69.712  1.00  0.00    -0.247 NA 
HETATM   17  C   UNL     1     -11.920  10.851  70.897  1.00  0.00    -0.311 C  
HETATM   18  C   UNL     1     -12.267   9.344  70.874  1.00  0.00    -0.227 C  
HETATM   19  N   UNL     1     -11.045   8.542  70.653  1.00  0.00    -0.251 NA 
HETATM   20  C   UNL     1      -9.955  10.484  69.576  1.00  0.00    -0.158 C  
HETATM   21  C   UNL     1     -10.263   8.968  69.480  1.00  0.00    -0.203 C  
BRANCH  19  22
HETATM   22  C   UNL     1     -10.678   7.537  71.537  1.00  0.00    -0.218 A  
HETATM   23  C   UNL     1     -10.520   6.158  71.224  1.00  0.00    -0.224 A  
HETATM   24  C   UNL     1     -10.174   5.225  72.229  1.00  0.00    -0.199 A  
HETATM   25 CL   UNL     1     -10.600   5.563  69.585  1.00  0.00    -0.383 Cl 
HETATM   26  C   UNL     1      -9.920   5.641  73.535  1.00  0.00    -0.185 A  
HETATM   27 CL   UNL     1     -10.032   3.523  71.923  1.00  0.00    -0.234 Cl 
HETATM   28  C   UNL     1     -10.028   6.982  73.859  1.00  0.00    -0.370 A  
HETATM   29  C   UNL     1     -10.424   7.898  72.883  1.00  0.00    -0.422 A  
ENDBRANCH  19  22
ENDBRANCH  15  16
ENDBRANCH  14  15
ENDBRANCH  11  14
ENDBRANCH   6   8
ENDBRANCH   4   6
ENDBRANCH   2   4
TORSDOF 7
ENDMDL
MODEL       17
REMARK 921   NORMALIZED FREE ENERGY PREDICTED BY IDOCK:   -5.77 KCAL/MOL
REMARK 922        TOTAL FREE ENERGY PREDICTED BY IDOCK:   -8.90 KCAL/MOL
REMARK 923 INTER-LIGAND FREE ENERGY PREDICTED BY IDOCK:   -8.57 KCAL/MOL
REMARK 924 INTRA-LIGAND FREE ENERGY PREDICTED BY IDOCK:   -0.33 KCAL/MOL
REMARK 927      BINDING AFFINITY PREDICTED BY RF-SCORE:    0.00 PKD
ROOT
HETATM    1  C   UNL     1      -5.170  20.996  69.907  1.00  0.00    -0.337 C  
HETATM    2  N   UNL     1      -5.914  20.608  68.724  1.00  0.00    -0.338 N  
HETATM    3  C   UNL     1      -5.722  21.378  67.506  1.00  0.00    -0.348 C  
ENDROOT
BRANCH   2   4
HETATM    4  C   UNL     1      -6.690  19.460  68.823  1.00  0.00    -0.303 C  
HETATM    5  O   UNL     1      -6.326  18.470  69.453  1.00  0.00    -0.257 OA 
BRANCH   4   6
HETATM    6  N   UNL     1      -7.869  19.497  68.136  1.00  0.00    -0.304 N  
HETATM    7  H   UNL     1      -8.653  20.017  68.531  1.00  0.00     0.000 HD 
BRANCH   6   8
HETATM    8  C   UNL     1      -8.044  18.818  66.856  1.00  0.00    -0.259 C  
HETATM    9  C   UNL     1      -7.853  17.305  67.009  1.00  0.00    -0.243 C  
HETATM   10  C   UNL     1      -8.976  16.662  67.826  1.00  0.00    -0.211 C  
HETATM   11  C   UNL     1     -10.380  16.993  67.286  1.00  0.00    -0.311 C  
HETATM   12  C   UNL     1      -9.425  19.141  66.274  1.00  0.00    -0.359 C  
HETATM   13  C   UNL     1     -10.558  18.507  67.080  1.00  0.00    -0.421 C  
BRANCH  11  14
HETATM   14  C   UNL     1     -10.707  16.236  65.984  1.00  0.00    -0.217 C  
BRANCH  14  15
HETATM   15  C   UNL     1     -10.675  14.708  66.115  1.00  0.00    -0.314 C  
BRANCH  15  16
HETATM   16  N   UNL     1     -11.923  14.111  66.619  1.00  0.00    -0.427 NA 
HETATM   17  C   UNL     1     -11.972  12.639  66.441  1.00  0.00    -0.357 C  
HETATM   18  C   UNL     1     -10.951  11.848  67.293  1.00  0.00    -0.268 C  
HETATM   19  N   UNL     1     -11.082  12.217  68.719  1.00  0.00    -0.237 NA 
HETATM   20  C   UNL     1     -12.077  14.389  68.075  1.00  0.00    -0.231 C  
HETATM   21  C   UNL     1     -11.028  13.669  68.961  1.00  0.00    -0.234 C  
BRANCH  19  22
HETATM   22  C   UNL     1     -11.301  11.252  69.691  1.00  0.00    -0.287 A  
HETATM   23  C   UNL     1     -10.410  10.203  70.052  1.00  0.00    -0.250 A  
HETATM   24  C   UNL     1     -10.770   9.259  71.042  1.00  0.00    -0.316 A  
HETATM   25 CL   UNL     1      -8.789  10.101  69.412  1.00  0.00    -0.189 Cl 
HETATM   26  C   UNL     1     -11.977   9.368  71.730  1.00  0.00    -0.452 A  
HETATM   27 CL   UNL     1      -9.755   7.921  71.478  1.00  0.00    -0.191 Cl 
HETATM   28  C   UNL     1     -12.846  10.401  71.427  1.00  0.00    -0.556 A  
HETATM   29  C   UNL     1     -12.520  11.302  70.412  1.00  0.00    -0.355 A  
ENDBRANCH  19  22
ENDBRANCH  15  16
ENDBRANCH  14  15
ENDBRANCH  11  14
ENDBRANCH   6   8
ENDBRANCH   4   6
ENDBRANCH   2   4
TORSDOF 7
ENDMDL
MODEL       18
REMARK 921   NORMALIZED FREE ENERGY PREDICTED BY IDOCK:   -5.77 KCAL/MOL
REMARK 922        TOTAL FREE ENERGY PREDICTED BY IDOCK:   -8.90 KCAL/MOL
REMARK 923 INTER-LIGAND FREE ENERGY PREDICTED BY IDOCK:   -8.53 KCAL/MOL
REMARK 924 INTRA-LIGAND FREE ENERGY PREDICTED BY IDOCK:   -0.37 KCAL/MOL
REMARK 927      BINDING AFFINITY PREDICTED BY RF-SCORE:    0.00 PKD
ROOT
HETATM    1  C   UNL     1     -10.741  17.069  65.429  1.00  0.00    -0.116 C  
HETATM    2  N   UNL     1     -11.124  15.699  65.714  1.00  0.00    -0.233 N  
HETATM    3  C   UNL     1     -11.152  15.266  67.102  1.00  0.00    -0.323 C  
ENDROOT
BRANCH   2   4
HETATM    4  C   UNL     1     -11.528  14.926  64.633  1.00  0.00    -0.379 C  
HETATM    5  O   UNL     1     -12.532  15.187  63.974  1.00  0.00    -0.771 OA 
BRANCH   4   6
HETATM    6  N   UNL     1     -10.752  13.832  64.382  1.00  0.00    -0.571 N  
HETATM    7  H   UNL     1      -9.814  13.969  64.004  1.00  0.00     0.000 HD 
BRANCH   6   8
HETATM    8  C   UNL     1     -11.219  12.472  64.635  1.00  0.00    -0.312 C  
HETATM    9  C   UNL     1     -10.813  11.533  63.493  1.00  0.00    -0.473 C  
HETATM   10  C   UNL     1      -9.300  11.308  63.443  1.00  0.00    -0.253 C  
HETATM   11  C   UNL     1      -8.717  10.833  64.787  1.00  0.00    -0.118 C  
HETATM   12  C   UNL     1     -10.677  11.971  65.977  1.00  0.00    -0.317 C  
HETATM   13  C   UNL     1      -9.166  11.741  65.945  1.00  0.00    -0.178 C  
BRANCH  11  14
HETATM   14  C   UNL     1      -9.065   9.364  65.098  1.00  0.00    -0.280 C  
BRANCH  14  15
HETATM   15  C   UNL     1      -8.190   8.721  66.181  1.00  0.00    -0.117 C  
BRANCH  15  16
HETATM   16  N   UNL     1      -8.884   7.730  67.021  1.00  0.00    -0.124 NA 
HETATM   17  C   UNL     1      -8.503   7.817  68.451  1.00  0.00    -0.125 C  
HETATM   18  C   UNL     1      -8.954   9.113  69.165  1.00  0.00    -0.144 C  
HETATM   19  N   UNL     1     -10.408   9.313  68.988  1.00  0.00    -0.210 NA 
HETATM   20  C   UNL     1     -10.359   7.927  66.940  1.00  0.00    -0.330 C  
HETATM   21  C   UNL     1     -10.847   9.250  67.584  1.00  0.00    -0.119 C  
BRANCH  19  22
HETATM   22  C   UNL     1     -11.247   9.475  70.082  1.00  0.00    -0.234 A  
HETATM   23  C   UNL     1     -11.910  10.674  70.464  1.00  0.00    -0.357 A  
HETATM   24  C   UNL     1     -12.715  10.715  71.626  1.00  0.00    -0.426 A  
HETATM   25 CL   UNL     1     -11.889  12.105  69.464  1.00  0.00    -0.383 Cl 
HETATM   26  C   UNL     1     -12.928   9.568  72.390  1.00  0.00    -0.396 A  
HETATM   27 CL   UNL     1     -13.495  12.163  72.180  1.00  0.00    -0.531 Cl 
HETATM   28  C   UNL     1     -12.327   8.379  72.019  1.00  0.00    -0.413 A  
HETATM   29  C   UNL     1     -11.487   8.347  70.906  1.00  0.00    -0.295 A  
ENDBRANCH  19  22
ENDBRANCH  15  16
ENDBRANCH  14  15
ENDBRANCH  11  14
ENDBRANCH   6   8
ENDBRANCH   4   6
ENDBRANCH   2   4
TORSDOF 7
ENDMDL
MODEL       19
REMARK 921   NORMALIZED FREE ENERGY PREDICTED BY IDOCK:   -5.72 KCAL/MOL
REMARK 922        TOTAL FREE ENERGY PREDICTED BY IDOCK:   -8.84 KCAL/MOL
REMARK 923 INTER-LIGAND FREE ENERGY PREDICTED BY IDOCK:   -8.09 KCAL/MOL
REMARK 924 INTRA-LIGAND FREE ENERGY PREDICTED BY IDOCK:   -0.75 KCAL/MOL
REMARK 927      BINDING AFFINITY PREDICTED BY RF-SCORE:    0.00 PKD
ROOT
HETATM    1  C   UNL     1     -10.363  17.995  66.083  1.00  0.00    -0.366 C  
HETATM    2  N   UNL     1     -10.027  16.654  65.646  1.00  0.00    -0.229 N  
HETATM    3  C   UNL     1      -8.853  16.016  66.220  1.00  0.00    -0.344 C  
ENDROOT
BRANCH   2   4
HETATM    4  C   UNL     1     -10.915  16.041  64.771  1.00  0.00    -0.356 C  
HETATM    5  O   UNL     1     -11.782  16.668  64.165  1.00  0.00    -1.034 OA 
BRANCH   4   6
HETATM    6  N   UNL     1     -10.783  14.687  64.665  1.00  0.00    -0.609 N  
HETATM    7  H   UNL     1      -9.946  14.307  64.221  1.00  0.00     0.000 HD 
BRANCH   6   8
HETATM    8  C   UNL     1     -11.797  13.765  65.165  1.00  0.00    -0.352 C  
HETATM    9  C   UNL     1     -11.516  12.334  64.692  1.00  0.00    -0.392 C  
HETATM   10  C   UNL     1     -10.259  11.750  65.340  1.00  0.00    -0.301 C  
HETATM   11  C   UNL     1     -10.279  11.833  66.878  1.00  0.00    -0.236 C  
HETATM   12  C   UNL     1     -11.864  13.834  66.695  1.00  0.00    -0.445 C  
HETATM   13  C   UNL     1     -10.614  13.255  67.358  1.00  0.00    -0.250 C  
BRANCH  11  14
HETATM   14  C   UNL     1     -11.248  10.815  67.513  1.00  0.00    -0.346 C  
BRANCH  14  15
HETATM   15  C   UNL     1     -10.628   9.962  68.627  1.00  0.00    -0.217 C  
BRANCH  15  16
HETATM   16  N   UNL     1      -9.688   8.929  68.156  1.00  0.00    -0.156 NA 
HETATM   17  C   UNL     1      -8.728   8.503  69.203  1.00  0.00    -0.134 C  
HETATM   18  C   UNL     1      -9.360   7.745  70.394  1.00  0.00    -0.160 C  
HETATM   19  N   UNL     1     -10.157   6.601  69.905  1.00  0.00    -0.174 NA 
HETATM   20  C   UNL     1     -10.433   7.717  67.715  1.00  0.00    -0.216 C  
HETATM   21  C   UNL     1     -11.140   6.964  68.871  1.00  0.00    -0.114 C  
BRANCH  19  22
HETATM   22  C   UNL     1      -9.917   5.312  70.362  1.00  0.00    -0.233 A  
HETATM   23  C   UNL     1     -10.352   4.764  71.600  1.00  0.00    -0.145 A  
HETATM   24  C   UNL     1     -10.009   3.441  71.964  1.00  0.00    -0.152 A  
HETATM   25 CL   UNL     1     -11.436   5.622  72.666  1.00  0.00    -0.355 Cl 
HETATM   26  C   UNL     1      -9.290   2.623  71.093  1.00  0.00    -0.210 A  
HETATM   27 CL   UNL     1     -10.453   2.738  73.487  1.00  0.00    -0.218 Cl 
HETATM   28  C   UNL     1      -8.888   3.118  69.866  1.00  0.00    -0.151 A  
HETATM   29  C   UNL     1      -9.175   4.440  69.527  1.00  0.00    -0.196 A  
ENDBRANCH  19  22
ENDBRANCH  15  16
ENDBRANCH  14  15
ENDBRANCH  11  14
ENDBRANCH   6   8
ENDBRANCH   4   6
ENDBRANCH   2   4
TORSDOF 7
ENDMDL
MODEL       20
REMARK 921   NORMALIZED FREE ENERGY PREDICTED BY IDOCK:   -5.70 KCAL/MOL
REMARK 922        TOTAL FREE ENERGY PREDICTED BY IDOCK:   -8.81 KCAL/MOL
REMARK 923 INTER-LIGAND FREE ENERGY PREDICTED BY IDOCK:   -7.81 KCAL/MOL
REMARK 924 INTRA-LIGAND FREE ENERGY PREDICTED BY IDOCK:   -1.00 KCAL/MOL
REMARK 927      BINDING AFFINITY PREDICTED BY RF-SCORE:    0.00 PKD
ROOT
HETATM    1  C   UNL     1     -14.389   8.111  71.756  1.00  0.00    -0.484 C  
HETATM    2  N   UNL     1     -13.070   8.703  71.866  1.00  0.00    -0.353 N  
HETATM    3  C   UNL     1     -12.950  10.147  71.747  1.00  0.00    -0.462 C  
ENDROOT
BRANCH   2   4
HETATM    4  C   UNL     1     -12.024   7.842  72.173  1.00  0.00    -0.317 C  
HETATM    5  O   UNL     1     -11.361   7.949  73.203  1.00  0.00    -0.361 OA 
BRANCH   4   6
HETATM    6  N   UNL     1     -11.758   6.893  71.228  1.00  0.00    -0.308 N  
HETATM    7  H   UNL     1     -11.895   5.910  71.465  1.00  0.00     0.000 HD 
BRANCH   6   8
HETATM    8  C   UNL     1     -11.286   7.238  69.891  1.00  0.00    -0.170 C  
HETATM    9  C   UNL     1      -9.972   8.026  69.961  1.00  0.00    -0.191 C  
HETATM   10  C   UNL     1      -8.810   7.164  70.458  1.00  0.00    -0.154 C  
HETATM   11  C   UNL     1      -8.635   5.864  69.651  1.00  0.00    -0.121 C  
HETATM   12  C   UNL     1     -11.120   5.969  69.048  1.00  0.00    -0.377 C  
HETATM   13  C   UNL     1      -9.963   5.096  69.532  1.00  0.00    -0.301 C  
BRANCH  11  14
HETATM   14  C   UNL     1      -8.036   6.111  68.253  1.00  0.00    -0.107 C  
BRANCH  14  15
HETATM   15  C   UNL     1      -7.494   7.530  68.039  1.00  0.00    -0.105 C  
BRANCH  15  16
HETATM   16  N   UNL     1      -7.413   7.948  66.629  1.00  0.00    -0.088 NA 
HETATM   17  C   UNL     1      -8.671   7.706  65.882  1.00  0.00    -0.152 C  
HETATM   18  C   UNL     1      -9.872   8.571  66.333  1.00  0.00    -0.257 C  
HETATM   19  N   UNL     1      -9.505  10.003  66.309  1.00  0.00    -0.180 NA 
HETATM   20  C   UNL     1      -7.116   9.406  66.539  1.00  0.00    -0.085 C  
HETATM   21  C   UNL     1      -8.268  10.309  67.047  1.00  0.00    -0.122 C  
BRANCH  19  22
HETATM   22  C   UNL     1     -10.254  10.922  65.588  1.00  0.00    -0.263 A  
HETATM   23  C   UNL     1     -11.115  11.917  66.130  1.00  0.00    -0.326 A  
HETATM   24  C   UNL     1     -11.852  12.775  65.281  1.00  0.00    -0.403 A  
HETATM   25 CL   UNL     1     -11.203  12.234  67.844  1.00  0.00    -0.301 Cl 
HETATM   26  C   UNL     1     -11.708  12.707  63.895  1.00  0.00    -0.532 A  
HETATM   27 CL   UNL     1     -12.966  13.962  65.880  1.00  0.00    -0.405 Cl 
HETATM   28  C   UNL     1     -10.848  11.774  63.342  1.00  0.00    -0.460 A  
HETATM   29  C   UNL     1     -10.161  10.890  64.174  1.00  0.00    -0.424 A  
ENDBRANCH  19  22
ENDBRANCH  15  16
ENDBRANCH  14  15
ENDBRANCH  11  14
ENDBRANCH   6   8
ENDBRANCH   4   6
ENDBRANCH   2   4
TORSDOF 7
ENDMDL
MODEL       21
REMARK 921   NORMALIZED FREE ENERGY PREDICTED BY IDOCK:   -5.68 KCAL/MOL
REMARK 922        TOTAL FREE ENERGY PREDICTED BY IDOCK:   -8.78 KCAL/MOL
REMARK 923 INTER-LIGAND FREE ENERGY PREDICTED BY IDOCK:   -7.89 KCAL/MOL
REMARK 924 INTRA-LIGAND FREE ENERGY PREDICTED BY IDOCK:   -0.89 KCAL/MOL
REMARK 927      BINDING AFFINITY PREDICTED BY RF-SCORE:    0.00 PKD
ROOT
HETATM    1  C   UNL     1      -9.825   6.651  72.605  1.00  0.00    -0.168 C  
HETATM    2  N   UNL     1      -9.245   6.945  71.309  1.00  0.00    -0.157 N  
HETATM    3  C   UNL     1      -9.013   5.841  70.392  1.00  0.00    -0.146 C  
ENDROOT
BRANCH   2   4
HETATM    4  C   UNL     1      -9.040   8.285  71.007  1.00  0.00    -0.158 C  
HETATM    5  O   UNL     1      -8.751   9.118  71.863  1.00  0.00    -0.336 OA 
BRANCH   4   6
HETATM    6  N   UNL     1      -9.223   8.617  69.696  1.00  0.00    -0.155 N  
HETATM    7  H   UNL     1      -8.425   8.580  69.061  1.00  0.00     0.000 HD 
BRANCH   6   8
HETATM    8  C   UNL     1     -10.523   9.025  69.171  1.00  0.00    -0.225 C  
HETATM    9  C   UNL     1     -10.781  10.512  69.442  1.00  0.00    -0.277 C  
HETATM   10  C   UNL     1      -9.852  11.414  68.628  1.00  0.00    -0.199 C  
HETATM   11  C   UNL     1      -9.886  11.111  67.118  1.00  0.00    -0.212 C  
HETATM   12  C   UNL     1     -10.605   8.718  67.672  1.00  0.00    -0.281 C  
HETATM   13  C   UNL     1      -9.682   9.611  66.844  1.00  0.00    -0.240 C  
BRANCH  11  14
HETATM   14  C   UNL     1     -11.182  11.603  66.445  1.00  0.00    -0.349 C  
BRANCH  14  15
HETATM   15  C   UNL     1     -10.980  12.751  65.448  1.00  0.00    -0.283 C  
BRANCH  15  16
HETATM   16  N   UNL     1     -11.859  13.913  65.665  1.00  0.00    -0.354 NA 
HETATM   17  C   UNL     1     -11.854  14.385  67.071  1.00  0.00    -0.412 C  
HETATM   18  C   UNL     1     -10.513  14.990  67.548  1.00  0.00    -0.256 C  
HETATM   19  N   UNL     1     -10.079  16.060  66.626  1.00  0.00    -0.269 NA 
HETATM   20  C   UNL     1     -11.426  15.055  64.811  1.00  0.00    -0.403 C  
HETATM   21  C   UNL     1     -10.051  15.647  65.213  1.00  0.00    -0.270 C  
BRANCH  19  22
HETATM   22  C   UNL     1      -9.800  17.338  67.091  1.00  0.00    -0.269 A  
HETATM   23  C   UNL     1      -8.647  17.734  67.823  1.00  0.00    -0.237 A  
HETATM   24  C   UNL     1      -8.498  19.067  68.271  1.00  0.00    -0.331 A  
HETATM   25 CL   UNL     1      -7.299  16.656  68.086  1.00  0.00    -0.165 Cl 
HETATM   26  C   UNL     1      -9.447  20.038  67.954  1.00  0.00    -0.467 A  
HETATM   27 CL   UNL     1      -7.147  19.595  69.223  1.00  0.00    -0.395 Cl 
HETATM   28  C   UNL     1     -10.560  19.689  67.210  1.00  0.00    -0.598 A  
HETATM   29  C   UNL     1     -10.738  18.364  66.814  1.00  0.00    -0.274 A  
ENDBRANCH  19  22
ENDBRANCH  15  16
ENDBRANCH  14  15
ENDBRANCH  11  14
ENDBRANCH   6   8
ENDBRANCH   4   6
ENDBRANCH   2   4
TORSDOF 7
ENDMDL
MODEL       22
REMARK 921   NORMALIZED FREE ENERGY PREDICTED BY IDOCK:   -5.65 KCAL/MOL
REMARK 922        TOTAL FREE ENERGY PREDICTED BY IDOCK:   -8.73 KCAL/MOL
REMARK 923 INTER-LIGAND FREE ENERGY PREDICTED BY IDOCK:   -8.12 KCAL/MOL
REMARK 924 INTRA-LIGAND FREE ENERGY PREDICTED BY IDOCK:   -0.61 KCAL/MOL
REMARK 927      BINDING AFFINITY PREDICTED BY RF-SCORE:    0.00 PKD
ROOT
HETATM    1  C   UNL     1      -8.254  16.855  66.237  1.00  0.00    -0.309 C  
HETATM    2  N   UNL     1      -9.683  16.923  66.481  1.00  0.00    -0.267 N  
HETATM    3  C   UNL     1     -10.199  18.049  67.241  1.00  0.00    -0.364 C  
ENDROOT
BRANCH   2   4
HETATM    4  C   UNL     1     -10.465  15.943  65.884  1.00  0.00    -0.359 C  
HETATM    5  O   UNL     1     -10.671  15.911  64.672  1.00  0.00    -0.553 OA 
BRANCH   4   6
HETATM    6  N   UNL     1     -11.022  15.042  66.744  1.00  0.00    -0.320 N  
HETATM    7  H   UNL     1     -12.031  14.891  66.715  1.00  0.00     0.000 HD 
BRANCH   6   8
HETATM    8  C   UNL     1     -10.224  14.288  67.706  1.00  0.00    -0.235 C  
HETATM    9  C   UNL     1     -10.751  14.488  69.131  1.00  0.00    -0.263 C  
HETATM   10  C   UNL     1     -12.122  13.841  69.334  1.00  0.00    -0.377 C  
HETATM   11  C   UNL     1     -12.153  12.354  68.935  1.00  0.00    -0.171 C  
HETATM   12  C   UNL     1     -10.210  12.803  67.329  1.00  0.00    -0.232 C  
HETATM   13  C   UNL     1     -11.574  12.141  67.525  1.00  0.00    -0.413 C  
BRANCH  11  14
HETATM   14  C   UNL     1     -11.423  11.453  69.951  1.00  0.00    -0.353 C  
BRANCH  14  15
HETATM   15  C   UNL     1     -12.314  10.394  70.611  1.00  0.00    -0.346 C  
BRANCH  15  16
HETATM   16  N   UNL     1     -11.676   9.660  71.718  1.00  0.00    -0.362 NA 
HETATM   17  C   UNL     1     -12.401   8.417  72.080  1.00  0.00    -0.361 C  
HETATM   18  C   UNL     1     -12.377   7.313  70.997  1.00  0.00    -0.297 C  
HETATM   19  N   UNL     1     -10.984   7.020  70.598  1.00  0.00    -0.250 NA 
HETATM   20  C   UNL     1     -10.286   9.272  71.346  1.00  0.00    -0.321 C  
HETATM   21  C   UNL     1     -10.215   8.216  70.214  1.00  0.00    -0.200 C  
BRANCH  19  22
HETATM   22  C   UNL     1     -10.477   5.730  70.662  1.00  0.00    -0.264 A  
HETATM   23  C   UNL     1     -10.130   4.906  69.555  1.00  0.00    -0.216 A  
HETATM   24  C   UNL     1      -9.653   3.590  69.756  1.00  0.00    -0.136 A  
HETATM   25 CL   UNL     1     -10.136   5.504  67.915  1.00  0.00    -0.198 Cl 
HETATM   26  C   UNL     1      -9.452   3.090  71.042  1.00  0.00    -0.228 A  
HETATM   27 CL   UNL     1      -9.278   2.515  68.446  1.00  0.00    -0.233 Cl 
HETATM   28  C   UNL     1      -9.744   3.883  72.137  1.00  0.00    -0.225 A  
HETATM   29  C   UNL     1     -10.268   5.162  71.943  1.00  0.00    -0.269 A  
ENDBRANCH  19  22
ENDBRANCH  15  16
ENDBRANCH  14  15
ENDBRANCH  11  14
ENDBRANCH   6   8
ENDBRANCH   4   6
ENDBRANCH   2   4
TORSDOF 7
ENDMDL
MODEL       23
REMARK 921   NORMALIZED FREE ENERGY PREDICTED BY IDOCK:   -5.64 KCAL/MOL
REMARK 922        TOTAL FREE ENERGY PREDICTED BY IDOCK:   -8.72 KCAL/MOL
REMARK 923 INTER-LIGAND FREE ENERGY PREDICTED BY IDOCK:   -7.97 KCAL/MOL
REMARK 924 INTRA-LIGAND FREE ENERGY PREDICTED BY IDOCK:   -0.75 KCAL/MOL
REMARK 927      BINDING AFFINITY PREDICTED BY RF-SCORE:    0.00 PKD
ROOT
HETATM    1  C   UNL     1     -12.875  13.790  65.565  1.00  0.00    -0.419 C  
HETATM    2  N   UNL     1     -11.856  13.426  64.598  1.00  0.00    -0.374 N  
HETATM    3  C   UNL     1     -12.277  12.803  63.355  1.00  0.00    -0.504 C  
ENDROOT
BRANCH   2   4
HETATM    4  C   UNL     1     -10.550  13.791  64.901  1.00  0.00    -0.413 C  
HETATM    5  O   UNL     1     -10.212  14.962  65.061  1.00  0.00    -0.380 OA 
BRANCH   4   6
HETATM    6  N   UNL     1      -9.661  12.757  64.968  1.00  0.00    -0.495 N  
HETATM    7  H   UNL     1      -8.751  12.860  64.518  1.00  0.00     0.000 HD 
BRANCH   6   8
HETATM    8  C   UNL     1      -9.969  11.510  65.660  1.00  0.00    -0.236 C  
HETATM    9  C   UNL     1      -9.845  10.312  64.710  1.00  0.00    -0.403 C  
HETATM   10  C   UNL     1      -8.396  10.055  64.294  1.00  0.00    -0.169 C  
HETATM   11  C   UNL     1      -7.440   9.913  65.494  1.00  0.00    -0.126 C  
HETATM   12  C   UNL     1      -9.052  11.342  66.876  1.00  0.00    -0.178 C  
HETATM   13  C   UNL     1      -7.599  11.084  66.478  1.00  0.00    -0.146 C  
BRANCH  11  14
HETATM   14  C   UNL     1      -7.613   8.571  66.233  1.00  0.00    -0.090 C  
BRANCH  14  15
HETATM   15  C   UNL     1      -7.229   8.612  67.717  1.00  0.00    -0.088 C  
BRANCH  15  16
HETATM   16  N   UNL     1      -7.898   7.598  68.551  1.00  0.00    -0.119 NA 
HETATM   17  C   UNL     1      -7.978   7.987  69.980  1.00  0.00    -0.106 C  
HETATM   18  C   UNL     1      -8.894   9.199  70.272  1.00  0.00    -0.213 C  
HETATM   19  N   UNL     1     -10.240   8.969  69.706  1.00  0.00    -0.198 NA 
HETATM   20  C   UNL     1      -9.291   7.373  68.071  1.00  0.00    -0.135 C  
HETATM   21  C   UNL     1     -10.227   8.591  68.283  1.00  0.00    -0.205 C  
BRANCH  19  22
HETATM   22  C   UNL     1     -11.375   9.048  70.501  1.00  0.00    -0.243 A  
HETATM   23  C   UNL     1     -12.154   7.954  70.970  1.00  0.00    -0.230 A  
HETATM   24  C   UNL     1     -13.313   8.173  71.749  1.00  0.00    -0.345 A  
HETATM   25 CL   UNL     1     -11.657   6.296  70.739  1.00  0.00    -0.393 Cl 
HETATM   26  C   UNL     1     -13.687   9.462  72.128  1.00  0.00    -0.490 A  
HETATM   27 CL   UNL     1     -14.339   6.884  72.293  1.00  0.00    -0.221 Cl 
HETATM   28  C   UNL     1     -12.927  10.543  71.719  1.00  0.00    -0.582 A  
HETATM   29  C   UNL     1     -11.814  10.335  70.904  1.00  0.00    -0.473 A  
ENDBRANCH  19  22
ENDBRANCH  15  16
ENDBRANCH  14  15
ENDBRANCH  11  14
ENDBRANCH   6   8
ENDBRANCH   4   6
ENDBRANCH   2   4
TORSDOF 7
ENDMDL
MODEL       24
REMARK 921   NORMALIZED FREE ENERGY PREDICTED BY IDOCK:   -5.64 KCAL/MOL
REMARK 922        TOTAL FREE ENERGY PREDICTED BY IDOCK:   -8.72 KCAL/MOL
REMARK 923 INTER-LIGAND FREE ENERGY PREDICTED BY IDOCK:   -7.90 KCAL/MOL
REMARK 924 INTRA-LIGAND FREE ENERGY PREDICTED BY IDOCK:   -0.83 KCAL/MOL
REMARK 927      BINDING AFFINITY PREDICTED BY RF-SCORE:    0.00 PKD
ROOT
HETATM    1  C   UNL     1     -12.139   8.583  72.188  1.00  0.00    -0.383 C  
HETATM    2  N   UNL     1     -10.943   7.798  71.949  1.00  0.00    -0.240 N  
HETATM    3  C   UNL     1      -9.943   7.727  73.002  1.00  0.00    -0.293 C  
ENDROOT
BRANCH   2   4
HETATM    4  C   UNL     1     -10.888   7.092  70.754  1.00  0.00    -0.244 C  
HETATM    5  O   UNL     1     -11.737   6.261  70.439  1.00  0.00    -0.367 OA 
BRANCH   4   6
HETATM    6  N   UNL     1      -9.801   7.359  69.973  1.00  0.00    -0.179 N  
HETATM    7  H   UNL     1      -9.207   6.585  69.674  1.00  0.00     0.000 HD 
BRANCH   6   8
HETATM    8  C   UNL     1      -9.458   8.714  69.552  1.00  0.00    -0.162 C  
HETATM    9  C   UNL     1      -8.085   8.745  68.871  1.00  0.00    -0.114 C  
HETATM   10  C   UNL     1      -8.095   8.024  67.522  1.00  0.00    -0.123 C  
HETATM   11  C   UNL     1      -9.197   8.534  66.574  1.00  0.00    -0.239 C  
HETATM   12  C   UNL     1     -10.544   9.267  68.623  1.00  0.00    -0.219 C  
HETATM   13  C   UNL     1     -10.568   8.557  67.270  1.00  0.00    -0.315 C  
BRANCH  11  14
HETATM   14  C   UNL     1      -8.875   9.923  65.987  1.00  0.00    -0.166 C  
BRANCH  14  15
HETATM   15  C   UNL     1     -10.093  10.670  65.427  1.00  0.00    -0.291 C  
BRANCH  15  16
HETATM   16  N   UNL     1      -9.993  12.139  65.493  1.00  0.00    -0.248 NA 
HETATM   17  C   UNL     1     -11.311  12.800  65.652  1.00  0.00    -0.319 C  
HETATM   18  C   UNL     1     -12.013  12.532  67.005  1.00  0.00    -0.225 C  
HETATM   19  N   UNL     1     -11.108  12.872  68.124  1.00  0.00    -0.239 NA 
HETATM   20  C   UNL     1      -9.148  12.547  66.650  1.00  0.00    -0.203 C  
HETATM   21  C   UNL     1      -9.785  12.233  68.029  1.00  0.00    -0.205 C  
BRANCH  19  22
HETATM   22  C   UNL     1     -11.495  13.767  69.112  1.00  0.00    -0.298 A  
HETATM   23  C   UNL     1     -12.157  13.443  70.329  1.00  0.00    -0.349 A  
HETATM   24  C   UNL     1     -12.529  14.458  71.241  1.00  0.00    -0.352 A  
HETATM   25 CL   UNL     1     -12.418  11.792  70.832  1.00  0.00    -0.457 Cl 
HETATM   26  C   UNL     1     -12.202  15.792  70.999  1.00  0.00    -0.466 A  
HETATM   27 CL   UNL     1     -13.395  14.132  72.708  1.00  0.00    -0.619 Cl 
HETATM   28  C   UNL     1     -11.525  16.131  69.841  1.00  0.00    -0.286 A  
HETATM   29  C   UNL     1     -11.206  15.140  68.913  1.00  0.00    -0.292 A  
ENDBRANCH  19  22
ENDBRANCH  15  16
ENDBRANCH  14  15
ENDBRANCH  11  14
ENDBRANCH   6   8
ENDBRANCH   4   6
ENDBRANCH   2   4
TORSDOF 7
ENDMDL
MODEL       25
REMARK 921   NORMALIZED FREE ENERGY PREDICTED BY IDOCK:   -5.64 KCAL/MOL
REMARK 922        TOTAL FREE ENERGY PREDICTED BY IDOCK:   -8.72 KCAL/MOL
REMARK 923 INTER-LIGAND FREE ENERGY PREDICTED BY IDOCK:   -8.18 KCAL/MOL
REMARK 924 INTRA-LIGAND FREE ENERGY PREDICTED BY IDOCK:   -0.54 KCAL/MOL
REMARK 927      BINDING AFFINITY PREDICTED BY RF-SCORE:    0.00 PKD
ROOT
HETATM    1  C   UNL     1      -8.795   6.462  66.096  1.00  0.00    -0.150 C  
HETATM    2  N   UNL     1      -9.580   6.791  67.271  1.00  0.00    -0.132 N  
HETATM    3  C   UNL     1     -10.985   6.419  67.286  1.00  0.00    -0.392 C  
ENDROOT
BRANCH   2   4
HETATM    4  C   UNL     1      -8.897   7.358  68.339  1.00  0.00    -0.121 C  
HETATM    5  O   UNL     1      -7.673   7.309  68.441  1.00  0.00    -0.115 OA 
BRANCH   4   6
HETATM    6  N   UNL     1      -9.687   7.939  69.288  1.00  0.00    -0.157 N  
HETATM    7  H   UNL     1     -10.451   7.397  69.693  1.00  0.00     0.000 HD 
BRANCH   6   8
HETATM    8  C   UNL     1      -9.475   9.309  69.745  1.00  0.00    -0.191 C  
HETATM    9  C   UNL     1      -9.787  10.312  68.628  1.00  0.00    -0.180 C  
HETATM   10  C   UNL     1     -11.279  10.354  68.292  1.00  0.00    -0.330 C  
HETATM   11  C   UNL     1     -12.168  10.601  69.525  1.00  0.00    -0.230 C  
HETATM   12  C   UNL     1     -10.328   9.588  70.987  1.00  0.00    -0.353 C  
HETATM   13  C   UNL     1     -11.822   9.632  70.668  1.00  0.00    -0.331 C  
BRANCH  11  14
HETATM   14  C   UNL     1     -12.098  12.058  70.023  1.00  0.00    -0.355 C  
BRANCH  14  15
HETATM   15  C   UNL     1     -11.364  13.016  69.075  1.00  0.00    -0.289 C  
BRANCH  15  16
HETATM   16  N   UNL     1     -12.138  14.208  68.689  1.00  0.00    -0.325 NA 
HETATM   17  C   UNL     1     -11.955  15.343  69.626  1.00  0.00    -0.343 C  
HETATM   18  C   UNL     1     -10.534  15.955  69.634  1.00  0.00    -0.295 C  
HETATM   19  N   UNL     1     -10.132  16.328  68.261  1.00  0.00    -0.237 NA 
HETATM   20  C   UNL     1     -11.725  14.676  67.336  1.00  0.00    -0.390 C  
HETATM   21  C   UNL     1     -10.280  15.235  67.285  1.00  0.00    -0.248 C  
BRANCH  19  22
HETATM   22  C   UNL     1      -9.724  17.620  67.959  1.00  0.00    -0.301 A  
HETATM   23  C   UNL     1      -8.447  18.184  68.232  1.00  0.00    -0.284 A  
HETATM   24  C   UNL     1      -8.168  19.531  67.902  1.00  0.00    -0.310 A  
HETATM   25 CL   UNL     1      -7.122  17.228  68.846  1.00  0.00    -0.234 Cl 
HETATM   26  C   UNL     1      -9.115  20.319  67.248  1.00  0.00    -0.504 A  
HETATM   27 CL   UNL     1      -6.654  20.295  68.269  1.00  0.00    -0.326 Cl 
HETATM   28  C   UNL     1     -10.351  19.784  66.936  1.00  0.00    -0.601 A  
HETATM   29  C   UNL     1     -10.651  18.473  67.309  1.00  0.00    -0.453 A  
ENDBRANCH  19  22
ENDBRANCH  15  16
ENDBRANCH  14  15
ENDBRANCH  11  14
ENDBRANCH   6   8
ENDBRANCH   4   6
ENDBRANCH   2   4
TORSDOF 7
ENDMDL
MODEL       26
REMARK 921   NORMALIZED FREE ENERGY PREDICTED BY IDOCK:   -5.64 KCAL/MOL
REMARK 922        TOTAL FREE ENERGY PREDICTED BY IDOCK:   -8.72 KCAL/MOL
REMARK 923 INTER-LIGAND FREE ENERGY PREDICTED BY IDOCK:   -7.64 KCAL/MOL
REMARK 924 INTRA-LIGAND FREE ENERGY PREDICTED BY IDOCK:   -1.08 KCAL/MOL
REMARK 927      BINDING AFFINITY PREDICTED BY RF-SCORE:    0.00 PKD
ROOT
HETATM    1  C   UNL     1      -7.784   6.783  64.117  1.00  0.00    -0.113 C  
HETATM    2  N   UNL     1      -7.911   7.625  65.291  1.00  0.00    -0.114 N  
HETATM    3  C   UNL     1      -8.867   8.719  65.254  1.00  0.00    -0.162 C  
ENDROOT
BRANCH   2   4
HETATM    4  C   UNL     1      -7.166   7.258  66.405  1.00  0.00    -0.079 C  
HETATM    5  O   UNL     1      -6.010   7.638  66.580  1.00  0.00    -0.038 OA 
BRANCH   4   6
HETATM    6  N   UNL     1      -7.796   6.412  67.270  1.00  0.00    -0.103 N  
HETATM    7  H   UNL     1      -8.154   5.523  66.918  1.00  0.00     0.000 HD 
BRANCH   6   8
HETATM    8  C   UNL     1      -7.976   6.735  68.682  1.00  0.00    -0.119 C  
HETATM    9  C   UNL     1      -9.088   7.775  68.867  1.00  0.00    -0.141 C  
HETATM   10  C   UNL     1     -10.468   7.208  68.529  1.00  0.00    -0.229 C  
HETATM   11  C   UNL     1     -10.790   5.909  69.291  1.00  0.00    -0.414 C  
HETATM   12  C   UNL     1      -8.277   5.462  69.479  1.00  0.00    -0.096 C  
HETATM   13  C   UNL     1      -9.653   4.882  69.153  1.00  0.00    -0.231 C  
BRANCH  11  14
HETATM   14  C   UNL     1     -11.104   6.158  70.779  1.00  0.00    -0.375 C  
BRANCH  14  15
HETATM   15  C   UNL     1     -12.331   7.044  71.027  1.00  0.00    -0.356 C  
BRANCH  15  16
HETATM   16  N   UNL     1     -12.205   7.956  72.177  1.00  0.00    -0.316 NA 
HETATM   17  C   UNL     1     -11.099   8.932  72.021  1.00  0.00    -0.351 C  
HETATM   18  C   UNL     1     -11.306   9.972  70.895  1.00  0.00    -0.361 C  
HETATM   19  N   UNL     1     -12.603  10.660  71.067  1.00  0.00    -0.381 NA 
HETATM   20  C   UNL     1     -13.463   8.734  72.359  1.00  0.00    -0.401 C  
HETATM   21  C   UNL     1     -13.744   9.741  71.215  1.00  0.00    -0.135 C  
BRANCH  19  22
HETATM   22  C   UNL     1     -12.676  12.044  71.143  1.00  0.00    -0.266 A  
HETATM   23  C   UNL     1     -12.261  12.965  70.141  1.00  0.00    -0.266 A  
HETATM   24  C   UNL     1     -12.358  14.359  70.358  1.00  0.00    -0.342 A  
HETATM   25 CL   UNL     1     -11.751  12.444  68.555  1.00  0.00    -0.355 Cl 
HETATM   26  C   UNL     1     -12.918  14.864  71.531  1.00  0.00    -0.419 A  
HETATM   27 CL   UNL     1     -11.809  15.531  69.203  1.00  0.00    -0.375 Cl 
HETATM   28  C   UNL     1     -13.364  13.990  72.506  1.00  0.00    -0.639 A  
HETATM   29  C   UNL     1     -13.220  12.615  72.321  1.00  0.00    -0.465 A  
ENDBRANCH  19  22
ENDBRANCH  15  16
ENDBRANCH  14  15
ENDBRANCH  11  14
ENDBRANCH   6   8
ENDBRANCH   4   6
ENDBRANCH   2   4
TORSDOF 7
ENDMDL
MODEL       27
REMARK 921   NORMALIZED FREE ENERGY PREDICTED BY IDOCK:   -5.64 KCAL/MOL
REMARK 922        TOTAL FREE ENERGY PREDICTED BY IDOCK:   -8.72 KCAL/MOL
REMARK 923 INTER-LIGAND FREE ENERGY PREDICTED BY IDOCK:   -7.95 KCAL/MOL
REMARK 924 INTRA-LIGAND FREE ENERGY PREDICTED BY IDOCK:   -0.76 KCAL/MOL
REMARK 927      BINDING AFFINITY PREDICTED BY RF-SCORE:    0.00 PKD
ROOT
HETATM    1  C   UNL     1     -10.465  19.649  65.848  1.00  0.00    -0.493 C  
HETATM    2  N   UNL     1      -9.568  19.512  66.980  1.00  0.00    -0.321 N  
HETATM    3  C   UNL     1      -8.183  19.919  66.814  1.00  0.00    -0.319 C  
ENDROOT
BRANCH   2   4
HETATM    4  C   UNL     1     -10.132  19.084  68.175  1.00  0.00    -0.395 C  
HETATM    5  O   UNL     1     -10.128  19.775  69.191  1.00  0.00    -0.438 OA 
BRANCH   4   6
HETATM    6  N   UNL     1     -10.654  17.823  68.149  1.00  0.00    -0.371 N  
HETATM    7  H   UNL     1     -11.633  17.700  67.887  1.00  0.00     0.000 HD 
BRANCH   6   8
HETATM    8  C   UNL     1      -9.861  16.645  68.486  1.00  0.00    -0.252 C  
HETATM    9  C   UNL     1     -10.431  15.935  69.720  1.00  0.00    -0.311 C  
HETATM   10  C   UNL     1     -11.788  15.289  69.435  1.00  0.00    -0.367 C  
HETATM   11  C   UNL     1     -11.766  14.350  68.215  1.00  0.00    -0.376 C  
HETATM   12  C   UNL     1      -9.795  15.694  67.287  1.00  0.00    -0.225 C  
HETATM   13  C   UNL     1     -11.144  15.040  66.989  1.00  0.00    -0.334 C  
BRANCH  11  14
HETATM   14  C   UNL     1     -11.038  13.022  68.504  1.00  0.00    -0.298 C  
BRANCH  14  15
HETATM   15  C   UNL     1     -11.690  12.169  69.600  1.00  0.00    -0.325 C  
BRANCH  15  16
HETATM   16  N   UNL     1     -12.186  10.859  69.143  1.00  0.00    -0.428 NA 
HETATM   17  C   UNL     1     -11.121  10.014  68.550  1.00  0.00    -0.167 C  
HETATM   18  C   UNL     1     -10.037   9.541  69.547  1.00  0.00    -0.206 C  
HETATM   19  N   UNL     1     -10.667   8.870  70.704  1.00  0.00    -0.221 NA 
HETATM   20  C   UNL     1     -12.771  10.102  70.285  1.00  0.00    -0.043 C  
HETATM   21  C   UNL     1     -11.726   9.667  71.345  1.00  0.00    -0.404 C  
BRANCH  19  22
HETATM   22  C   UNL     1     -10.304   7.581  71.070  1.00  0.00    -0.199 A  
HETATM   23  C   UNL     1      -9.514   7.217  72.196  1.00  0.00    -0.135 A  
HETATM   24  C   UNL     1      -9.186   5.863  72.439  1.00  0.00    -0.143 A  
HETATM   25 CL   UNL     1      -9.031   8.379  73.405  1.00  0.00    -0.254 Cl 
HETATM   26  C   UNL     1      -9.678   4.849  71.619  1.00  0.00    -0.231 A  
HETATM   27 CL   UNL     1      -8.173   5.363  73.756  1.00  0.00    -0.112 Cl 
HETATM   28  C   UNL     1     -10.480   5.171  70.539  1.00  0.00    -0.278 A  
HETATM   29  C   UNL     1     -10.761   6.510  70.263  1.00  0.00    -0.307 A  
ENDBRANCH  19  22
ENDBRANCH  15  16
ENDBRANCH  14  15
ENDBRANCH  11  14
ENDBRANCH   6   8
ENDBRANCH   4   6
ENDBRANCH   2   4
TORSDOF 7
ENDMDL
MODEL       28
REMARK 921   NORMALIZED FREE ENERGY PREDICTED BY IDOCK:   -5.63 KCAL/MOL
REMARK 922        TOTAL FREE ENERGY PREDICTED BY IDOCK:   -8.70 KCAL/MOL
REMARK 923 INTER-LIGAND FREE ENERGY PREDICTED BY IDOCK:   -7.91 KCAL/MOL
REMARK 924 INTRA-LIGAND FREE ENERGY PREDICTED BY IDOCK:   -0.79 KCAL/MOL
REMARK 927      BINDING AFFINITY PREDICTED BY RF-SCORE:    0.00 PKD
ROOT
HETATM    1  C   UNL     1     -10.084   4.658  70.224  1.00  0.00    -0.206 C  
HETATM    2  N   UNL     1     -10.712   5.819  69.623  1.00  0.00    -0.323 N  
HETATM    3  C   UNL     1     -10.673   5.952  68.176  1.00  0.00    -0.251 C  
ENDROOT
BRANCH   2   4
HETATM    4  C   UNL     1     -11.390   6.675  70.481  1.00  0.00    -0.358 C  
HETATM    5  O   UNL     1     -11.785   6.322  71.590  1.00  0.00    -0.305 OA 
BRANCH   4   6
HETATM    6  N   UNL     1     -11.622   7.926  69.986  1.00  0.00    -0.467 N  
HETATM    7  H   UNL     1     -12.444   8.081  69.402  1.00  0.00     0.000 HD 
BRANCH   6   8
HETATM    8  C   UNL     1     -10.733   9.050  70.265  1.00  0.00    -0.230 C  
HETATM    9  C   UNL     1     -10.083   9.565  68.976  1.00  0.00    -0.201 C  
HETATM   10  C   UNL     1     -11.098  10.231  68.045  1.00  0.00    -0.336 C  
HETATM   11  C   UNL     1     -11.914  11.340  68.737  1.00  0.00    -0.350 C  
HETATM   12  C   UNL     1     -11.505  10.167  70.975  1.00  0.00    -0.436 C  
HETATM   13  C   UNL     1     -12.524  10.844  70.058  1.00  0.00    -0.332 C  
BRANCH  11  14
HETATM   14  C   UNL     1     -11.088  12.619  68.979  1.00  0.00    -0.291 C  
BRANCH  14  15
HETATM   15  C   UNL     1     -10.327  13.124  67.746  1.00  0.00    -0.230 C  
BRANCH  15  16
HETATM   16  N   UNL     1     -10.604  14.526  67.388  1.00  0.00    -0.268 NA 
HETATM   17  C   UNL     1     -10.626  15.429  68.564  1.00  0.00    -0.240 C  
HETATM   18  C   UNL     1      -9.260  15.613  69.266  1.00  0.00    -0.269 C  
HETATM   19  N   UNL     1      -8.236  16.037  68.288  1.00  0.00    -0.155 NA 
HETATM   20  C   UNL     1      -9.561  15.035  66.454  1.00  0.00    -0.289 C  
HETATM   21  C   UNL     1      -8.158  15.169  67.100  1.00  0.00    -0.214 C  
BRANCH  19  22
HETATM   22  C   UNL     1      -7.491  17.191  68.485  1.00  0.00    -0.238 A  
HETATM   23  C   UNL     1      -7.749  18.468  67.912  1.00  0.00    -0.251 A  
HETATM   24  C   UNL     1      -6.889  19.560  68.167  1.00  0.00    -0.271 A  
HETATM   25 CL   UNL     1      -9.196  18.797  66.992  1.00  0.00    -0.291 Cl 
HETATM   26  C   UNL     1      -5.804  19.430  69.033  1.00  0.00    -0.255 A  
HETATM   27 CL   UNL     1      -7.112  21.122  67.446  1.00  0.00    -0.403 Cl 
HETATM   28  C   UNL     1      -5.552  18.210  69.634  1.00  0.00    -0.218 A  
HETATM   29  C   UNL     1      -6.365  17.115  69.342  1.00  0.00    -0.238 A  
ENDBRANCH  19  22
ENDBRANCH  15  16
ENDBRANCH  14  15
ENDBRANCH  11  14
ENDBRANCH   6   8
ENDBRANCH   4   6
ENDBRANCH   2   4
TORSDOF 7
ENDMDL
MODEL       29
REMARK 921   NORMALIZED FREE ENERGY PREDICTED BY IDOCK:   -5.61 KCAL/MOL
REMARK 922        TOTAL FREE ENERGY PREDICTED BY IDOCK:   -8.68 KCAL/MOL
REMARK 923 INTER-LIGAND FREE ENERGY PREDICTED BY IDOCK:   -8.13 KCAL/MOL
REMARK 924 INTRA-LIGAND FREE ENERGY PREDICTED BY IDOCK:   -0.55 KCAL/MOL
REMARK 927      BINDING AFFINITY PREDICTED BY RF-SCORE:    0.00 PKD
ROOT
HETATM    1  C   UNL     1      -9.347   5.415  72.083  1.00  0.00    -0.143 C  
HETATM    2  N   UNL     1     -10.513   5.893  72.801  1.00  0.00    -0.199 N  
HETATM    3  C   UNL     1     -11.524   4.926  73.194  1.00  0.00    -0.278 C  
ENDROOT
BRANCH   2   4
HETATM    4  C   UNL     1     -10.529   7.240  73.140  1.00  0.00    -0.339 C  
HETATM    5  O   UNL     1      -9.579   7.793  73.690  1.00  0.00    -0.286 OA 
BRANCH   4   6
HETATM    6  N   UNL     1     -11.691   7.896  72.855  1.00  0.00    -0.606 N  
HETATM    7  H   UNL     1     -12.185   8.374  73.610  1.00  0.00     0.000 HD 
BRANCH   6   8
HETATM    8  C   UNL     1     -12.252   7.936  71.509  1.00  0.00    -0.311 C  
HETATM    9  C   UNL     1     -13.340   9.011  71.401  1.00  0.00    -0.331 C  
HETATM   10  C   UNL     1     -12.766  10.424  71.510  1.00  0.00    -0.564 C  
HETATM   11  C   UNL     1     -11.623  10.690  70.512  1.00  0.00    -0.444 C  
HETATM   12  C   UNL     1     -11.140   8.176  70.482  1.00  0.00    -0.257 C  
HETATM   13  C   UNL     1     -10.555   9.585  70.578  1.00  0.00    -0.358 C  
BRANCH  11  14
HETATM   14  C   UNL     1     -12.127  10.857  69.066  1.00  0.00    -0.240 C  
BRANCH  14  15
HETATM   15  C   UNL     1     -11.742  12.190  68.412  1.00  0.00    -0.332 C  
BRANCH  15  16
HETATM   16  N   UNL     1     -10.833  13.026  69.215  1.00  0.00    -0.075 NA 
HETATM   17  C   UNL     1      -9.724  13.603  68.417  1.00  0.00    -0.217 C  
HETATM   18  C   UNL     1     -10.159  14.645  67.360  1.00  0.00    -0.232 C  
HETATM   19  N   UNL     1     -10.967  15.708  67.994  1.00  0.00    -0.308 NA 
HETATM   20  C   UNL     1     -11.581  14.162  69.825  1.00  0.00    -0.290 C  
HETATM   21  C   UNL     1     -12.095  15.197  68.791  1.00  0.00    -0.165 C  
BRANCH  19  22
HETATM   22  C   UNL     1     -10.615  17.045  67.873  1.00  0.00    -0.365 A  
HETATM   23  C   UNL     1     -10.578  17.800  66.667  1.00  0.00    -0.223 A  
HETATM   24  C   UNL     1     -10.166  19.153  66.675  1.00  0.00    -0.411 A  
HETATM   25 CL   UNL     1     -11.163  17.159  65.153  1.00  0.00     0.084 Cl 
HETATM   26  C   UNL     1      -9.848  19.797  67.871  1.00  0.00    -0.522 A  
HETATM   27 CL   UNL     1     -10.036  20.105  65.231  1.00  0.00    -0.003 Cl 
HETATM   28  C   UNL     1      -9.913  19.098  69.062  1.00  0.00    -0.422 A  
HETATM   29  C   UNL     1     -10.264  17.747  69.052  1.00  0.00    -0.290 A  
ENDBRANCH  19  22
ENDBRANCH  15  16
ENDBRANCH  14  15
ENDBRANCH  11  14
ENDBRANCH   6   8
ENDBRANCH   4   6
ENDBRANCH   2   4
TORSDOF 7
ENDMDL
MODEL       30
REMARK 921   NORMALIZED FREE ENERGY PREDICTED BY IDOCK:   -5.60 KCAL/MOL
REMARK 922        TOTAL FREE ENERGY PREDICTED BY IDOCK:   -8.66 KCAL/MOL
REMARK 923 INTER-LIGAND FREE ENERGY PREDICTED BY IDOCK:   -8.09 KCAL/MOL
REMARK 924 INTRA-LIGAND FREE ENERGY PREDICTED BY IDOCK:   -0.57 KCAL/MOL
REMARK 927      BINDING AFFINITY PREDICTED BY RF-SCORE:    0.00 PKD
ROOT
HETATM    1  C   UNL     1      -7.575   3.174  64.840  1.00  0.00    -0.077 C  
HETATM    2  N   UNL     1      -8.474   4.224  64.398  1.00  0.00    -0.108 N  
HETATM    3  C   UNL     1      -9.609   3.855  63.568  1.00  0.00    -0.147 C  
ENDROOT
BRANCH   2   4
HETATM    4  C   UNL     1      -8.228   5.502  64.884  1.00  0.00    -0.136 C  
HETATM    5  O   UNL     1      -7.156   6.078  64.711  1.00  0.00    -0.056 OA 
BRANCH   4   6
HETATM    6  N   UNL     1      -9.248   6.054  65.602  1.00  0.00    -0.359 N  
HETATM    7  H   UNL     1     -10.210   5.860  65.322  1.00  0.00     0.000 HD 
BRANCH   6   8
HETATM    8  C   UNL     1      -9.009   6.913  66.758  1.00  0.00    -0.132 C  
HETATM    9  C   UNL     1     -10.315   7.553  67.243  1.00  0.00    -0.366 C  
HETATM   10  C   UNL     1     -11.270   6.523  67.849  1.00  0.00    -0.257 C  
HETATM   11  C   UNL     1     -10.619   5.678  68.961  1.00  0.00    -0.316 C  
HETATM   12  C   UNL     1      -8.340   6.112  67.880  1.00  0.00    -0.117 C  
HETATM   13  C   UNL     1      -9.281   5.078  68.497  1.00  0.00    -0.153 C  
BRANCH  11  14
HETATM   14  C   UNL     1     -10.422   6.470  70.268  1.00  0.00    -0.261 C  
BRANCH  14  15
HETATM   15  C   UNL     1     -11.695   7.142  70.799  1.00  0.00    -0.323 C  
BRANCH  15  16
HETATM   16  N   UNL     1     -11.471   8.095  71.899  1.00  0.00    -0.280 NA 
HETATM   17  C   UNL     1     -10.525   9.179  71.540  1.00  0.00    -0.352 C  
HETATM   18  C   UNL     1     -11.040  10.158  70.458  1.00  0.00    -0.327 C  
HETATM   19  N   UNL     1     -12.355  10.707  70.851  1.00  0.00    -0.364 NA 
HETATM   20  C   UNL     1     -12.756   8.738  72.294  1.00  0.00    -0.402 C  
HETATM   21  C   UNL     1     -13.344   9.676  71.208  1.00  0.00    -0.330 C  
BRANCH  19  22
HETATM   22  C   UNL     1     -12.566  12.077  70.926  1.00  0.00    -0.253 A  
HETATM   23  C   UNL     1     -12.144  13.047  69.975  1.00  0.00    -0.297 A  
HETATM   24  C   UNL     1     -12.394  14.423  70.187  1.00  0.00    -0.348 A  
HETATM   25 CL   UNL     1     -11.432  12.598  68.445  1.00  0.00    -0.323 Cl 
HETATM   26  C   UNL     1     -13.112  14.856  71.301  1.00  0.00    -0.448 A  
HETATM   27 CL   UNL     1     -11.847  15.657  69.098  1.00  0.00    -0.389 Cl 
HETATM   28  C   UNL     1     -13.568  13.931  72.222  1.00  0.00    -0.642 A  
HETATM   29  C   UNL     1     -13.276  12.578  72.046  1.00  0.00    -0.524 A  
ENDBRANCH  19  22
ENDBRANCH  15  16
ENDBRANCH  14  15
ENDBRANCH  11  14
ENDBRANCH   6   8
ENDBRANCH   4   6
ENDBRANCH   2   4
TORSDOF 7
ENDMDL
MODEL       31
REMARK 921   NORMALIZED FREE ENERGY PREDICTED BY IDOCK:   -5.57 KCAL/MOL
REMARK 922        TOTAL FREE ENERGY PREDICTED BY IDOCK:   -8.62 KCAL/MOL
REMARK 923 INTER-LIGAND FREE ENERGY PREDICTED BY IDOCK:   -7.68 KCAL/MOL
REMARK 924 INTRA-LIGAND FREE ENERGY PREDICTED BY IDOCK:   -0.94 KCAL/MOL
REMARK 927      BINDING AFFINITY PREDICTED BY RF-SCORE:    0.00 PKD
ROOT
HETATM    1  C   UNL     1     -12.014  14.319  66.957  1.00  0.00    -0.433 C  
HETATM    2  N   UNL     1     -11.455  14.913  65.758  1.00  0.00    -0.320 N  
HETATM    3  C   UNL     1     -10.547  16.039  65.905  1.00  0.00    -0.328 C  
ENDROOT
BRANCH   2   4
HETATM    4  C   UNL     1     -11.763  14.293  64.553  1.00  0.00    -0.418 C  
HETATM    5  O   UNL     1     -12.783  14.553  63.919  1.00  0.00    -0.782 OA 
BRANCH   4   6
HETATM    6  N   UNL     1     -10.870  13.345  64.145  1.00  0.00    -0.543 N  
HETATM    7  H   UNL     1      -9.946  13.640  63.830  1.00  0.00     0.000 HD 
BRANCH   6   8
HETATM    8  C   UNL     1     -11.194  11.922  64.145  1.00  0.00    -0.376 C  
HETATM    9  C   UNL     1     -10.453  11.192  63.018  1.00  0.00    -0.140 C  
HETATM   10  C   UNL     1      -8.944  11.139  63.261  1.00  0.00    -0.137 C  
HETATM   11  C   UNL     1      -8.575  10.554  64.637  1.00  0.00    -0.167 C  
HETATM   12  C   UNL     1     -10.861  11.306  65.508  1.00  0.00    -0.244 C  
HETATM   13  C   UNL     1      -9.356  11.245  65.767  1.00  0.00    -0.245 C  
BRANCH  11  14
HETATM   14  C   UNL     1      -8.780   9.028  64.705  1.00  0.00    -0.187 C  
BRANCH  14  15
HETATM   15  C   UNL     1      -8.233   8.372  65.980  1.00  0.00    -0.112 C  
BRANCH  15  16
HETATM   16  N   UNL     1      -9.071   7.286  66.518  1.00  0.00    -0.150 NA 
HETATM   17  C   UNL     1      -8.354   6.438  67.501  1.00  0.00    -0.117 C  
HETATM   18  C   UNL     1      -7.983   7.150  68.823  1.00  0.00    -0.123 C  
HETATM   19  N   UNL     1      -9.185   7.765  69.426  1.00  0.00    -0.149 NA 
HETATM   20  C   UNL     1     -10.268   7.849  67.203  1.00  0.00    -0.290 C  
HETATM   21  C   UNL     1      -9.933   8.631  68.500  1.00  0.00    -0.183 C  
BRANCH  19  22
HETATM   22  C   UNL     1      -9.566   7.468  70.727  1.00  0.00    -0.166 A  
HETATM   23  C   UNL     1     -10.076   6.225  71.193  1.00  0.00    -0.183 A  
HETATM   24  C   UNL     1     -10.461   6.062  72.543  1.00  0.00    -0.202 A  
HETATM   25 CL   UNL     1     -10.122   4.804  70.179  1.00  0.00    -0.322 Cl 
HETATM   26  C   UNL     1     -10.293   7.095  73.465  1.00  0.00    -0.412 A  
HETATM   27 CL   UNL     1     -11.151   4.592  73.155  1.00  0.00    -0.357 Cl 
HETATM   28  C   UNL     1      -9.764   8.303  73.048  1.00  0.00    -0.276 A  
HETATM   29  C   UNL     1      -9.434   8.486  71.704  1.00  0.00    -0.316 A  
ENDBRANCH  19  22
ENDBRANCH  15  16
ENDBRANCH  14  15
ENDBRANCH  11  14
ENDBRANCH   6   8
ENDBRANCH   4   6
ENDBRANCH   2   4
TORSDOF 7
ENDMDL
MODEL       32
REMARK 921   NORMALIZED FREE ENERGY PREDICTED BY IDOCK:   -5.55 KCAL/MOL
REMARK 922        TOTAL FREE ENERGY PREDICTED BY IDOCK:   -8.59 KCAL/MOL
REMARK 923 INTER-LIGAND FREE ENERGY PREDICTED BY IDOCK:   -7.83 KCAL/MOL
REMARK 924 INTRA-LIGAND FREE ENERGY PREDICTED BY IDOCK:   -0.76 KCAL/MOL
REMARK 927      BINDING AFFINITY PREDICTED BY RF-SCORE:    0.00 PKD
ROOT
HETATM    1  C   UNL     1     -10.844   5.281  72.027  1.00  0.00    -0.163 C  
HETATM    2  N   UNL     1     -11.245   6.670  72.145  1.00  0.00    -0.253 N  
HETATM    3  C   UNL     1     -10.701   7.452  73.243  1.00  0.00    -0.391 C  
ENDROOT
BRANCH   2   4
HETATM    4  C   UNL     1     -12.054   7.175  71.135  1.00  0.00    -0.358 C  
HETATM    5  O   UNL     1     -13.236   7.460  71.317  1.00  0.00    -0.348 OA 
BRANCH   4   6
HETATM    6  N   UNL     1     -11.453   7.291  69.916  1.00  0.00    -0.492 N  
HETATM    7  H   UNL     1     -11.876   6.829  69.111  1.00  0.00     0.000 HD 
BRANCH   6   8
HETATM    8  C   UNL     1     -10.224   8.055  69.724  1.00  0.00    -0.206 C  
HETATM    9  C   UNL     1      -9.695   7.890  68.295  1.00  0.00    -0.172 C  
HETATM   10  C   UNL     1     -10.606   8.558  67.263  1.00  0.00    -0.315 C  
HETATM   11  C   UNL     1     -10.895  10.037  67.581  1.00  0.00    -0.336 C  
HETATM   12  C   UNL     1     -10.465   9.532  70.053  1.00  0.00    -0.283 C  
HETATM   13  C   UNL     1     -11.374  10.214  69.032  1.00  0.00    -0.188 C  
BRANCH  11  14
HETATM   14  C   UNL     1      -9.683  10.949  67.306  1.00  0.00    -0.189 C  
BRANCH  14  15
HETATM   15  C   UNL     1      -9.635  12.215  68.171  1.00  0.00    -0.208 C  
BRANCH  15  16
HETATM   16  N   UNL     1     -10.299  13.388  67.576  1.00  0.00    -0.225 NA 
HETATM   17  C   UNL     1     -10.702  14.397  68.586  1.00  0.00    -0.253 C  
HETATM   18  C   UNL     1      -9.526  15.106  69.300  1.00  0.00    -0.212 C  
HETATM   19  N   UNL     1      -8.603  15.689  68.303  1.00  0.00    -0.156 NA 
HETATM   20  C   UNL     1      -9.387  14.064  66.611  1.00  0.00    -0.277 C  
HETATM   21  C   UNL     1      -8.156  14.730  67.279  1.00  0.00    -0.207 C  
BRANCH  19  22
HETATM   22  C   UNL     1      -8.271  17.036  68.336  1.00  0.00    -0.250 A  
HETATM   23  C   UNL     1      -9.053  18.109  67.825  1.00  0.00    -0.263 A  
HETATM   24  C   UNL     1      -8.583  19.441  67.890  1.00  0.00    -0.313 A  
HETATM   25 CL   UNL     1     -10.676  17.870  67.227  1.00  0.00    -0.328 Cl 
HETATM   26  C   UNL     1      -7.371  19.742  68.511  1.00  0.00    -0.351 A  
HETATM   27 CL   UNL     1      -9.461  20.782  67.226  1.00  0.00    -0.539 Cl 
HETATM   28  C   UNL     1      -6.607  18.723  69.050  1.00  0.00    -0.306 A  
HETATM   29  C   UNL     1      -7.041  17.402  68.939  1.00  0.00    -0.251 A  
ENDBRANCH  19  22
ENDBRANCH  15  16
ENDBRANCH  14  15
ENDBRANCH  11  14
ENDBRANCH   6   8
ENDBRANCH   4   6
ENDBRANCH   2   4
TORSDOF 7
ENDMDL
MODEL       33
REMARK 921   NORMALIZED FREE ENERGY PREDICTED BY IDOCK:   -5.49 KCAL/MOL
REMARK 922        TOTAL FREE ENERGY PREDICTED BY IDOCK:   -8.50 KCAL/MOL
REMARK 923 INTER-LIGAND FREE ENERGY PREDICTED BY IDOCK:   -7.61 KCAL/MOL
REMARK 924 INTRA-LIGAND FREE ENERGY PREDICTED BY IDOCK:   -0.90 KCAL/MOL
REMARK 927      BINDING AFFINITY PREDICTED BY RF-SCORE:    0.00 PKD
ROOT
HETATM    1  C   UNL     1      -5.506   8.233  63.245  1.00  0.00    -0.063 C  
HETATM    2  N   UNL     1      -6.331   9.146  64.013  1.00  0.00    -0.086 N  
HETATM    3  C   UNL     1      -5.718  10.358  64.531  1.00  0.00    -0.131 C  
ENDROOT
BRANCH   2   4
HETATM    4  C   UNL     1      -7.680   8.831  64.116  1.00  0.00    -0.130 C  
HETATM    5  O   UNL     1      -8.315   8.339  63.187  1.00  0.00    -0.149 OA 
BRANCH   4   6
HETATM    6  N   UNL     1      -8.259   9.148  65.311  1.00  0.00    -0.126 N  
HETATM    7  H   UNL     1      -7.693   9.105  66.159  1.00  0.00     0.000 HD 
BRANCH   6   8
HETATM    8  C   UNL     1      -9.659   9.544  65.416  1.00  0.00    -0.272 C  
HETATM    9  C   UNL     1     -10.271   9.047  66.731  1.00  0.00    -0.341 C  
HETATM   10  C   UNL     1      -9.682   9.765  67.947  1.00  0.00    -0.168 C  
HETATM   11  C   UNL     1      -9.765  11.299  67.841  1.00  0.00    -0.185 C  
HETATM   12  C   UNL     1      -9.786  11.066  65.292  1.00  0.00    -0.309 C  
HETATM   13  C   UNL     1      -9.202  11.799  66.500  1.00  0.00    -0.206 C  
BRANCH  11  14
HETATM   14  C   UNL     1     -11.198  11.830  68.047  1.00  0.00    -0.324 C  
BRANCH  14  15
HETATM   15  C   UNL     1     -11.309  12.972  69.066  1.00  0.00    -0.289 C  
BRANCH  15  16
HETATM   16  N   UNL     1     -12.113  14.120  68.613  1.00  0.00    -0.325 NA 
HETATM   17  C   UNL     1     -12.048  15.273  69.544  1.00  0.00    -0.290 C  
HETATM   18  C   UNL     1     -10.662  15.955  69.637  1.00  0.00    -0.304 C  
HETATM   19  N   UNL     1     -10.188  16.332  68.289  1.00  0.00    -0.245 NA 
HETATM   20  C   UNL     1     -11.633  14.594  67.284  1.00  0.00    -0.387 C  
HETATM   21  C   UNL     1     -10.217  15.223  67.320  1.00  0.00    -0.248 C  
BRANCH  19  22
HETATM   22  C   UNL     1      -9.824  17.639  67.997  1.00  0.00    -0.310 A  
HETATM   23  C   UNL     1      -8.563  18.241  68.261  1.00  0.00    -0.285 A  
HETATM   24  C   UNL     1      -8.330  19.599  67.944  1.00  0.00    -0.313 A  
HETATM   25 CL   UNL     1      -7.202  17.321  68.852  1.00  0.00    -0.241 Cl 
HETATM   26  C   UNL     1      -9.308  20.363  67.308  1.00  0.00    -0.547 A  
HETATM   27 CL   UNL     1      -6.837  20.407  68.303  1.00  0.00    -0.315 Cl 
HETATM   28  C   UNL     1     -10.531  19.793  67.004  1.00  0.00    -0.595 A  
HETATM   29  C   UNL     1     -10.784  18.469  67.366  1.00  0.00    -0.424 A  
ENDBRANCH  19  22
ENDBRANCH  15  16
ENDBRANCH  14  15
ENDBRANCH  11  14
ENDBRANCH   6   8
ENDBRANCH   4   6
ENDBRANCH   2   4
TORSDOF 7
ENDMDL
MODEL       34
REMARK 921   NORMALIZED FREE ENERGY PREDICTED BY IDOCK:   -5.46 KCAL/MOL
REMARK 922        TOTAL FREE ENERGY PREDICTED BY IDOCK:   -8.47 KCAL/MOL
REMARK 923 INTER-LIGAND FREE ENERGY PREDICTED BY IDOCK:   -7.89 KCAL/MOL
REMARK 924 INTRA-LIGAND FREE ENERGY PREDICTED BY IDOCK:   -0.57 KCAL/MOL
REMARK 927      BINDING AFFINITY PREDICTED BY RF-SCORE:    0.00 PKD
ROOT
HETATM    1  C   UNL     1      -7.008  20.274  67.192  1.00  0.00    -0.260 C  
HETATM    2  N   UNL     1      -7.231  19.781  68.539  1.00  0.00    -0.320 N  
HETATM    3  C   UNL     1      -6.252  20.108  69.562  1.00  0.00    -0.335 C  
ENDROOT
BRANCH   2   4
HETATM    4  C   UNL     1      -8.423  19.106  68.766  1.00  0.00    -0.341 C  
HETATM    5  O   UNL     1      -9.441  19.676  69.153  1.00  0.00    -0.351 OA 
BRANCH   4   6
HETATM    6  N   UNL     1      -8.371  17.756  68.570  1.00  0.00    -0.297 N  
HETATM    7  H   UNL     1      -7.460  17.309  68.456  1.00  0.00     0.000 HD 
BRANCH   6   8
HETATM    8  C   UNL     1      -9.573  16.931  68.516  1.00  0.00    -0.262 C  
HETATM    9  C   UNL     1     -10.429  17.290  67.296  1.00  0.00    -0.319 C  
HETATM   10  C   UNL     1      -9.754  16.892  65.982  1.00  0.00    -0.260 C  
HETATM   11  C   UNL     1      -9.330  15.412  65.946  1.00  0.00    -0.329 C  
HETATM   12  C   UNL     1      -9.193  15.447  68.502  1.00  0.00    -0.198 C  
HETATM   13  C   UNL     1      -8.517  15.032  67.195  1.00  0.00    -0.244 C  
BRANCH  11  14
HETATM   14  C   UNL     1     -10.528  14.456  65.781  1.00  0.00    -0.329 C  
BRANCH  14  15
HETATM   15  C   UNL     1     -10.150  12.971  65.723  1.00  0.00    -0.287 C  
BRANCH  15  16
HETATM   16  N   UNL     1     -11.214  12.050  66.159  1.00  0.00    -0.330 NA 
HETATM   17  C   UNL     1     -10.740  10.654  66.316  1.00  0.00    -0.102 C  
HETATM   18  C   UNL     1      -9.729  10.437  67.467  1.00  0.00    -0.169 C  
HETATM   19  N   UNL     1     -10.282  10.957  68.736  1.00  0.00    -0.188 NA 
HETATM   20  C   UNL     1     -11.764  12.484  67.474  1.00  0.00    -0.374 C  
HETATM   21  C   UNL     1     -10.759  12.348  68.646  1.00  0.00    -0.232 C  
BRANCH  19  22
HETATM   22  C   UNL     1     -10.381  10.149  69.860  1.00  0.00    -0.261 A  
HETATM   23  C   UNL     1     -11.559   9.905  70.620  1.00  0.00    -0.335 A  
HETATM   24  C   UNL     1     -11.518   9.084  71.770  1.00  0.00    -0.372 A  
HETATM   25 CL   UNL     1     -13.127  10.477  70.110  1.00  0.00    -0.088 Cl 
HETATM   26  C   UNL     1     -10.340   8.444  72.151  1.00  0.00    -0.397 A  
HETATM   27 CL   UNL     1     -12.905   8.803  72.775  1.00  0.00    -0.308 Cl 
HETATM   28  C   UNL     1      -9.188   8.632  71.408  1.00  0.00    -0.303 A  
HETATM   29  C   UNL     1      -9.211   9.486  70.305  1.00  0.00    -0.303 A  
ENDBRANCH  19  22
ENDBRANCH  15  16
ENDBRANCH  14  15
ENDBRANCH  11  14
ENDBRANCH   6   8
ENDBRANCH   4   6
ENDBRANCH   2   4
TORSDOF 7
ENDMDL
MODEL       35
REMARK 921   NORMALIZED FREE ENERGY PREDICTED BY IDOCK:   -5.43 KCAL/MOL
REMARK 922        TOTAL FREE ENERGY PREDICTED BY IDOCK:   -8.43 KCAL/MOL
REMARK 923 INTER-LIGAND FREE ENERGY PREDICTED BY IDOCK:   -7.83 KCAL/MOL
REMARK 924 INTRA-LIGAND FREE ENERGY PREDICTED BY IDOCK:   -0.60 KCAL/MOL
REMARK 927      BINDING AFFINITY PREDICTED BY RF-SCORE:    0.00 PKD
ROOT
HETATM    1  C   UNL     1     -14.402   7.971  71.626  1.00  0.00    -0.473 C  
HETATM    2  N   UNL     1     -12.962   8.137  71.582  1.00  0.00    -0.330 N  
HETATM    3  C   UNL     1     -12.418   9.476  71.745  1.00  0.00    -0.401 C  
ENDROOT
BRANCH   2   4
HETATM    4  C   UNL     1     -12.203   6.979  71.478  1.00  0.00    -0.368 C  
HETATM    5  O   UNL     1     -11.781   6.376  72.463  1.00  0.00    -0.261 OA 
BRANCH   4   6
HETATM    6  N   UNL     1     -11.924   6.581  70.203  1.00  0.00    -0.549 N  
HETATM    7  H   UNL     1     -12.698   6.389  69.566  1.00  0.00     0.000 HD 
BRANCH   6   8
HETATM    8  C   UNL     1     -10.556   6.421  69.720  1.00  0.00    -0.254 C  
HETATM    9  C   UNL     1     -10.530   5.641  68.400  1.00  0.00    -0.263 C  
HETATM   10  C   UNL     1     -11.145   6.439  67.248  1.00  0.00    -0.416 C  
HETATM   11  C   UNL     1     -10.520   7.836  67.080  1.00  0.00    -0.419 C  
HETATM   12  C   UNL     1      -9.890   7.792  69.560  1.00  0.00    -0.179 C  
HETATM   13  C   UNL     1     -10.494   8.602  68.413  1.00  0.00    -0.220 C  
BRANCH  11  14
HETATM   14  C   UNL     1      -9.105   7.781  66.470  1.00  0.00    -0.208 C  
BRANCH  14  15
HETATM   15  C   UNL     1      -8.231   9.001  66.790  1.00  0.00    -0.115 C  
BRANCH  15  16
HETATM   16  N   UNL     1      -8.040   9.930  65.663  1.00  0.00    -0.123 NA 
HETATM   17  C   UNL     1      -9.317  10.345  65.034  1.00  0.00    -0.229 C  
HETATM   18  C   UNL     1     -10.227  11.219  65.930  1.00  0.00    -0.249 C  
HETATM   19  N   UNL     1      -9.476  12.388  66.433  1.00  0.00    -0.241 NA 
HETATM   20  C   UNL     1      -7.347  11.166  66.125  1.00  0.00    -0.007 C  
HETATM   21  C   UNL     1      -8.201  12.037  67.081  1.00  0.00    -0.181 C  
BRANCH  19  22
HETATM   22  C   UNL     1      -9.940  13.680  66.230  1.00  0.00    -0.300 A  
HETATM   23  C   UNL     1      -9.943  14.734  67.185  1.00  0.00    -0.236 A  
HETATM   24  C   UNL     1     -10.479  16.002  66.861  1.00  0.00    -0.306 A  
HETATM   25 CL   UNL     1      -9.170  14.577  68.743  1.00  0.00    -0.186 Cl 
HETATM   26  C   UNL     1     -10.960  16.268  65.579  1.00  0.00    -0.154 A  
HETATM   27 CL   UNL     1     -10.571  17.305  68.002  1.00  0.00    -0.384 Cl 
HETATM   28  C   UNL     1     -10.934  15.273  64.619  1.00  0.00    -0.322 A  
HETATM   29  C   UNL     1     -10.458  14.005  64.951  1.00  0.00    -0.453 A  
ENDBRANCH  19  22
ENDBRANCH  15  16
ENDBRANCH  14  15
ENDBRANCH  11  14
ENDBRANCH   6   8
ENDBRANCH   4   6
ENDBRANCH   2   4
TORSDOF 7
ENDMDL
MODEL       36
REMARK 921   NORMALIZED FREE ENERGY PREDICTED BY IDOCK:   -5.43 KCAL/MOL
REMARK 922        TOTAL FREE ENERGY PREDICTED BY IDOCK:   -8.42 KCAL/MOL
REMARK 923 INTER-LIGAND FREE ENERGY PREDICTED BY IDOCK:   -7.65 KCAL/MOL
REMARK 924 INTRA-LIGAND FREE ENERGY PREDICTED BY IDOCK:   -0.78 KCAL/MOL
REMARK 927      BINDING AFFINITY PREDICTED BY RF-SCORE:    0.00 PKD
ROOT
HETATM    1  C   UNL     1      -5.526  20.965  67.723  1.00  0.00    -0.263 C  
HETATM    2  N   UNL     1      -6.386  19.907  67.229  1.00  0.00    -0.188 N  
HETATM    3  C   UNL     1      -6.058  19.293  65.952  1.00  0.00    -0.188 C  
ENDROOT
BRANCH   2   4
HETATM    4  C   UNL     1      -7.413  19.494  68.067  1.00  0.00    -0.285 C  
HETATM    5  O   UNL     1      -7.358  19.618  69.289  1.00  0.00    -0.356 OA 
BRANCH   4   6
HETATM    6  N   UNL     1      -8.471  18.904  67.439  1.00  0.00    -0.274 N  
HETATM    7  H   UNL     1      -8.744  19.237  66.514  1.00  0.00     0.000 HD 
BRANCH   6   8
HETATM    8  C   UNL     1      -9.226  17.813  68.047  1.00  0.00    -0.273 C  
HETATM    9  C   UNL     1     -10.574  17.621  67.341  1.00  0.00    -0.320 C  
HETATM   10  C   UNL     1     -10.407  17.090  65.916  1.00  0.00    -0.310 C  
HETATM   11  C   UNL     1      -9.556  15.808  65.845  1.00  0.00    -0.382 C  
HETATM   12  C   UNL     1      -8.402  16.521  68.016  1.00  0.00    -0.180 C  
HETATM   13  C   UNL     1      -8.226  15.978  66.598  1.00  0.00    -0.324 C  
BRANCH  11  14
HETATM   14  C   UNL     1     -10.309  14.568  66.367  1.00  0.00    -0.296 C  
BRANCH  14  15
HETATM   15  C   UNL     1      -9.410  13.361  66.664  1.00  0.00    -0.241 C  
BRANCH  15  16
HETATM   16  N   UNL     1      -9.703  12.166  65.855  1.00  0.00    -0.243 NA 
HETATM   17  C   UNL     1      -8.737  11.064  66.082  1.00  0.00    -0.184 C  
HETATM   18  C   UNL     1      -8.792  10.433  67.494  1.00  0.00    -0.134 C  
HETATM   19  N   UNL     1     -10.172  10.005  67.807  1.00  0.00    -0.180 NA 
HETATM   20  C   UNL     1     -11.060  11.643  66.179  1.00  0.00    -0.280 C  
HETATM   21  C   UNL     1     -11.178  11.063  67.612  1.00  0.00    -0.305 C  
BRANCH  19  22
HETATM   22  C   UNL     1     -10.449   8.698  68.182  1.00  0.00    -0.187 A  
HETATM   23  C   UNL     1     -10.727   8.241  69.500  1.00  0.00    -0.174 A  
HETATM   24  C   UNL     1     -10.961   6.869  69.754  1.00  0.00    -0.270 A  
HETATM   25 CL   UNL     1     -10.935   9.341  70.839  1.00  0.00    -0.337 Cl 
HETATM   26  C   UNL     1     -10.986   5.942  68.713  1.00  0.00    -0.311 A  
HETATM   27 CL   UNL     1     -11.239   6.242  71.348  1.00  0.00    -0.336 Cl 
HETATM   28  C   UNL     1     -10.758   6.365  67.416  1.00  0.00    -0.411 A  
HETATM   29  C   UNL     1     -10.471   7.708  67.167  1.00  0.00    -0.412 A  
ENDBRANCH  19  22
ENDBRANCH  15  16
ENDBRANCH  14  15
ENDBRANCH  11  14
ENDBRANCH   6   8
ENDBRANCH   4   6
ENDBRANCH   2   4
TORSDOF 7
ENDMDL
MODEL       37
REMARK 921   NORMALIZED FREE ENERGY PREDICTED BY IDOCK:   -5.42 KCAL/MOL
REMARK 922        TOTAL FREE ENERGY PREDICTED BY IDOCK:   -8.42 KCAL/MOL
REMARK 923 INTER-LIGAND FREE ENERGY PREDICTED BY IDOCK:   -7.68 KCAL/MOL
REMARK 924 INTRA-LIGAND FREE ENERGY PREDICTED BY IDOCK:   -0.74 KCAL/MOL
REMARK 927      BINDING AFFINITY PREDICTED BY RF-SCORE:    0.00 PKD
ROOT
HETATM    1  C   UNL     1      -9.820  17.927  67.268  1.00  0.00    -0.309 C  
HETATM    2  N   UNL     1      -9.404  17.100  66.152  1.00  0.00    -0.230 N  
HETATM    3  C   UNL     1      -7.984  16.839  65.979  1.00  0.00    -0.075 C  
ENDROOT
BRANCH   2   4
HETATM    4  C   UNL     1     -10.414  16.539  65.380  1.00  0.00    -0.269 C  
HETATM    5  O   UNL     1     -11.125  17.211  64.636  1.00  0.00    -1.036 OA 
BRANCH   4   6
HETATM    6  N   UNL     1     -10.586  15.195  65.540  1.00  0.00    -0.338 N  
HETATM    7  H   UNL     1     -10.421  14.579  64.744  1.00  0.00     0.000 HD 
BRANCH   6   8
HETATM    8  C   UNL     1     -10.999  14.610  66.812  1.00  0.00    -0.323 C  
HETATM    9  C   UNL     1     -12.117  13.581  66.603  1.00  0.00    -0.447 C  
HETATM   10  C   UNL     1     -11.622  12.335  65.866  1.00  0.00    -0.450 C  
HETATM   11  C   UNL     1     -10.391  11.690  66.530  1.00  0.00    -0.259 C  
HETATM   12  C   UNL     1      -9.795  13.976  67.516  1.00  0.00    -0.236 C  
HETATM   13  C   UNL     1      -9.288  12.729  66.791  1.00  0.00    -0.241 C  
BRANCH  11  14
HETATM   14  C   UNL     1     -10.743  10.948  67.834  1.00  0.00    -0.274 C  
BRANCH  14  15
HETATM   15  C   UNL     1      -9.531  10.397  68.595  1.00  0.00    -0.167 C  
BRANCH  15  16
HETATM   16  N   UNL     1      -9.787  10.084  70.012  1.00  0.00    -0.233 NA 
HETATM   17  C   UNL     1     -10.987   9.236  70.208  1.00  0.00    -0.247 C  
HETATM   18  C   UNL     1     -10.864   7.798  69.650  1.00  0.00    -0.184 C  
HETATM   19  N   UNL     1      -9.655   7.143  70.192  1.00  0.00    -0.168 NA 
HETATM   20  C   UNL     1      -8.626   9.356  70.598  1.00  0.00    -0.198 C  
HETATM   21  C   UNL     1      -8.425   7.934  70.016  1.00  0.00    -0.134 C  
BRANCH  19  22
HETATM   22  C   UNL     1      -9.735   5.927  70.856  1.00  0.00    -0.172 A  
HETATM   23  C   UNL     1     -10.118   5.732  72.212  1.00  0.00    -0.184 A  
HETATM   24  C   UNL     1     -10.126   4.437  72.781  1.00  0.00    -0.168 A  
HETATM   25 CL   UNL     1     -10.731   7.034  73.200  1.00  0.00    -0.327 Cl 
HETATM   26  C   UNL     1      -9.818   3.316  72.012  1.00  0.00    -0.240 A  
HETATM   27 CL   UNL     1     -10.519   4.143  74.445  1.00  0.00    -0.281 Cl 
HETATM   28  C   UNL     1      -9.479   3.472  70.680  1.00  0.00    -0.243 A  
HETATM   29  C   UNL     1      -9.416   4.753  70.130  1.00  0.00    -0.246 A  
ENDBRANCH  19  22
ENDBRANCH  15  16
ENDBRANCH  14  15
ENDBRANCH  11  14
ENDBRANCH   6   8
ENDBRANCH   4   6
ENDBRANCH   2   4
TORSDOF 7
ENDMDL
MODEL       38
REMARK 921   NORMALIZED FREE ENERGY PREDICTED BY IDOCK:   -5.40 KCAL/MOL
REMARK 922        TOTAL FREE ENERGY PREDICTED BY IDOCK:   -8.38 KCAL/MOL
REMARK 923 INTER-LIGAND FREE ENERGY PREDICTED BY IDOCK:   -7.73 KCAL/MOL
REMARK 924 INTRA-LIGAND FREE ENERGY PREDICTED BY IDOCK:   -0.66 KCAL/MOL
REMARK 927      BINDING AFFINITY PREDICTED BY RF-SCORE:    0.00 PKD
ROOT
HETATM    1  C   UNL     1     -11.825  14.870  72.087  1.00  0.00    -0.310 C  
HETATM    2  N   UNL     1     -12.525  13.921  71.241  1.00  0.00    -0.359 N  
HETATM    3  C   UNL     1     -12.351  14.024  69.802  1.00  0.00    -0.291 C  
ENDROOT
BRANCH   2   4
HETATM    4  C   UNL     1     -13.241  12.920  71.885  1.00  0.00    -0.423 C  
HETATM    5  O   UNL     1     -14.339  13.121  72.399  1.00  0.00    -0.523 OA 
BRANCH   4   6
HETATM    6  N   UNL     1     -12.617  11.708  71.942  1.00  0.00    -0.106 N  
HETATM    7  H   UNL     1     -12.037  11.489  72.753  1.00  0.00     0.000 HD 
BRANCH   6   8
HETATM    8  C   UNL     1     -12.753  10.713  70.883  1.00  0.00    -0.404 C  
HETATM    9  C   UNL     1     -11.397  10.425  70.227  1.00  0.00    -0.406 C  
HETATM   10  C   UNL     1     -10.441   9.699  71.175  1.00  0.00    -0.281 C  
HETATM   11  C   UNL     1     -11.048   8.419  71.781  1.00  0.00    -0.358 C  
HETATM   12  C   UNL     1     -13.375   9.429  71.443  1.00  0.00    -0.417 C  
HETATM   13  C   UNL     1     -12.432   8.692  72.393  1.00  0.00    -0.428 C  
BRANCH  11  14
HETATM   14  C   UNL     1     -11.134   7.266  70.763  1.00  0.00    -0.290 C  
BRANCH  14  15
HETATM   15  C   UNL     1      -9.775   6.712  70.317  1.00  0.00    -0.171 C  
BRANCH  15  16
HETATM   16  N   UNL     1      -9.793   6.015  69.019  1.00  0.00    -0.142 NA 
HETATM   17  C   UNL     1     -10.805   6.562  68.084  1.00  0.00    -0.295 C  
HETATM   18  C   UNL     1     -10.524   8.002  67.594  1.00  0.00    -0.232 C  
HETATM   19  N   UNL     1      -9.166   8.089  67.018  1.00  0.00    -0.141 NA 
HETATM   20  C   UNL     1      -8.465   6.128  68.354  1.00  0.00    -0.114 C  
HETATM   21  C   UNL     1      -8.113   7.571  67.907  1.00  0.00    -0.119 C  
BRANCH  19  22
HETATM   22  C   UNL     1      -8.962   8.560  65.728  1.00  0.00    -0.182 A  
HETATM   23  C   UNL     1      -9.470   9.773  65.185  1.00  0.00    -0.273 A  
HETATM   24  C   UNL     1      -9.218  10.123  63.839  1.00  0.00    -0.280 A  
HETATM   25 CL   UNL     1     -10.300  10.953  66.168  1.00  0.00    -0.302 Cl 
HETATM   26  C   UNL     1      -8.414   9.320  63.029  1.00  0.00    -0.212 A  
HETATM   27 CL   UNL     1      -9.864  11.554  63.101  1.00  0.00    -0.406 Cl 
HETATM   28  C   UNL     1      -7.876   8.154  63.543  1.00  0.00    -0.152 A  
HETATM   29  C   UNL     1      -8.168   7.777  64.854  1.00  0.00    -0.111 A  
ENDBRANCH  19  22
ENDBRANCH  15  16
ENDBRANCH  14  15
ENDBRANCH  11  14
ENDBRANCH   6   8
ENDBRANCH   4   6
ENDBRANCH   2   4
TORSDOF 7
ENDMDL
MODEL       39
REMARK 921   NORMALIZED FREE ENERGY PREDICTED BY IDOCK:   -5.36 KCAL/MOL
REMARK 922        TOTAL FREE ENERGY PREDICTED BY IDOCK:   -8.33 KCAL/MOL
REMARK 923 INTER-LIGAND FREE ENERGY PREDICTED BY IDOCK:   -7.58 KCAL/MOL
REMARK 924 INTRA-LIGAND FREE ENERGY PREDICTED BY IDOCK:   -0.75 KCAL/MOL
REMARK 927      BINDING AFFINITY PREDICTED BY RF-SCORE:    0.00 PKD
ROOT
HETATM    1  C   UNL     1     -13.720  13.435  72.229  1.00  0.00    -0.607 C  
HETATM    2  N   UNL     1     -12.763  14.515  72.080  1.00  0.00    -0.328 N  
HETATM    3  C   UNL     1     -12.348  15.237  73.271  1.00  0.00    -0.475 C  
ENDROOT
BRANCH   2   4
HETATM    4  C   UNL     1     -12.243  14.716  70.808  1.00  0.00    -0.324 C  
HETATM    5  O   UNL     1     -12.459  15.738  70.160  1.00  0.00    -0.370 OA 
BRANCH   4   6
HETATM    6  N   UNL     1     -11.507  13.679  70.313  1.00  0.00    -0.510 N  
HETATM    7  H   UNL     1     -10.728  13.319  70.865  1.00  0.00     0.000 HD 
BRANCH   6   8
HETATM    8  C   UNL     1     -11.798  13.066  69.020  1.00  0.00    -0.316 C  
HETATM    9  C   UNL     1     -10.718  13.421  67.992  1.00  0.00    -0.261 C  
HETATM   10  C   UNL     1      -9.374  12.766  68.319  1.00  0.00    -0.194 C  
HETATM   11  C   UNL     1      -9.477  11.241  68.513  1.00  0.00    -0.191 C  
HETATM   12  C   UNL     1     -11.931  11.547  69.176  1.00  0.00    -0.386 C  
HETATM   13  C   UNL     1     -10.596  10.877  69.503  1.00  0.00    -0.217 C  
BRANCH  11  14
HETATM   14  C   UNL     1      -9.678  10.488  67.183  1.00  0.00    -0.202 C  
BRANCH  14  15
HETATM   15  C   UNL     1     -10.543   9.226  67.295  1.00  0.00    -0.233 C  
BRANCH  15  16
HETATM   16  N   UNL     1      -9.821   7.965  67.051  1.00  0.00    -0.203 NA 
HETATM   17  C   UNL     1      -8.736   7.721  68.032  1.00  0.00    -0.125 C  
HETATM   18  C   UNL     1      -9.217   7.461  69.479  1.00  0.00    -0.146 C  
HETATM   19  N   UNL     1     -10.208   6.364  69.498  1.00  0.00    -0.179 NA 
HETATM   20  C   UNL     1     -10.759   6.810  67.128  1.00  0.00    -0.371 C  
HETATM   21  C   UNL     1     -11.319   6.556  68.550  1.00  0.00    -0.082 C  
BRANCH  19  22
HETATM   22  C   UNL     1     -10.027   5.248  70.302  1.00  0.00    -0.240 A  
HETATM   23  C   UNL     1     -10.382   5.133  71.675  1.00  0.00    -0.207 A  
HETATM   24  C   UNL     1     -10.111   3.946  72.394  1.00  0.00    -0.167 A  
HETATM   25 CL   UNL     1     -11.289   6.373  72.505  1.00  0.00    -0.305 Cl 
HETATM   26  C   UNL     1      -9.547   2.839  71.762  1.00  0.00    -0.218 A  
HETATM   27 CL   UNL     1     -10.461   3.769  74.084  1.00  0.00    -0.247 Cl 
HETATM   28  C   UNL     1      -9.226   2.910  70.418  1.00  0.00    -0.211 A  
HETATM   29  C   UNL     1      -9.440   4.098  69.718  1.00  0.00    -0.265 A  
ENDBRANCH  19  22
ENDBRANCH  15  16
ENDBRANCH  14  15
ENDBRANCH  11  14
ENDBRANCH   6   8
ENDBRANCH   4   6
ENDBRANCH   2   4
TORSDOF 7
ENDMDL
MODEL       40
REMARK 921   NORMALIZED FREE ENERGY PREDICTED BY IDOCK:   -5.35 KCAL/MOL
REMARK 922        TOTAL FREE ENERGY PREDICTED BY IDOCK:   -8.31 KCAL/MOL
REMARK 923 INTER-LIGAND FREE ENERGY PREDICTED BY IDOCK:   -7.34 KCAL/MOL
REMARK 924 INTRA-LIGAND FREE ENERGY PREDICTED BY IDOCK:   -0.98 KCAL/MOL
REMARK 927      BINDING AFFINITY PREDICTED BY RF-SCORE:    0.00 PKD
ROOT
HETATM    1  C   UNL     1     -13.642  13.499  72.252  1.00  0.00    -0.592 C  
HETATM    2  N   UNL     1     -12.973  14.161  71.147  1.00  0.00    -0.344 N  
HETATM    3  C   UNL     1     -12.920  15.613  71.145  1.00  0.00    -0.478 C  
ENDROOT
BRANCH   2   4
HETATM    4  C   UNL     1     -12.350  13.342  70.215  1.00  0.00    -0.264 C  
HETATM    5  O   UNL     1     -12.224  13.662  69.035  1.00  0.00    -0.334 OA 
BRANCH   4   6
HETATM    6  N   UNL     1     -11.924  12.137  70.695  1.00  0.00    -0.493 N  
HETATM    7  H   UNL     1     -11.350  12.118  71.539  1.00  0.00     0.000 HD 
BRANCH   6   8
HETATM    8  C   UNL     1     -12.260  10.876  70.042  1.00  0.00    -0.347 C  
HETATM    9  C   UNL     1     -11.001  10.040  69.785  1.00  0.00    -0.317 C  
HETATM   10  C   UNL     1     -10.375   9.528  71.084  1.00  0.00    -0.330 C  
HETATM   11  C   UNL     1     -11.374   8.767  71.976  1.00  0.00    -0.441 C  
HETATM   12  C   UNL     1     -13.272  10.098  70.890  1.00  0.00    -0.360 C  
HETATM   13  C   UNL     1     -12.662   9.579  72.192  1.00  0.00    -0.442 C  
BRANCH  11  14
HETATM   14  C   UNL     1     -11.713   7.368  71.424  1.00  0.00    -0.316 C  
BRANCH  14  15
HETATM   15  C   UNL     1     -10.494   6.552  70.976  1.00  0.00    -0.222 C  
BRANCH  15  16
HETATM   16  N   UNL     1     -10.769   5.581  69.902  1.00  0.00    -0.323 NA 
HETATM   17  C   UNL     1     -11.217   6.223  68.643  1.00  0.00    -0.238 C  
HETATM   18  C   UNL     1     -10.144   7.084  67.936  1.00  0.00    -0.169 C  
HETATM   19  N   UNL     1      -8.914   6.292  67.722  1.00  0.00    -0.114 NA 
HETATM   20  C   UNL     1      -9.541   4.796  69.590  1.00  0.00    -0.183 C  
HETATM   21  C   UNL     1      -8.412   5.638  68.942  1.00  0.00    -0.102 C  
BRANCH  19  22
HETATM   22  C   UNL     1      -8.362   6.154  66.456  1.00  0.00    -0.113 A  
HETATM   23  C   UNL     1      -8.841   5.309  65.416  1.00  0.00    -0.152 A  
HETATM   24  C   UNL     1      -8.163   5.233  64.177  1.00  0.00    -0.132 A  
HETATM   25 CL   UNL     1     -10.347   4.436  65.549  1.00  0.00    -0.273 Cl 
HETATM   26  C   UNL     1      -7.048   6.030  63.922  1.00  0.00    -0.053 A  
HETATM   27 CL   UNL     1      -8.659   4.174  62.897  1.00  0.00    -0.092 Cl 
HETATM   28  C   UNL     1      -6.584   6.890  64.902  1.00  0.00    -0.043 A  
HETATM   29  C   UNL     1      -7.216   6.926  66.145  1.00  0.00    -0.074 A  
ENDBRANCH  19  22
ENDBRANCH  15  16
ENDBRANCH  14  15
ENDBRANCH  11  14
ENDBRANCH   6   8
ENDBRANCH   4   6
ENDBRANCH   2   4
TORSDOF 7
ENDMDL
MODEL       41
REMARK 921   NORMALIZED FREE ENERGY PREDICTED BY IDOCK:   -5.35 KCAL/MOL
REMARK 922        TOTAL FREE ENERGY PREDICTED BY IDOCK:   -8.31 KCAL/MOL
REMARK 923 INTER-LIGAND FREE ENERGY PREDICTED BY IDOCK:   -7.50 KCAL/MOL
REMARK 924 INTRA-LIGAND FREE ENERGY PREDICTED BY IDOCK:   -0.81 KCAL/MOL
REMARK 927      BINDING AFFINITY PREDICTED BY RF-SCORE:    0.00 PKD
ROOT
HETATM    1  C   UNL     1     -10.242  18.218  66.101  1.00  0.00    -0.381 C  
HETATM    2  N   UNL     1     -10.319  16.769  66.106  1.00  0.00    -0.337 N  
HETATM    3  C   UNL     1     -10.930  16.108  64.964  1.00  0.00    -0.344 C  
ENDROOT
BRANCH   2   4
HETATM    4  C   UNL     1      -9.713  16.116  67.171  1.00  0.00    -0.233 C  
HETATM    5  O   UNL     1      -8.647  15.514  67.056  1.00  0.00    -0.195 OA 
BRANCH   4   6
HETATM    6  N   UNL     1     -10.407  16.156  68.345  1.00  0.00    -0.248 N  
HETATM    7  H   UNL     1      -9.961  16.564  69.168  1.00  0.00     0.000 HD 
BRANCH   6   8
HETATM    8  C   UNL     1     -11.764  15.634  68.465  1.00  0.00    -0.327 C  
HETATM    9  C   UNL     1     -11.828  14.167  68.023  1.00  0.00    -0.400 C  
HETATM   10  C   UNL     1     -11.084  13.243  68.988  1.00  0.00    -0.291 C  
HETATM   11  C   UNL     1     -11.543  13.403  70.450  1.00  0.00    -0.048 C  
HETATM   12  C   UNL     1     -12.266  15.796  69.903  1.00  0.00    -0.271 C  
HETATM   13  C   UNL     1     -11.533  14.879  70.882  1.00  0.00    -0.305 C  
BRANCH  11  14
HETATM   14  C   UNL     1     -12.930  12.783  70.706  1.00  0.00     0.007 C  
BRANCH  14  15
HETATM   15  C   UNL     1     -12.904  11.492  71.535  1.00  0.00    -0.380 C  
BRANCH  15  16
HETATM   16  N   UNL     1     -12.918  10.253  70.739  1.00  0.00    -0.365 NA 
HETATM   17  C   UNL     1     -11.558   9.786  70.374  1.00  0.00    -0.258 C  
HETATM   18  C   UNL     1     -10.693   9.312  71.565  1.00  0.00    -0.355 C  
HETATM   19  N   UNL     1     -11.417   8.285  72.344  1.00  0.00    -0.382 NA 
HETATM   20  C   UNL     1     -13.575   9.156  71.504  1.00  0.00    -0.345 C  
HETATM   21  C   UNL     1     -12.772   8.696  72.748  1.00  0.00    -0.065 C  
BRANCH  19  22
HETATM   22  C   UNL     1     -10.853   7.040  72.588  1.00  0.00    -0.270 A  
HETATM   23  C   UNL     1     -10.617   6.020  71.625  1.00  0.00    -0.236 A  
HETATM   24  C   UNL     1     -10.064   4.777  72.011  1.00  0.00    -0.195 A  
HETATM   25 CL   UNL     1     -10.854   6.284  69.916  1.00  0.00    -0.359 Cl 
HETATM   26  C   UNL     1      -9.681   4.543  73.331  1.00  0.00    -0.151 A  
HETATM   27 CL   UNL     1      -9.815   3.472  70.896  1.00  0.00    -0.207 Cl 
HETATM   28  C   UNL     1      -9.864   5.532  74.281  1.00  0.00    -0.209 A  
HETATM   29  C   UNL     1     -10.460   6.739  73.916  1.00  0.00    -0.356 A  
ENDBRANCH  19  22
ENDBRANCH  15  16
ENDBRANCH  14  15
ENDBRANCH  11  14
ENDBRANCH   6   8
ENDBRANCH   4   6
ENDBRANCH   2   4
TORSDOF 7
ENDMDL
MODEL       42
REMARK 921   NORMALIZED FREE ENERGY PREDICTED BY IDOCK:   -5.34 KCAL/MOL
REMARK 922        TOTAL FREE ENERGY PREDICTED BY IDOCK:   -8.30 KCAL/MOL
REMARK 923 INTER-LIGAND FREE ENERGY PREDICTED BY IDOCK:   -7.52 KCAL/MOL
REMARK 924 INTRA-LIGAND FREE ENERGY PREDICTED BY IDOCK:   -0.78 KCAL/MOL
REMARK 927      BINDING AFFINITY PREDICTED BY RF-SCORE:    0.00 PKD
ROOT
HETATM    1  C   UNL     1     -14.249  15.565  72.284  1.00  0.00    -0.524 C  
HETATM    2  N   UNL     1     -12.965  15.315  71.657  1.00  0.00    -0.373 N  
HETATM    3  C   UNL     1     -11.861  16.208  71.969  1.00  0.00    -0.530 C  
ENDROOT
BRANCH   2   4
HETATM    4  C   UNL     1     -12.866  14.175  70.871  1.00  0.00    -0.334 C  
HETATM    5  O   UNL     1     -12.938  13.041  71.341  1.00  0.00    -0.354 OA 
BRANCH   4   6
HETATM    6  N   UNL     1     -12.642  14.403  69.545  1.00  0.00    -0.536 N  
HETATM    7  H   UNL     1     -13.424  14.687  68.954  1.00  0.00     0.000 HD 
BRANCH   6   8
HETATM    8  C   UNL     1     -11.320  14.256  68.943  1.00  0.00    -0.274 C  
HETATM    9  C   UNL     1     -10.877  12.788  68.949  1.00  0.00    -0.236 C  
HETATM   10  C   UNL     1     -11.717  11.929  68.001  1.00  0.00    -0.382 C  
HETATM   11  C   UNL     1     -11.768  12.488  66.566  1.00  0.00    -0.454 C  
HETATM   12  C   UNL     1     -11.324  14.822  67.519  1.00  0.00    -0.355 C  
HETATM   13  C   UNL     1     -12.160  13.975  66.559  1.00  0.00    -0.488 C  
BRANCH  11  14
HETATM   14  C   UNL     1     -10.445  12.281  65.804  1.00  0.00    -0.287 C  
BRANCH  14  15
HETATM   15  C   UNL     1     -10.176  10.831  65.384  1.00  0.00    -0.276 C  
BRANCH  15  16
HETATM   16  N   UNL     1      -8.806  10.360  65.653  1.00  0.00    -0.166 NA 
HETATM   17  C   UNL     1      -8.431  10.461  67.084  1.00  0.00    -0.126 C  
HETATM   18  C   UNL     1      -9.213   9.517  68.028  1.00  0.00    -0.129 C  
HETATM   19  N   UNL     1      -9.115   8.122  67.550  1.00  0.00    -0.137 NA 
HETATM   20  C   UNL     1      -8.665   8.931  65.255  1.00  0.00    -0.186 C  
HETATM   21  C   UNL     1      -9.488   7.955  66.135  1.00  0.00    -0.088 C  
BRANCH  19  22
HETATM   22  C   UNL     1      -8.646   7.112  68.377  1.00  0.00    -0.123 A  
HETATM   23  C   UNL     1      -9.437   6.257  69.194  1.00  0.00    -0.133 A  
HETATM   24  C   UNL     1      -8.830   5.284  70.022  1.00  0.00    -0.120 A  
HETATM   25 CL   UNL     1     -11.181   6.257  69.120  1.00  0.00    -0.462 Cl 
HETATM   26  C   UNL     1      -7.448   5.098  70.012  1.00  0.00    -0.063 A  
HETATM   27 CL   UNL     1      -9.736   4.259  71.088  1.00  0.00    -0.249 Cl 
HETATM   28  C   UNL     1      -6.658   5.889  69.198  1.00  0.00    -0.051 A  
HETATM   29  C   UNL     1      -7.247   6.887  68.422  1.00  0.00    -0.088 A  
ENDBRANCH  19  22
ENDBRANCH  15  16
ENDBRANCH  14  15
ENDBRANCH  11  14
ENDBRANCH   6   8
ENDBRANCH   4   6
ENDBRANCH   2   4
TORSDOF 7
ENDMDL
MODEL       43
REMARK 921   NORMALIZED FREE ENERGY PREDICTED BY IDOCK:   -5.34 KCAL/MOL
REMARK 922        TOTAL FREE ENERGY PREDICTED BY IDOCK:   -8.30 KCAL/MOL
REMARK 923 INTER-LIGAND FREE ENERGY PREDICTED BY IDOCK:   -7.48 KCAL/MOL
REMARK 924 INTRA-LIGAND FREE ENERGY PREDICTED BY IDOCK:   -0.82 KCAL/MOL
REMARK 927      BINDING AFFINITY PREDICTED BY RF-SCORE:    0.00 PKD
ROOT
HETATM    1  C   UNL     1     -12.172  14.997  64.354  1.00  0.00    -0.337 C  
HETATM    2  N   UNL     1     -10.883  14.514  64.810  1.00  0.00    -0.406 N  
HETATM    3  C   UNL     1     -10.082  15.383  65.657  1.00  0.00    -0.376 C  
ENDROOT
BRANCH   2   4
HETATM    4  C   UNL     1     -10.551  13.208  64.474  1.00  0.00    -0.406 C  
HETATM    5  O   UNL     1     -10.889  12.694  63.409  1.00  0.00    -0.410 OA 
BRANCH   4   6
HETATM    6  N   UNL     1      -9.858  12.522  65.429  1.00  0.00    -0.410 N  
HETATM    7  H   UNL     1      -8.944  12.871  65.720  1.00  0.00     0.000 HD 
BRANCH   6   8
HETATM    8  C   UNL     1     -10.379  11.307  66.046  1.00  0.00    -0.252 C  
HETATM    9  C   UNL     1      -9.411  10.775  67.109  1.00  0.00    -0.171 C  
HETATM   10  C   UNL     1      -9.329  11.698  68.327  1.00  0.00    -0.191 C  
HETATM   11  C   UNL     1     -10.707  12.013  68.939  1.00  0.00    -0.222 C  
HETATM   12  C   UNL     1     -11.762  11.574  66.649  1.00  0.00     0.048 C  
HETATM   13  C   UNL     1     -11.698  12.496  67.867  1.00  0.00    -0.416 C  
BRANCH  11  14
HETATM   14  C   UNL     1     -11.299  10.817  69.711  1.00  0.00    -0.372 C  
BRANCH  14  15
HETATM   15  C   UNL     1     -10.252   9.898  70.353  1.00  0.00    -0.236 C  
BRANCH  15  16
HETATM   16  N   UNL     1     -10.744   9.119  71.503  1.00  0.00    -0.345 NA 
HETATM   17  C   UNL     1     -11.735   8.086  71.118  1.00  0.00    -0.284 C  
HETATM   18  C   UNL     1     -11.170   6.933  70.255  1.00  0.00    -0.316 C  
HETATM   19  N   UNL     1      -9.998   6.325  70.921  1.00  0.00    -0.184 NA 
HETATM   20  C   UNL     1      -9.611   8.422  72.175  1.00  0.00    -0.297 C  
HETATM   21  C   UNL     1      -8.970   7.303  71.316  1.00  0.00    -0.139 C  
BRANCH  19  22
HETATM   22  C   UNL     1      -9.951   4.964  71.185  1.00  0.00    -0.208 A  
HETATM   23  C   UNL     1     -10.344   4.327  72.395  1.00  0.00    -0.160 A  
HETATM   24  C   UNL     1     -10.212   2.927  72.550  1.00  0.00    -0.150 A  
HETATM   25 CL   UNL     1     -11.132   5.196  73.687  1.00  0.00    -0.356 Cl 
HETATM   26  C   UNL     1      -9.753   2.131  71.501  1.00  0.00    -0.220 A  
HETATM   27 CL   UNL     1     -10.612   2.102  74.023  1.00  0.00    -0.199 Cl 
HETATM   28  C   UNL     1      -9.400   2.720  70.300  1.00  0.00    -0.210 A  
HETATM   29  C   UNL     1      -9.475   4.106  70.162  1.00  0.00    -0.254 A  
ENDBRANCH  19  22
ENDBRANCH  15  16
ENDBRANCH  14  15
ENDBRANCH  11  14
ENDBRANCH   6   8
ENDBRANCH   4   6
ENDBRANCH   2   4
TORSDOF 7
ENDMDL
MODEL       44
REMARK 921   NORMALIZED FREE ENERGY PREDICTED BY IDOCK:   -5.34 KCAL/MOL
REMARK 922        TOTAL FREE ENERGY PREDICTED BY IDOCK:   -8.29 KCAL/MOL
REMARK 923 INTER-LIGAND FREE ENERGY PREDICTED BY IDOCK:   -7.45 KCAL/MOL
REMARK 924 INTRA-LIGAND FREE ENERGY PREDICTED BY IDOCK:   -0.84 KCAL/MOL
REMARK 927      BINDING AFFINITY PREDICTED BY RF-SCORE:    0.00 PKD
ROOT
HETATM    1  C   UNL     1     -12.308   8.803  72.259  1.00  0.00    -0.378 C  
HETATM    2  N   UNL     1     -11.257   7.816  72.098  1.00  0.00    -0.276 N  
HETATM    3  C   UNL     1     -10.334   7.607  73.202  1.00  0.00    -0.352 C  
ENDROOT
BRANCH   2   4
HETATM    4  C   UNL     1     -11.271   7.075  70.923  1.00  0.00    -0.282 C  
HETATM    5  O   UNL     1     -12.275   6.489  70.524  1.00  0.00    -0.325 OA 
BRANCH   4   6
HETATM    6  N   UNL     1     -10.077   7.010  70.265  1.00  0.00    -0.187 N  
HETATM    7  H   UNL     1      -9.594   6.114  70.208  1.00  0.00     0.000 HD 
BRANCH   6   8
HETATM    8  C   UNL     1      -9.468   8.181  69.641  1.00  0.00    -0.159 C  
HETATM    9  C   UNL     1      -8.094   7.836  69.055  1.00  0.00    -0.125 C  
HETATM   10  C   UNL     1      -8.201   6.898  67.852  1.00  0.00    -0.114 C  
HETATM   11  C   UNL     1      -9.154   7.422  66.761  1.00  0.00    -0.178 C  
HETATM   12  C   UNL     1     -10.398   8.747  68.563  1.00  0.00    -0.231 C  
HETATM   13  C   UNL     1     -10.516   7.821  67.353  1.00  0.00    -0.362 C  
BRANCH  11  14
HETATM   14  C   UNL     1      -8.554   8.598  65.966  1.00  0.00    -0.173 C  
BRANCH  14  15
HETATM   15  C   UNL     1      -9.593   9.489  65.273  1.00  0.00    -0.243 C  
BRANCH  15  16
HETATM   16  N   UNL     1      -9.155  10.877  65.045  1.00  0.00    -0.199 NA 
HETATM   17  C   UNL     1     -10.279  11.792  64.728  1.00  0.00    -0.282 C  
HETATM   18  C   UNL     1     -11.272  12.028  65.890  1.00  0.00    -0.337 C  
HETATM   19  N   UNL     1     -10.546  12.475  67.098  1.00  0.00    -0.227 NA 
HETATM   20  C   UNL     1      -8.476  11.410  66.259  1.00  0.00    -0.138 C  
HETATM   21  C   UNL     1      -9.424  11.597  67.472  1.00  0.00    -0.171 C  
BRANCH  19  22
HETATM   22  C   UNL     1     -10.887  13.655  67.743  1.00  0.00    -0.253 A  
HETATM   23  C   UNL     1     -10.605  14.974  67.292  1.00  0.00    -0.279 A  
HETATM   24  C   UNL     1     -10.979  16.098  68.065  1.00  0.00    -0.338 A  
HETATM   25 CL   UNL     1      -9.920  15.289  65.717  1.00  0.00    -0.361 Cl 
HETATM   26  C   UNL     1     -11.687  15.943  69.256  1.00  0.00    -0.360 A  
HETATM   27 CL   UNL     1     -10.604  17.726  67.600  1.00  0.00    -0.394 Cl 
HETATM   28  C   UNL     1     -12.009  14.673  69.700  1.00  0.00    -0.368 A  
HETATM   29  C   UNL     1     -11.593  13.560  68.969  1.00  0.00    -0.356 A  
ENDBRANCH  19  22
ENDBRANCH  15  16
ENDBRANCH  14  15
ENDBRANCH  11  14
ENDBRANCH   6   8
ENDBRANCH   4   6
ENDBRANCH   2   4
TORSDOF 7
ENDMDL
MODEL       45
REMARK 921   NORMALIZED FREE ENERGY PREDICTED BY IDOCK:   -5.33 KCAL/MOL
REMARK 922        TOTAL FREE ENERGY PREDICTED BY IDOCK:   -8.28 KCAL/MOL
REMARK 923 INTER-LIGAND FREE ENERGY PREDICTED BY IDOCK:   -7.40 KCAL/MOL
REMARK 924 INTRA-LIGAND FREE ENERGY PREDICTED BY IDOCK:   -0.88 KCAL/MOL
REMARK 927      BINDING AFFINITY PREDICTED BY RF-SCORE:    0.00 PKD
ROOT
HETATM    1  C   UNL     1     -12.800   7.089  71.441  1.00  0.00    -0.356 C  
HETATM    2  N   UNL     1     -11.482   6.778  71.960  1.00  0.00    -0.269 N  
HETATM    3  C   UNL     1     -10.958   7.595  73.042  1.00  0.00    -0.400 C  
ENDROOT
BRANCH   2   4
HETATM    4  C   UNL     1     -10.854   5.655  71.438  1.00  0.00    -0.222 C  
HETATM    5  O   UNL     1     -10.273   4.835  72.145  1.00  0.00    -0.185 OA 
BRANCH   4   6
HETATM    6  N   UNL     1     -10.894   5.549  70.078  1.00  0.00    -0.294 N  
HETATM    7  H   UNL     1     -11.772   5.289  69.629  1.00  0.00     0.000 HD 
BRANCH   6   8
HETATM    8  C   UNL     1      -9.721   5.794  69.244  1.00  0.00    -0.144 C  
HETATM    9  C   UNL     1      -9.982   5.369  67.794  1.00  0.00    -0.198 C  
HETATM   10  C   UNL     1     -11.011   6.269  67.107  1.00  0.00    -0.453 C  
HETATM   11  C   UNL     1     -10.656   7.765  67.191  1.00  0.00    -0.401 C  
HETATM   12  C   UNL     1      -9.322   7.272  69.319  1.00  0.00    -0.154 C  
HETATM   13  C   UNL     1     -10.340   8.185  68.637  1.00  0.00    -0.224 C  
BRANCH  11  14
HETATM   14  C   UNL     1      -9.491   8.151  66.259  1.00  0.00    -0.259 C  
BRANCH  14  15
HETATM   15  C   UNL     1      -8.621   9.303  66.777  1.00  0.00    -0.127 C  
BRANCH  15  16
HETATM   16  N   UNL     1      -8.765  10.563  66.028  1.00  0.00    -0.158 NA 
HETATM   17  C   UNL     1     -10.176  10.999  65.898  1.00  0.00    -0.254 C  
HETATM   18  C   UNL     1     -10.853  11.415  67.225  1.00  0.00    -0.263 C  
HETATM   19  N   UNL     1     -10.040  12.441  67.912  1.00  0.00    -0.203 NA 
HETATM   20  C   UNL     1      -8.022  11.658  66.714  1.00  0.00    -0.140 C  
HETATM   21  C   UNL     1      -8.628  12.059  68.083  1.00  0.00    -0.173 C  
BRANCH  19  22
HETATM   22  C   UNL     1     -10.589  13.661  68.281  1.00  0.00    -0.253 A  
HETATM   23  C   UNL     1     -10.350  14.915  67.654  1.00  0.00    -0.242 A  
HETATM   24  C   UNL     1     -10.948  16.097  68.152  1.00  0.00    -0.341 A  
HETATM   25 CL   UNL     1      -9.437  15.054  66.173  1.00  0.00    -0.335 Cl 
HETATM   26  C   UNL     1     -11.833  16.052  69.229  1.00  0.00    -0.264 A  
HETATM   27 CL   UNL     1     -10.644  17.663  67.472  1.00  0.00    -0.364 Cl 
HETATM   28  C   UNL     1     -12.113  14.840  69.834  1.00  0.00    -0.381 A  
HETATM   29  C   UNL     1     -11.482  13.680  69.381  1.00  0.00    -0.343 A  
ENDBRANCH  19  22
ENDBRANCH  15  16
ENDBRANCH  14  15
ENDBRANCH  11  14
ENDBRANCH   6   8
ENDBRANCH   4   6
ENDBRANCH   2   4
TORSDOF 7
ENDMDL
MODEL       46
REMARK 921   NORMALIZED FREE ENERGY PREDICTED BY IDOCK:   -5.30 KCAL/MOL
REMARK 922        TOTAL FREE ENERGY PREDICTED BY IDOCK:   -8.23 KCAL/MOL
REMARK 923 INTER-LIGAND FREE ENERGY PREDICTED BY IDOCK:   -7.60 KCAL/MOL
REMARK 924 INTRA-LIGAND FREE ENERGY PREDICTED BY IDOCK:   -0.63 KCAL/MOL
REMARK 927      BINDING AFFINITY PREDICTED BY RF-SCORE:    0.00 PKD
ROOT
HETATM    1  C   UNL     1     -13.718  15.403  71.041  1.00  0.00    -0.342 C  
HETATM    2  N   UNL     1     -12.275  15.541  71.088  1.00  0.00    -0.360 N  
HETATM    3  C   UNL     1     -11.585  15.144  72.305  1.00  0.00    -0.378 C  
ENDROOT
BRANCH   2   4
HETATM    4  C   UNL     1     -11.649  15.960  69.921  1.00  0.00    -0.336 C  
HETATM    5  O   UNL     1     -10.831  16.877  69.903  1.00  0.00    -0.254 OA 
BRANCH   4   6
HETATM    6  N   UNL     1     -12.040  15.307  68.788  1.00  0.00    -0.582 N  
HETATM    7  H   UNL     1     -12.572  15.818  68.083  1.00  0.00     0.000 HD 
BRANCH   6   8
HETATM    8  C   UNL     1     -11.724  13.901  68.552  1.00  0.00    -0.355 C  
HETATM    9  C   UNL     1     -12.479  13.369  67.329  1.00  0.00     0.039 C  
HETATM   10  C   UNL     1     -11.978  13.994  66.026  1.00  0.00    -0.434 C  
HETATM   11  C   UNL     1     -10.454  13.861  65.839  1.00  0.00    -0.309 C  
HETATM   12  C   UNL     1     -10.211  13.723  68.384  1.00  0.00    -0.248 C  
HETATM   13  C   UNL     1      -9.694  14.344  67.086  1.00  0.00    -0.248 C  
BRANCH  11  14
HETATM   14  C   UNL     1     -10.026  12.425  65.477  1.00  0.00    -0.260 C  
BRANCH  14  15
HETATM   15  C   UNL     1      -8.946  11.837  66.394  1.00  0.00    -0.201 C  
BRANCH  15  16
HETATM   16  N   UNL     1      -8.950  10.366  66.480  1.00  0.00    -0.144 NA 
HETATM   17  C   UNL     1      -8.167   9.854  67.631  1.00  0.00    -0.114 C  
HETATM   18  C   UNL     1      -8.759  10.190  69.020  1.00  0.00    -0.161 C  
HETATM   19  N   UNL     1     -10.167   9.748  69.095  1.00  0.00    -0.188 NA 
HETATM   20  C   UNL     1     -10.344   9.862  66.630  1.00  0.00    -0.205 C  
HETATM   21  C   UNL     1     -11.000  10.237  67.983  1.00  0.00    -0.289 C  
BRANCH  19  22
HETATM   22  C   UNL     1     -10.599   8.896  70.102  1.00  0.00    -0.222 A  
HETATM   23  C   UNL     1     -10.237   7.529  70.261  1.00  0.00    -0.204 A  
HETATM   24  C   UNL     1     -10.776   6.758  71.317  1.00  0.00    -0.226 A  
HETATM   25 CL   UNL     1      -9.018   6.770  69.269  1.00  0.00    -0.137 Cl 
HETATM   26  C   UNL     1     -11.626   7.333  72.262  1.00  0.00    -0.315 A  
HETATM   27 CL   UNL     1     -10.426   5.072  71.524  1.00  0.00    -0.260 Cl 
HETATM   28  C   UNL     1     -11.963   8.670  72.153  1.00  0.00    -0.449 A  
HETATM   29  C   UNL     1     -11.478   9.420  71.082  1.00  0.00    -0.422 A  
ENDBRANCH  19  22
ENDBRANCH  15  16
ENDBRANCH  14  15
ENDBRANCH  11  14
ENDBRANCH   6   8
ENDBRANCH   4   6
ENDBRANCH   2   4
TORSDOF 7
ENDMDL
MODEL       47
REMARK 921   NORMALIZED FREE ENERGY PREDICTED BY IDOCK:   -5.29 KCAL/MOL
REMARK 922        TOTAL FREE ENERGY PREDICTED BY IDOCK:   -8.23 KCAL/MOL
REMARK 923 INTER-LIGAND FREE ENERGY PREDICTED BY IDOCK:   -8.17 KCAL/MOL
REMARK 924 INTRA-LIGAND FREE ENERGY PREDICTED BY IDOCK:   -0.06 KCAL/MOL
REMARK 927      BINDING AFFINITY PREDICTED BY RF-SCORE:    0.00 PKD
ROOT
HETATM    1  C   UNL     1      -5.516  20.788  69.834  1.00  0.00    -0.355 C  
HETATM    2  N   UNL     1      -6.157  20.374  68.601  1.00  0.00    -0.297 N  
HETATM    3  C   UNL     1      -5.960  21.189  67.414  1.00  0.00    -0.329 C  
ENDROOT
BRANCH   2   4
HETATM    4  C   UNL     1      -6.842  19.166  68.630  1.00  0.00    -0.287 C  
HETATM    5  O   UNL     1      -6.324  18.122  69.021  1.00  0.00    -0.224 OA 
BRANCH   4   6
HETATM    6  N   UNL     1      -8.120  19.213  68.153  1.00  0.00    -0.304 N  
HETATM    7  H   UNL     1      -8.873  19.482  68.786  1.00  0.00     0.000 HD 
BRANCH   6   8
HETATM    8  C   UNL     1      -8.445  18.892  66.766  1.00  0.00    -0.298 C  
HETATM    9  C   UNL     1      -7.983  17.474  66.411  1.00  0.00    -0.320 C  
HETATM   10  C   UNL     1      -8.791  16.403  67.146  1.00  0.00    -0.214 C  
HETATM   11  C   UNL     1     -10.311  16.556  66.953  1.00  0.00    -0.300 C  
HETATM   12  C   UNL     1      -9.950  19.054  66.527  1.00  0.00    -0.437 C  
HETATM   13  C   UNL     1     -10.773  17.992  67.256  1.00  0.00    -0.305 C  
BRANCH  11  14
HETATM   14  C   UNL     1     -10.774  16.135  65.544  1.00  0.00    -0.355 C  
BRANCH  14  15
HETATM   15  C   UNL     1     -10.204  14.794  65.066  1.00  0.00    -0.344 C  
BRANCH  15  16
HETATM   16  N   UNL     1     -11.198  13.712  64.952  1.00  0.00    -0.328 NA 
HETATM   17  C   UNL     1     -10.607  12.431  64.494  1.00  0.00    -0.322 C  
HETATM   18  C   UNL     1      -9.629  11.773  65.496  1.00  0.00    -0.201 C  
HETATM   19  N   UNL     1     -10.279  11.618  66.815  1.00  0.00    -0.213 NA 
HETATM   20  C   UNL     1     -11.839  13.460  66.273  1.00  0.00    -0.394 C  
HETATM   21  C   UNL     1     -10.875  12.863  67.330  1.00  0.00    -0.255 C  
BRANCH  19  22
HETATM   22  C   UNL     1     -10.351  10.380  67.438  1.00  0.00    -0.228 A  
HETATM   23  C   UNL     1     -10.709  10.139  68.793  1.00  0.00    -0.220 A  
HETATM   24  C   UNL     1     -10.711   8.825  69.317  1.00  0.00    -0.151 A  
HETATM   25 CL   UNL     1     -11.297  11.408  69.837  1.00  0.00    -0.328 Cl 
HETATM   26  C   UNL     1     -10.423   7.730  68.503  1.00  0.00    -0.202 A  
HETATM   27 CL   UNL     1     -11.074   8.475  70.977  1.00  0.00    -0.290 Cl 
HETATM   28  C   UNL     1     -10.109   7.932  67.171  1.00  0.00    -0.328 A  
HETATM   29  C   UNL     1     -10.052   9.231  66.664  1.00  0.00    -0.341 A  
ENDBRANCH  19  22
ENDBRANCH  15  16
ENDBRANCH  14  15
ENDBRANCH  11  14
ENDBRANCH   6   8
ENDBRANCH   4   6
ENDBRANCH   2   4
TORSDOF 7
ENDMDL
MODEL       48
REMARK 921   NORMALIZED FREE ENERGY PREDICTED BY IDOCK:   -5.27 KCAL/MOL
REMARK 922        TOTAL FREE ENERGY PREDICTED BY IDOCK:   -8.20 KCAL/MOL
REMARK 923 INTER-LIGAND FREE ENERGY PREDICTED BY IDOCK:   -7.64 KCAL/MOL
REMARK 924 INTRA-LIGAND FREE ENERGY PREDICTED BY IDOCK:   -0.56 KCAL/MOL
REMARK 927      BINDING AFFINITY PREDICTED BY RF-SCORE:    0.00 PKD
ROOT
HETATM    1  C   UNL     1      -8.198  19.371  67.629  1.00  0.00    -0.294 C  
HETATM    2  N   UNL     1      -9.349  18.739  67.014  1.00  0.00    -0.290 N  
HETATM    3  C   UNL     1     -10.604  19.472  66.985  1.00  0.00    -0.492 C  
ENDROOT
BRANCH   2   4
HETATM    4  C   UNL     1      -9.136  17.505  66.412  1.00  0.00    -0.240 C  
HETATM    5  O   UNL     1      -8.100  17.236  65.808  1.00  0.00    -0.527 OA 
BRANCH   4   6
HETATM    6  N   UNL     1     -10.178  16.628  66.504  1.00  0.00    -0.300 N  
HETATM    7  H   UNL     1     -10.882  16.620  65.766  1.00  0.00     0.000 HD 
BRANCH   6   8
HETATM    8  C   UNL     1     -10.318  15.702  67.623  1.00  0.00    -0.275 C  
HETATM    9  C   UNL     1     -11.763  15.204  67.743  1.00  0.00    -0.250 C  
HETATM   10  C   UNL     1     -12.157  14.297  66.575  1.00  0.00    -0.454 C  
HETATM   11  C   UNL     1     -11.181  13.125  66.365  1.00  0.00    -0.328 C  
HETATM   12  C   UNL     1      -9.344  14.530  67.462  1.00  0.00    -0.193 C  
HETATM   13  C   UNL     1      -9.724  13.614  66.299  1.00  0.00    -0.295 C  
BRANCH  11  14
HETATM   14  C   UNL     1     -11.326  12.033  67.443  1.00  0.00    -0.393 C  
BRANCH  14  15
HETATM   15  C   UNL     1     -11.032  10.611  66.947  1.00  0.00    -0.161 C  
BRANCH  15  16
HETATM   16  N   UNL     1      -9.766  10.041  67.440  1.00  0.00    -0.157 NA 
HETATM   17  C   UNL     1      -9.690   9.997  68.920  1.00  0.00    -0.181 C  
HETATM   18  C   UNL     1     -10.685   9.022  69.593  1.00  0.00    -0.219 C  
HETATM   19  N   UNL     1     -10.545   7.670  69.012  1.00  0.00    -0.204 NA 
HETATM   20  C   UNL     1      -9.601   8.646  66.944  1.00  0.00    -0.194 C  
HETATM   21  C   UNL     1     -10.625   7.647  67.542  1.00  0.00    -0.252 C  
BRANCH  19  22
HETATM   22  C   UNL     1     -10.296   6.567  69.817  1.00  0.00    -0.195 A  
HETATM   23  C   UNL     1     -10.984   6.225  71.014  1.00  0.00    -0.283 A  
HETATM   24  C   UNL     1     -10.608   5.087  71.763  1.00  0.00    -0.134 A  
HETATM   25 CL   UNL     1     -12.403   7.092  71.548  1.00  0.00    -0.397 Cl 
HETATM   26  C   UNL     1      -9.597   4.238  71.316  1.00  0.00    -0.242 A  
HETATM   27 CL   UNL     1     -11.365   4.656  73.264  1.00  0.00    -0.407 Cl 
HETATM   28  C   UNL     1      -8.936   4.525  70.135  1.00  0.00    -0.141 A  
HETATM   29  C   UNL     1      -9.266   5.677  69.421  1.00  0.00    -0.145 A  
ENDBRANCH  19  22
ENDBRANCH  15  16
ENDBRANCH  14  15
ENDBRANCH  11  14
ENDBRANCH   6   8
ENDBRANCH   4   6
ENDBRANCH   2   4
TORSDOF 7
ENDMDL
MODEL       49
REMARK 921   NORMALIZED FREE ENERGY PREDICTED BY IDOCK:   -5.27 KCAL/MOL
REMARK 922        TOTAL FREE ENERGY PREDICTED BY IDOCK:   -8.20 KCAL/MOL
REMARK 923 INTER-LIGAND FREE ENERGY PREDICTED BY IDOCK:   -7.65 KCAL/MOL
REMARK 924 INTRA-LIGAND FREE ENERGY PREDICTED BY IDOCK:   -0.54 KCAL/MOL
REMARK 927      BINDING AFFINITY PREDICTED BY RF-SCORE:    0.00 PKD
ROOT
HETATM    1  C   UNL     1      -9.778   4.363  71.458  1.00  0.00    -0.174 C  
HETATM    2  N   UNL     1     -10.533   5.443  70.852  1.00  0.00    -0.246 N  
HETATM    3  C   UNL     1     -10.602   5.505  69.401  1.00  0.00    -0.279 C  
ENDROOT
BRANCH   2   4
HETATM    4  C   UNL     1     -11.215   6.289  71.716  1.00  0.00    -0.284 C  
HETATM    5  O   UNL     1     -11.517   5.960  72.861  1.00  0.00    -0.256 OA 
BRANCH   4   6
HETATM    6  N   UNL     1     -11.563   7.498  71.188  1.00  0.00    -0.276 N  
HETATM    7  H   UNL     1     -12.422   7.569  70.641  1.00  0.00     0.000 HD 
BRANCH   6   8
HETATM    8  C   UNL     1     -10.748   8.694  71.379  1.00  0.00    -0.268 C  
HETATM    9  C   UNL     1      -9.709   8.832  70.259  1.00  0.00    -0.198 C  
HETATM   10  C   UNL     1     -10.357   9.144  68.909  1.00  0.00    -0.232 C  
HETATM   11  C   UNL     1     -11.290  10.369  68.955  1.00  0.00    -0.278 C  
HETATM   12  C   UNL     1     -11.644   9.935  71.452  1.00  0.00    -0.428 C  
HETATM   13  C   UNL     1     -12.299  10.261  70.110  1.00  0.00    -0.213 C  
BRANCH  11  14
HETATM   14  C   UNL     1     -10.516  11.699  69.047  1.00  0.00    -0.159 C  
BRANCH  14  15
HETATM   15  C   UNL     1      -9.757  12.080  67.770  1.00  0.00    -0.192 C  
BRANCH  15  16
HETATM   16  N   UNL     1     -10.504  12.960  66.854  1.00  0.00    -0.245 NA 
HETATM   17  C   UNL     1     -11.481  13.827  67.555  1.00  0.00    -0.330 C  
HETATM   18  C   UNL     1     -10.853  14.898  68.478  1.00  0.00    -0.247 C  
HETATM   19  N   UNL     1      -9.868  15.704  67.727  1.00  0.00    -0.220 NA 
HETATM   20  C   UNL     1      -9.565  13.851  66.116  1.00  0.00    -0.229 C  
HETATM   21  C   UNL     1      -8.860  14.897  67.018  1.00  0.00    -0.232 C  
BRANCH  19  22
HETATM   22  C   UNL     1      -9.966  17.088  67.672  1.00  0.00    -0.280 A  
HETATM   23  C   UNL     1     -10.266  17.865  66.519  1.00  0.00    -0.379 A  
HETATM   24  C   UNL     1     -10.303  19.277  66.590  1.00  0.00    -0.438 A  
HETATM   25 CL   UNL     1     -10.741  17.136  65.006  1.00  0.00    -0.099 Cl 
HETATM   26  C   UNL     1     -10.108  19.938  67.802  1.00  0.00    -0.565 A  
HETATM   27 CL   UNL     1     -10.598  20.281  65.207  1.00  0.00    -0.158 Cl 
HETATM   28  C   UNL     1      -9.852  19.205  68.947  1.00  0.00    -0.487 A  
HETATM   29  C   UNL     1      -9.760  17.815  68.871  1.00  0.00    -0.262 A  
ENDBRANCH  19  22
ENDBRANCH  15  16
ENDBRANCH  14  15
ENDBRANCH  11  14
ENDBRANCH   6   8
ENDBRANCH   4   6
ENDBRANCH   2   4
TORSDOF 7
ENDMDL
MODEL       50
REMARK 921   NORMALIZED FREE ENERGY PREDICTED BY IDOCK:   -5.26 KCAL/MOL
REMARK 922        TOTAL FREE ENERGY PREDICTED BY IDOCK:   -8.19 KCAL/MOL
REMARK 923 INTER-LIGAND FREE ENERGY PREDICTED BY IDOCK:   -7.26 KCAL/MOL
REMARK 924 INTRA-LIGAND FREE ENERGY PREDICTED BY IDOCK:   -0.92 KCAL/MOL
REMARK 927      BINDING AFFINITY PREDICTED BY RF-SCORE:    0.00 PKD
ROOT
HETATM    1  C   UNL     1     -13.759   7.390  71.460  1.00  0.00    -0.371 C  
HETATM    2  N   UNL     1     -12.767   8.356  71.892  1.00  0.00    -0.339 N  
HETATM    3  C   UNL     1     -13.190   9.730  72.104  1.00  0.00    -0.436 C  
ENDROOT
BRANCH   2   4
HETATM    4  C   UNL     1     -11.495   7.867  72.160  1.00  0.00    -0.324 C  
HETATM    5  O   UNL     1     -11.100   7.647  73.303  1.00  0.00    -0.382 OA 
BRANCH   4   6
HETATM    6  N   UNL     1     -10.701   7.686  71.065  1.00  0.00    -0.226 N  
HETATM    7  H   UNL     1     -10.492   6.736  70.759  1.00  0.00     0.000 HD 
BRANCH   6   8
HETATM    8  C   UNL     1     -10.141   8.808  70.317  1.00  0.00    -0.191 C  
HETATM    9  C   UNL     1      -8.616   8.685  70.208  1.00  0.00    -0.144 C  
HETATM   10  C   UNL     1      -8.195   7.514  69.319  1.00  0.00    -0.130 C  
HETATM   11  C   UNL     1      -8.851   7.549  67.925  1.00  0.00    -0.126 C  
HETATM   12  C   UNL     1     -10.786   8.890  68.930  1.00  0.00    -0.132 C  
HETATM   13  C   UNL     1     -10.375   7.726  68.028  1.00  0.00    -0.263 C  
BRANCH  11  14
HETATM   14  C   UNL     1      -8.249   8.637  67.015  1.00  0.00    -0.106 C  
BRANCH  14  15
HETATM   15  C   UNL     1      -9.226   9.208  65.979  1.00  0.00    -0.215 C  
BRANCH  15  16
HETATM   16  N   UNL     1      -8.899  10.566  65.512  1.00  0.00    -0.177 NA 
HETATM   17  C   UNL     1     -10.096  11.337  65.096  1.00  0.00    -0.275 C  
HETATM   18  C   UNL     1     -11.071  11.692  66.243  1.00  0.00    -0.290 C  
HETATM   19  N   UNL     1     -10.346  12.380  67.333  1.00  0.00    -0.207 NA 
HETATM   20  C   UNL     1      -8.228  11.337  66.596  1.00  0.00    -0.164 C  
HETATM   21  C   UNL     1      -9.152  11.655  67.799  1.00  0.00    -0.175 C  
BRANCH  19  22
HETATM   22  C   UNL     1     -10.756  13.624  67.792  1.00  0.00    -0.246 A  
HETATM   23  C   UNL     1     -11.567  13.875  68.933  1.00  0.00    -0.316 A  
HETATM   24  C   UNL     1     -11.944  15.194  69.276  1.00  0.00    -0.292 A  
HETATM   25 CL   UNL     1     -12.022  12.608  70.045  1.00  0.00    -0.411 Cl 
HETATM   26  C   UNL     1     -11.480  16.285  68.541  1.00  0.00    -0.272 A  
HETATM   27 CL   UNL     1     -12.985  15.558  70.615  1.00  0.00    -0.484 Cl 
HETATM   28  C   UNL     1     -10.658  16.073  67.449  1.00  0.00    -0.316 A  
HETATM   29  C   UNL     1     -10.329  14.769  67.074  1.00  0.00    -0.255 A  
ENDBRANCH  19  22
ENDBRANCH  15  16
ENDBRANCH  14  15
ENDBRANCH  11  14
ENDBRANCH   6   8
ENDBRANCH   4   6
ENDBRANCH   2   4
TORSDOF 7
ENDMDL
MODEL       51
REMARK 921   NORMALIZED FREE ENERGY PREDICTED BY IDOCK:   -5.26 KCAL/MOL
REMARK 922        TOTAL FREE ENERGY PREDICTED BY IDOCK:   -8.19 KCAL/MOL
REMARK 923 INTER-LIGAND FREE ENERGY PREDICTED BY IDOCK:   -7.25 KCAL/MOL
REMARK 924 INTRA-LIGAND FREE ENERGY PREDICTED BY IDOCK:   -0.93 KCAL/MOL
REMARK 927      BINDING AFFINITY PREDICTED BY RF-SCORE:    0.00 PKD
ROOT
HETATM    1  C   UNL     1      -7.847   6.012  72.693  1.00  0.00    -0.104 C  
HETATM    2  N   UNL     1      -9.236   6.301  72.998  1.00  0.00    -0.133 N  
HETATM    3  C   UNL     1      -9.527   7.370  73.938  1.00  0.00    -0.263 C  
ENDROOT
BRANCH   2   4
HETATM    4  C   UNL     1     -10.191   5.585  72.288  1.00  0.00    -0.199 C  
HETATM    5  O   UNL     1     -10.968   4.802  72.831  1.00  0.00    -0.232 OA 
BRANCH   4   6
HETATM    6  N   UNL     1     -10.178   5.782  70.938  1.00  0.00    -0.205 N  
HETATM    7  H   UNL     1      -9.373   5.458  70.400  1.00  0.00     0.000 HD 
BRANCH   6   8
HETATM    8  C   UNL     1     -11.276   6.439  70.236  1.00  0.00    -0.382 C  
HETATM    9  C   UNL     1     -11.441   7.887  70.714  1.00  0.00    -0.273 C  
HETATM   10  C   UNL     1     -10.265   8.770  70.290  1.00  0.00    -0.220 C  
HETATM   11  C   UNL     1      -9.983   8.714  68.777  1.00  0.00    -0.194 C  
HETATM   12  C   UNL     1     -11.042   6.384  68.723  1.00  0.00    -0.404 C  
HETATM   13  C   UNL     1      -9.871   7.261  68.283  1.00  0.00    -0.165 C  
BRANCH  11  14
HETATM   14  C   UNL     1     -11.035   9.477  67.950  1.00  0.00    -0.172 C  
BRANCH  14  15
HETATM   15  C   UNL     1     -10.561  10.839  67.426  1.00  0.00    -0.242 C  
BRANCH  15  16
HETATM   16  N   UNL     1     -10.326  11.850  68.472  1.00  0.00    -0.215 NA 
HETATM   17  C   UNL     1      -9.141  12.698  68.198  1.00  0.00    -0.204 C  
HETATM   18  C   UNL     1      -9.281  13.631  66.972  1.00  0.00    -0.250 C  
HETATM   19  N   UNL     1     -10.506  14.449  67.090  1.00  0.00    -0.262 NA 
HETATM   20  C   UNL     1     -11.505  12.754  68.589  1.00  0.00    -0.303 C  
HETATM   21  C   UNL     1     -11.721  13.660  67.350  1.00  0.00    -0.381 C  
BRANCH  19  22
HETATM   22  C   UNL     1     -10.452  15.835  67.022  1.00  0.00    -0.309 A  
HETATM   23  C   UNL     1     -10.214  16.722  68.107  1.00  0.00    -0.301 A  
HETATM   24  C   UNL     1     -10.219  18.123  67.910  1.00  0.00    -0.379 A  
HETATM   25 CL   UNL     1      -9.767  16.149  69.694  1.00  0.00    -0.185 Cl 
HETATM   26  C   UNL     1     -10.395  18.665  66.637  1.00  0.00    -0.456 A  
HETATM   27 CL   UNL     1     -10.001  19.257  69.204  1.00  0.00    -0.449 Cl 
HETATM   28  C   UNL     1     -10.590  17.824  65.557  1.00  0.00    -0.044 A  
HETATM   29  C   UNL     1     -10.642  16.444  65.756  1.00  0.00    -0.327 A  
ENDBRANCH  19  22
ENDBRANCH  15  16
ENDBRANCH  14  15
ENDBRANCH  11  14
ENDBRANCH   6   8
ENDBRANCH   4   6
ENDBRANCH   2   4
TORSDOF 7
ENDMDL
MODEL       52
REMARK 921   NORMALIZED FREE ENERGY PREDICTED BY IDOCK:   -5.22 KCAL/MOL
REMARK 922        TOTAL FREE ENERGY PREDICTED BY IDOCK:   -8.13 KCAL/MOL
REMARK 923 INTER-LIGAND FREE ENERGY PREDICTED BY IDOCK:   -7.26 KCAL/MOL
REMARK 924 INTRA-LIGAND FREE ENERGY PREDICTED BY IDOCK:   -0.88 KCAL/MOL
REMARK 927      BINDING AFFINITY PREDICTED BY RF-SCORE:    0.00 PKD
ROOT
HETATM    1  C   UNL     1      -8.366   3.457  73.785  1.00  0.00    -0.075 C  
HETATM    2  N   UNL     1      -9.660   3.333  73.142  1.00  0.00    -0.104 N  
HETATM    3  C   UNL     1      -9.932   2.135  72.365  1.00  0.00    -0.145 C  
ENDROOT
BRANCH   2   4
HETATM    4  C   UNL     1     -10.583   4.339  73.398  1.00  0.00    -0.208 C  
HETATM    5  O   UNL     1     -11.101   4.494  74.502  1.00  0.00    -0.203 OA 
BRANCH   4   6
HETATM    6  N   UNL     1     -10.905   5.117  72.324  1.00  0.00    -0.205 N  
HETATM    7  H   UNL     1     -11.827   5.014  71.899  1.00  0.00     0.000 HD 
BRANCH   6   8
HETATM    8  C   UNL     1      -9.974   6.091  71.763  1.00  0.00    -0.170 C  
HETATM    9  C   UNL     1      -9.175   5.480  70.606  1.00  0.00    -0.180 C  
HETATM   10  C   UNL     1     -10.055   5.194  69.387  1.00  0.00    -0.305 C  
HETATM   11  C   UNL     1     -10.857   6.424  68.920  1.00  0.00    -0.382 C  
HETATM   12  C   UNL     1     -10.733   7.341  71.306  1.00  0.00    -0.243 C  
HETATM   13  C   UNL     1     -11.617   7.073  70.089  1.00  0.00    -0.273 C  
BRANCH  11  14
HETATM   14  C   UNL     1      -9.975   7.471  68.212  1.00  0.00    -0.193 C  
BRANCH  14  15
HETATM   15  C   UNL     1     -10.725   8.733  67.767  1.00  0.00    -0.125 C  
BRANCH  15  16
HETATM   16  N   UNL     1      -9.921   9.967  67.799  1.00  0.00    -0.163 NA 
HETATM   17  C   UNL     1     -10.607  11.120  67.167  1.00  0.00    -0.244 C  
HETATM   18  C   UNL     1     -11.865  11.618  67.917  1.00  0.00    -0.203 C  
HETATM   19  N   UNL     1     -11.536  11.904  69.329  1.00  0.00    -0.290 NA 
HETATM   20  C   UNL     1      -9.617  10.348  69.207  1.00  0.00    -0.209 C  
HETATM   21  C   UNL     1     -10.863  10.789  70.017  1.00  0.00    -0.153 C  
BRANCH  19  22
HETATM   22  C   UNL     1     -11.799  13.146  69.889  1.00  0.00    -0.308 A  
HETATM   23  C   UNL     1     -12.631  13.405  71.014  1.00  0.00    -0.343 A  
HETATM   24  C   UNL     1     -12.844  14.727  71.466  1.00  0.00    -0.331 A  
HETATM   25 CL   UNL     1     -13.314  12.119  71.977  1.00  0.00    -0.569 Cl 
HETATM   26  C   UNL     1     -12.195  15.804  70.860  1.00  0.00    -0.458 A  
HETATM   27 CL   UNL     1     -13.899  15.111  72.788  1.00  0.00    -0.538 Cl 
HETATM   28  C   UNL     1     -11.350  15.577  69.789  1.00  0.00    -0.325 A  
HETATM   29  C   UNL     1     -11.181  14.280  69.305  1.00  0.00    -0.309 A  
ENDBRANCH  19  22
ENDBRANCH  15  16
ENDBRANCH  14  15
ENDBRANCH  11  14
ENDBRANCH   6   8
ENDBRANCH   4   6
ENDBRANCH   2   4
TORSDOF 7
ENDMDL
MODEL       53
REMARK 921   NORMALIZED FREE ENERGY PREDICTED BY IDOCK:   -5.20 KCAL/MOL
REMARK 922        TOTAL FREE ENERGY PREDICTED BY IDOCK:   -8.10 KCAL/MOL
REMARK 923 INTER-LIGAND FREE ENERGY PREDICTED BY IDOCK:   -7.23 KCAL/MOL
REMARK 924 INTRA-LIGAND FREE ENERGY PREDICTED BY IDOCK:   -0.87 KCAL/MOL
REMARK 927      BINDING AFFINITY PREDICTED BY RF-SCORE:    0.00 PKD
ROOT
HETATM    1  C   UNL     1      -7.484  19.596  68.498  1.00  0.00    -0.334 C  
HETATM    2  N   UNL     1      -8.392  19.522  67.369  1.00  0.00    -0.287 N  
HETATM    3  C   UNL     1      -7.836  19.627  66.030  1.00  0.00    -0.326 C  
ENDROOT
BRANCH   2   4
HETATM    4  C   UNL     1      -9.725  19.260  67.657  1.00  0.00    -0.328 C  
HETATM    5  O   UNL     1     -10.616  20.085  67.467  1.00  0.00    -0.374 OA 
BRANCH   4   6
HETATM    6  N   UNL     1      -9.969  18.034  68.206  1.00  0.00    -0.349 N  
HETATM    7  H   UNL     1      -9.509  17.786  69.082  1.00  0.00     0.000 HD 
BRANCH   6   8
HETATM    8  C   UNL     1     -10.866  17.067  67.581  1.00  0.00    -0.244 C  
HETATM    9  C   UNL     1     -10.393  16.717  66.166  1.00  0.00    -0.340 C  
HETATM   10  C   UNL     1      -9.085  15.923  66.176  1.00  0.00    -0.385 C  
HETATM   11  C   UNL     1      -9.147  14.668  67.067  1.00  0.00    -0.254 C  
HETATM   12  C   UNL     1     -10.973  15.810  68.451  1.00  0.00    -0.323 C  
HETATM   13  C   UNL     1      -9.674  15.006  68.473  1.00  0.00    -0.217 C  
BRANCH  11  14
HETATM   14  C   UNL     1      -9.989  13.539  66.441  1.00  0.00    -0.296 C  
BRANCH  14  15
HETATM   15  C   UNL     1      -9.361  12.144  66.555  1.00  0.00    -0.228 C  
BRANCH  15  16
HETATM   16  N   UNL     1     -10.322  11.031  66.472  1.00  0.00    -0.238 NA 
HETATM   17  C   UNL     1      -9.667   9.717  66.265  1.00  0.00    -0.240 C  
HETATM   18  C   UNL     1      -8.811   9.224  67.455  1.00  0.00    -0.118 C  
HETATM   19  N   UNL     1      -9.613   9.229  68.697  1.00  0.00    -0.146 NA 
HETATM   20  C   UNL     1     -11.116  10.940  67.730  1.00  0.00    -0.309 C  
HETATM   21  C   UNL     1     -10.280  10.515  68.965  1.00  0.00    -0.216 C  
BRANCH  19  22
HETATM   22  C   UNL     1      -9.747   8.083  69.468  1.00  0.00    -0.170 A  
HETATM   23  C   UNL     1      -8.951   7.726  70.592  1.00  0.00    -0.145 A  
HETATM   24  C   UNL     1      -9.169   6.507  71.274  1.00  0.00    -0.155 A  
HETATM   25 CL   UNL     1      -7.769   8.815  71.275  1.00  0.00    -0.139 Cl 
HETATM   26  C   UNL     1     -10.209   5.656  70.902  1.00  0.00    -0.286 A  
HETATM   27 CL   UNL     1      -8.189   5.986  72.608  1.00  0.00    -0.111 Cl 
HETATM   28  C   UNL     1     -11.024   5.996  69.838  1.00  0.00    -0.458 A  
HETATM   29  C   UNL     1     -10.776   7.171  69.127  1.00  0.00    -0.216 A  
ENDBRANCH  19  22
ENDBRANCH  15  16
ENDBRANCH  14  15
ENDBRANCH  11  14
ENDBRANCH   6   8
ENDBRANCH   4   6
ENDBRANCH   2   4
TORSDOF 7
ENDMDL
MODEL       54
REMARK 921   NORMALIZED FREE ENERGY PREDICTED BY IDOCK:   -5.20 KCAL/MOL
REMARK 922        TOTAL FREE ENERGY PREDICTED BY IDOCK:   -8.10 KCAL/MOL
REMARK 923 INTER-LIGAND FREE ENERGY PREDICTED BY IDOCK:   -7.41 KCAL/MOL
REMARK 924 INTRA-LIGAND FREE ENERGY PREDICTED BY IDOCK:   -0.68 KCAL/MOL
REMARK 927      BINDING AFFINITY PREDICTED BY RF-SCORE:    0.00 PKD
ROOT
HETATM    1  C   UNL     1      -9.070   4.654  72.604  1.00  0.00    -0.126 C  
HETATM    2  N   UNL     1     -10.115   5.113  71.708  1.00  0.00    -0.193 N  
HETATM    3  C   UNL     1     -11.287   5.750  72.285  1.00  0.00    -0.278 C  
ENDROOT
BRANCH   2   4
HETATM    4  C   UNL     1      -9.869   4.988  70.347  1.00  0.00    -0.230 C  
HETATM    5  O   UNL     1      -9.824   3.897  69.781  1.00  0.00    -0.195 OA 
BRANCH   4   6
HETATM    6  N   UNL     1      -9.639   6.162  69.690  1.00  0.00    -0.147 N  
HETATM    7  H   UNL     1      -8.683   6.511  69.624  1.00  0.00     0.000 HD 
BRANCH   6   8
HETATM    8  C   UNL     1     -10.716   6.934  69.079  1.00  0.00    -0.230 C  
HETATM    9  C   UNL     1     -10.620   8.413  69.473  1.00  0.00    -0.217 C  
HETATM   10  C   UNL     1      -9.398   9.095  68.856  1.00  0.00    -0.146 C  
HETATM   11  C   UNL     1      -9.317   8.922  67.328  1.00  0.00    -0.173 C  
HETATM   12  C   UNL     1     -10.684   6.770  67.556  1.00  0.00    -0.381 C  
HETATM   13  C   UNL     1      -9.467   7.445  66.923  1.00  0.00    -0.208 C  
BRANCH  11  14
HETATM   14  C   UNL     1     -10.350   9.786  66.579  1.00  0.00    -0.262 C  
BRANCH  14  15
HETATM   15  C   UNL     1     -10.544  11.190  67.165  1.00  0.00    -0.244 C  
BRANCH  15  16
HETATM   16  N   UNL     1     -10.813  12.240  66.166  1.00  0.00    -0.269 NA 
HETATM   17  C   UNL     1     -11.920  13.143  66.563  1.00  0.00    -0.398 C  
HETATM   18  C   UNL     1     -11.622  14.035  67.792  1.00  0.00    -0.345 C  
HETATM   19  N   UNL     1     -10.368  14.789  67.582  1.00  0.00    -0.237 NA 
HETATM   20  C   UNL     1      -9.601  13.082  65.964  1.00  0.00    -0.165 C  
HETATM   21  C   UNL     1      -9.226  13.942  67.198  1.00  0.00    -0.239 C  
BRANCH  19  22
HETATM   22  C   UNL     1     -10.338  16.172  67.685  1.00  0.00    -0.288 A  
HETATM   23  C   UNL     1     -10.526  17.100  66.623  1.00  0.00    -0.259 A  
HETATM   24  C   UNL     1     -10.436  18.492  66.855  1.00  0.00    -0.396 A  
HETATM   25 CL   UNL     1     -11.013  16.593  65.025  1.00  0.00    -0.281 Cl 
HETATM   26  C   UNL     1     -10.223  18.990  68.140  1.00  0.00    -0.472 A  
HETATM   27 CL   UNL     1     -10.591  19.669  65.590  1.00  0.00    -0.557 Cl 
HETATM   28  C   UNL     1     -10.075  18.112  69.198  1.00  0.00    -0.194 A  
HETATM   29  C   UNL     1     -10.107  16.737  68.964  1.00  0.00    -0.283 A  
ENDBRANCH  19  22
ENDBRANCH  15  16
ENDBRANCH  14  15
ENDBRANCH  11  14
ENDBRANCH   6   8
ENDBRANCH   4   6
ENDBRANCH   2   4
TORSDOF 7
ENDMDL
MODEL       55
REMARK 921   NORMALIZED FREE ENERGY PREDICTED BY IDOCK:   -5.16 KCAL/MOL
REMARK 922        TOTAL FREE ENERGY PREDICTED BY IDOCK:   -8.04 KCAL/MOL
REMARK 923 INTER-LIGAND FREE ENERGY PREDICTED BY IDOCK:   -7.52 KCAL/MOL
REMARK 924 INTRA-LIGAND FREE ENERGY PREDICTED BY IDOCK:   -0.52 KCAL/MOL
REMARK 927      BINDING AFFINITY PREDICTED BY RF-SCORE:    0.00 PKD
ROOT
HETATM    1  C   UNL     1      -9.612   5.112  72.953  1.00  0.00    -0.144 C  
HETATM    2  N   UNL     1     -10.157   6.246  72.230  1.00  0.00    -0.177 N  
HETATM    3  C   UNL     1     -10.579   7.410  72.991  1.00  0.00    -0.343 C  
ENDROOT
BRANCH   2   4
HETATM    4  C   UNL     1     -10.146   6.165  70.843  1.00  0.00    -0.192 C  
HETATM    5  O   UNL     1     -10.318   5.107  70.242  1.00  0.00    -0.268 OA 
BRANCH   4   6
HETATM    6  N   UNL     1      -9.888   7.339  70.197  1.00  0.00    -0.179 N  
HETATM    7  H   UNL     1      -8.971   7.773  70.309  1.00  0.00     0.000 HD 
BRANCH   6   8
HETATM    8  C   UNL     1     -10.880   7.996  69.352  1.00  0.00    -0.094 C  
HETATM    9  C   UNL     1     -11.015   9.479  69.717  1.00  0.00    -0.245 C  
HETATM   10  C   UNL     1      -9.762  10.277  69.354  1.00  0.00    -0.242 C  
HETATM   11  C   UNL     1      -9.341  10.104  67.882  1.00  0.00    -0.151 C  
HETATM   12  C   UNL     1     -10.509   7.826  67.875  1.00  0.00    -0.263 C  
HETATM   13  C   UNL     1      -9.258   8.618  67.495  1.00  0.00    -0.151 C  
BRANCH  11  14
HETATM   14  C   UNL     1     -10.271  10.855  66.909  1.00  0.00    -0.272 C  
BRANCH  14  15
HETATM   15  C   UNL     1     -10.990  12.062  67.525  1.00  0.00    -0.253 C  
BRANCH  15  16
HETATM   16  N   UNL     1     -11.258  13.162  66.583  1.00  0.00    -0.296 NA 
HETATM   17  C   UNL     1     -12.094  14.236  67.173  1.00  0.00    -0.377 C  
HETATM   18  C   UNL     1     -11.416  15.036  68.310  1.00  0.00    -0.332 C  
HETATM   19  N   UNL     1     -10.113  15.565  67.855  1.00  0.00    -0.223 NA 
HETATM   20  C   UNL     1      -9.979  13.786  66.141  1.00  0.00    -0.308 C  
HETATM   21  C   UNL     1      -9.231  14.541  67.270  1.00  0.00    -0.207 C  
BRANCH  19  22
HETATM   22  C   UNL     1      -9.823  16.920  67.932  1.00  0.00    -0.263 A  
HETATM   23  C   UNL     1      -8.671  17.502  68.530  1.00  0.00    -0.282 A  
HETATM   24  C   UNL     1      -8.511  18.906  68.573  1.00  0.00    -0.349 A  
HETATM   25 CL   UNL     1      -7.338  16.535  69.110  1.00  0.00    -0.225 Cl 
HETATM   26  C   UNL     1      -9.446  19.752  67.977  1.00  0.00    -0.466 A  
HETATM   27 CL   UNL     1      -7.162  19.676  69.346  1.00  0.00    -0.352 Cl 
HETATM   28  C   UNL     1     -10.557  19.212  67.355  1.00  0.00    -0.577 A  
HETATM   29  C   UNL     1     -10.747  17.829  67.359  1.00  0.00    -0.287 A  
ENDBRANCH  19  22
ENDBRANCH  15  16
ENDBRANCH  14  15
ENDBRANCH  11  14
ENDBRANCH   6   8
ENDBRANCH   4   6
ENDBRANCH   2   4
TORSDOF 7
ENDMDL
MODEL       56
REMARK 921   NORMALIZED FREE ENERGY PREDICTED BY IDOCK:   -5.16 KCAL/MOL
REMARK 922        TOTAL FREE ENERGY PREDICTED BY IDOCK:   -8.04 KCAL/MOL
REMARK 923 INTER-LIGAND FREE ENERGY PREDICTED BY IDOCK:   -7.43 KCAL/MOL
REMARK 924 INTRA-LIGAND FREE ENERGY PREDICTED BY IDOCK:   -0.61 KCAL/MOL
REMARK 927      BINDING AFFINITY PREDICTED BY RF-SCORE:    0.00 PKD
ROOT
HETATM    1  C   UNL     1      -8.580   3.459  66.603  1.00  0.00    -0.115 C  
HETATM    2  N   UNL     1      -8.934   4.648  65.851  1.00  0.00    -0.123 N  
HETATM    3  C   UNL     1      -8.592   4.697  64.440  1.00  0.00    -0.142 C  
ENDROOT
BRANCH   2   4
HETATM    4  C   UNL     1      -9.664   5.618  66.526  1.00  0.00    -0.160 C  
HETATM    5  O   UNL     1     -10.339   5.364  67.521  1.00  0.00    -0.197 OA 
BRANCH   4   6
HETATM    6  N   UNL     1      -9.609   6.868  65.979  1.00  0.00    -0.399 N  
HETATM    7  H   UNL     1     -10.267   7.111  65.238  1.00  0.00     0.000 HD 
BRANCH   6   8
HETATM    8  C   UNL     1      -8.641   7.868  66.419  1.00  0.00    -0.147 C  
HETATM    9  C   UNL     1      -8.589   9.046  65.439  1.00  0.00    -0.200 C  
HETATM   10  C   UNL     1      -9.877   9.871  65.462  1.00  0.00    -0.381 C  
HETATM   11  C   UNL     1     -10.268  10.341  66.876  1.00  0.00    -0.286 C  
HETATM   12  C   UNL     1      -8.983   8.345  67.834  1.00  0.00    -0.138 C  
HETATM   13  C   UNL     1     -10.269   9.171  67.874  1.00  0.00    -0.266 C  
BRANCH  11  14
HETATM   14  C   UNL     1      -9.365  11.479  67.391  1.00  0.00    -0.168 C  
BRANCH  14  15
HETATM   15  C   UNL     1     -10.113  12.589  68.141  1.00  0.00    -0.225 C  
BRANCH  15  16
HETATM   16  N   UNL     1     -10.848  13.526  67.275  1.00  0.00    -0.274 NA 
HETATM   17  C   UNL     1     -11.538  14.596  68.036  1.00  0.00    -0.340 C  
HETATM   18  C   UNL     1     -10.597  15.595  68.749  1.00  0.00    -0.238 C  
HETATM   19  N   UNL     1      -9.633  16.166  67.783  1.00  0.00    -0.222 NA 
HETATM   20  C   UNL     1      -9.914  14.189  66.322  1.00  0.00    -0.303 C  
HETATM   21  C   UNL     1      -8.906  15.149  67.004  1.00  0.00    -0.234 C  
BRANCH  19  22
HETATM   22  C   UNL     1      -9.512  17.538  67.617  1.00  0.00    -0.256 A  
HETATM   23  C   UNL     1      -8.330  18.307  67.804  1.00  0.00    -0.255 A  
HETATM   24  C   UNL     1      -8.347  19.711  67.636  1.00  0.00    -0.308 A  
HETATM   25 CL   UNL     1      -6.779  17.566  68.108  1.00  0.00    -0.186 Cl 
HETATM   26  C   UNL     1      -9.506  20.368  67.222  1.00  0.00    -0.568 A  
HETATM   27 CL   UNL     1      -6.956  20.710  67.914  1.00  0.00    -0.331 Cl 
HETATM   28  C   UNL     1     -10.660  19.639  66.996  1.00  0.00    -0.602 A  
HETATM   29  C   UNL     1     -10.662  18.262  67.215  1.00  0.00    -0.366 A  
ENDBRANCH  19  22
ENDBRANCH  15  16
ENDBRANCH  14  15
ENDBRANCH  11  14
ENDBRANCH   6   8
ENDBRANCH   4   6
ENDBRANCH   2   4
TORSDOF 7
ENDMDL
MODEL       57
REMARK 921   NORMALIZED FREE ENERGY PREDICTED BY IDOCK:   -5.15 KCAL/MOL
REMARK 922        TOTAL FREE ENERGY PREDICTED BY IDOCK:   -8.03 KCAL/MOL
REMARK 923 INTER-LIGAND FREE ENERGY PREDICTED BY IDOCK:   -7.37 KCAL/MOL
REMARK 924 INTRA-LIGAND FREE ENERGY PREDICTED BY IDOCK:   -0.66 KCAL/MOL
REMARK 927      BINDING AFFINITY PREDICTED BY RF-SCORE:    0.00 PKD
ROOT
HETATM    1  C   UNL     1     -10.045  12.069  63.736  1.00  0.00    -0.394 C  
HETATM    2  N   UNL     1     -11.098  13.010  64.065  1.00  0.00    -0.396 N  
HETATM    3  C   UNL     1     -12.365  12.900  63.362  1.00  0.00    -0.410 C  
ENDROOT
BRANCH   2   4
HETATM    4  C   UNL     1     -10.841  13.895  65.104  1.00  0.00    -0.358 C  
HETATM    5  O   UNL     1     -10.253  14.961  64.933  1.00  0.00    -0.372 OA 
BRANCH   4   6
HETATM    6  N   UNL     1     -11.251  13.476  66.337  1.00  0.00    -0.303 N  
HETATM    7  H   UNL     1     -12.244  13.525  66.569  1.00  0.00     0.000 HD 
BRANCH   6   8
HETATM    8  C   UNL     1     -10.318  12.961  67.334  1.00  0.00    -0.233 C  
HETATM    9  C   UNL     1     -10.646  13.513  68.726  1.00  0.00    -0.237 C  
HETATM   10  C   UNL     1     -11.968  12.965  69.266  1.00  0.00    -0.313 C  
HETATM   11  C   UNL     1     -12.035  11.426  69.250  1.00  0.00    -0.400 C  
HETATM   12  C   UNL     1     -10.339  11.429  67.332  1.00  0.00    -0.232 C  
HETATM   13  C   UNL     1     -11.655  10.865  67.869  1.00  0.00    -0.270 C  
BRANCH  11  14
HETATM   14  C   UNL     1     -11.161  10.784  70.345  1.00  0.00    -0.270 C  
BRANCH  14  15
HETATM   15  C   UNL     1     -11.639   9.401  70.804  1.00  0.00    -0.298 C  
BRANCH  15  16
HETATM   16  N   UNL     1     -10.558   8.427  71.042  1.00  0.00    -0.208 NA 
HETATM   17  C   UNL     1     -11.049   7.031  71.131  1.00  0.00    -0.258 C  
HETATM   18  C   UNL     1     -11.618   6.458  69.811  1.00  0.00    -0.327 C  
HETATM   19  N   UNL     1     -10.630   6.608  68.722  1.00  0.00    -0.215 NA 
HETATM   20  C   UNL     1      -9.563   8.481  69.935  1.00  0.00    -0.171 C  
HETATM   21  C   UNL     1     -10.114   7.980  68.576  1.00  0.00    -0.199 C  
BRANCH  19  22
HETATM   22  C   UNL     1     -10.211   5.513  67.979  1.00  0.00    -0.181 A  
HETATM   23  C   UNL     1      -9.495   4.387  68.470  1.00  0.00    -0.156 A  
HETATM   24  C   UNL     1      -9.095   3.349  67.597  1.00  0.00    -0.169 A  
HETATM   25 CL   UNL     1      -9.194   4.149  70.173  1.00  0.00    -0.193 Cl 
HETATM   26  C   UNL     1      -9.446   3.373  66.248  1.00  0.00    -0.128 A  
HETATM   27 CL   UNL     1      -8.163   1.983  68.124  1.00  0.00    -0.067 Cl 
HETATM   28  C   UNL     1     -10.176   4.438  65.751  1.00  0.00    -0.257 A  
HETATM   29  C   UNL     1     -10.524   5.491  66.597  1.00  0.00    -0.355 A  
ENDBRANCH  19  22
ENDBRANCH  15  16
ENDBRANCH  14  15
ENDBRANCH  11  14
ENDBRANCH   6   8
ENDBRANCH   4   6
ENDBRANCH   2   4
TORSDOF 7
ENDMDL
MODEL       58
REMARK 921   NORMALIZED FREE ENERGY PREDICTED BY IDOCK:   -5.15 KCAL/MOL
REMARK 922        TOTAL FREE ENERGY PREDICTED BY IDOCK:   -8.03 KCAL/MOL
REMARK 923 INTER-LIGAND FREE ENERGY PREDICTED BY IDOCK:   -7.21 KCAL/MOL
REMARK 924 INTRA-LIGAND FREE ENERGY PREDICTED BY IDOCK:   -0.81 KCAL/MOL
REMARK 927      BINDING AFFINITY PREDICTED BY RF-SCORE:    0.00 PKD
ROOT
HETATM    1  C   UNL     1      -9.592   4.048  66.836  1.00  0.00    -0.207 C  
HETATM    2  N   UNL     1      -8.368   4.812  66.984  1.00  0.00    -0.106 N  
HETATM    3  C   UNL     1      -7.230   4.460  66.151  1.00  0.00    -0.076 C  
ENDROOT
BRANCH   2   4
HETATM    4  C   UNL     1      -8.410   5.893  67.855  1.00  0.00    -0.111 C  
HETATM    5  O   UNL     1      -8.642   5.766  69.056  1.00  0.00    -0.106 OA 
BRANCH   4   6
HETATM    6  N   UNL     1      -8.214   7.113  67.274  1.00  0.00    -0.118 N  
HETATM    7  H   UNL     1      -7.405   7.668  67.554  1.00  0.00     0.000 HD 
BRANCH   6   8
HETATM    8  C   UNL     1      -9.124   7.649  66.267  1.00  0.00    -0.162 C  
HETATM    9  C   UNL     1     -10.470   8.032  66.894  1.00  0.00    -0.387 C  
HETATM   10  C   UNL     1     -10.346   9.235  67.831  1.00  0.00    -0.279 C  
HETATM   11  C   UNL     1      -9.677  10.452  67.166  1.00  0.00    -0.206 C  
HETATM   12  C   UNL     1      -8.483   8.851  65.565  1.00  0.00    -0.174 C  
HETATM   13  C   UNL     1      -8.352  10.062  66.489  1.00  0.00    -0.126 C  
BRANCH  11  14
HETATM   14  C   UNL     1     -10.603  11.159  66.157  1.00  0.00    -0.305 C  
BRANCH  14  15
HETATM   15  C   UNL     1     -10.228  12.618  65.869  1.00  0.00    -0.274 C  
BRANCH  15  16
HETATM   16  N   UNL     1     -11.135  13.613  66.469  1.00  0.00    -0.302 NA 
HETATM   17  C   UNL     1     -10.570  14.250  67.683  1.00  0.00    -0.253 C  
HETATM   18  C   UNL     1      -9.338  15.150  67.431  1.00  0.00    -0.196 C  
HETATM   19  N   UNL     1      -9.648  16.159  66.396  1.00  0.00    -0.266 NA 
HETATM   20  C   UNL     1     -11.428  14.699  65.492  1.00  0.00    -0.341 C  
HETATM   21  C   UNL     1     -10.201  15.585  65.157  1.00  0.00    -0.299 C  
BRANCH  19  22
HETATM   22  C   UNL     1      -9.478  17.514  66.642  1.00  0.00    -0.275 A  
HETATM   23  C   UNL     1      -8.239  18.211  66.694  1.00  0.00    -0.262 A  
HETATM   24  C   UNL     1      -8.200  19.594  66.989  1.00  0.00    -0.288 A  
HETATM   25 CL   UNL     1      -6.727  17.451  66.264  1.00  0.00    -0.291 Cl 
HETATM   26  C   UNL     1      -9.376  20.319  67.175  1.00  0.00    -0.536 A  
HETATM   27 CL   UNL     1      -6.717  20.484  67.132  1.00  0.00    -0.301 Cl 
HETATM   28  C   UNL     1     -10.597  19.674  67.092  1.00  0.00    -0.611 A  
HETATM   29  C   UNL     1     -10.638  18.300  66.856  1.00  0.00    -0.356 A  
ENDBRANCH  19  22
ENDBRANCH  15  16
ENDBRANCH  14  15
ENDBRANCH  11  14
ENDBRANCH   6   8
ENDBRANCH   4   6
ENDBRANCH   2   4
TORSDOF 7
ENDMDL
MODEL       59
REMARK 921   NORMALIZED FREE ENERGY PREDICTED BY IDOCK:   -5.14 KCAL/MOL
REMARK 922        TOTAL FREE ENERGY PREDICTED BY IDOCK:   -8.01 KCAL/MOL
REMARK 923 INTER-LIGAND FREE ENERGY PREDICTED BY IDOCK:   -7.44 KCAL/MOL
REMARK 924 INTRA-LIGAND FREE ENERGY PREDICTED BY IDOCK:   -0.57 KCAL/MOL
REMARK 927      BINDING AFFINITY PREDICTED BY RF-SCORE:    0.00 PKD
ROOT
HETATM    1  C   UNL     1     -10.644  18.437  66.112  1.00  0.00    -0.315 C  
HETATM    2  N   UNL     1     -10.049  17.141  65.844  1.00  0.00    -0.279 N  
HETATM    3  C   UNL     1      -8.862  16.760  66.591  1.00  0.00    -0.255 C  
ENDROOT
BRANCH   2   4
HETATM    4  C   UNL     1     -10.723  16.318  64.950  1.00  0.00    -0.234 C  
HETATM    5  O   UNL     1     -11.533  16.754  64.134  1.00  0.00    -1.171 OA 
BRANCH   4   6
HETATM    6  N   UNL     1     -10.451  14.987  65.072  1.00  0.00    -0.400 N  
HETATM    7  H   UNL     1      -9.491  14.666  64.948  1.00  0.00     0.000 HD 
BRANCH   6   8
HETATM    8  C   UNL     1     -11.489  14.005  65.372  1.00  0.00    -0.315 C  
HETATM    9  C   UNL     1     -10.952  12.577  65.221  1.00  0.00    -0.329 C  
HETATM   10  C   UNL     1      -9.919  12.234  66.297  1.00  0.00    -0.249 C  
HETATM   11  C   UNL     1     -10.431  12.487  67.728  1.00  0.00    -0.230 C  
HETATM   12  C   UNL     1     -12.041  14.238  66.783  1.00  0.00    -0.446 C  
HETATM   13  C   UNL     1     -11.021  13.900  67.870  1.00  0.00    -0.265 C  
BRANCH  11  14
HETATM   14  C   UNL     1     -11.460  11.433  68.183  1.00  0.00    -0.375 C  
BRANCH  14  15
HETATM   15  C   UNL     1     -10.852  10.233  68.919  1.00  0.00    -0.228 C  
BRANCH  15  16
HETATM   16  N   UNL     1      -9.693   9.623  68.244  1.00  0.00    -0.144 NA 
HETATM   17  C   UNL     1      -8.861   8.801  69.156  1.00  0.00    -0.137 C  
HETATM   18  C   UNL     1      -9.549   7.519  69.683  1.00  0.00    -0.159 C  
HETATM   19  N   UNL     1     -10.058   6.713  68.554  1.00  0.00    -0.153 NA 
HETATM   20  C   UNL     1     -10.147   8.738  67.136  1.00  0.00    -0.252 C  
HETATM   21  C   UNL     1     -10.903   7.473  67.618  1.00  0.00    -0.127 C  
BRANCH  19  22
HETATM   22  C   UNL     1      -9.690   5.384  68.399  1.00  0.00    -0.136 A  
HETATM   23  C   UNL     1      -9.260   4.764  67.193  1.00  0.00    -0.127 A  
HETATM   24  C   UNL     1      -8.945   3.386  67.162  1.00  0.00    -0.154 A  
HETATM   25 CL   UNL     1      -8.962   5.678  65.736  1.00  0.00    -0.159 Cl 
HETATM   26  C   UNL     1      -8.988   2.615  68.323  1.00  0.00    -0.195 A  
HETATM   27 CL   UNL     1      -8.479   2.560  65.709  1.00  0.00    -0.096 Cl 
HETATM   28  C   UNL     1      -9.365   3.201  69.518  1.00  0.00    -0.228 A  
HETATM   29  C   UNL     1      -9.731   4.547  69.543  1.00  0.00    -0.282 A  
ENDBRANCH  19  22
ENDBRANCH  15  16
ENDBRANCH  14  15
ENDBRANCH  11  14
ENDBRANCH   6   8
ENDBRANCH   4   6
ENDBRANCH   2   4
TORSDOF 7
ENDMDL
MODEL       60
REMARK 921   NORMALIZED FREE ENERGY PREDICTED BY IDOCK:   -5.13 KCAL/MOL
REMARK 922        TOTAL FREE ENERGY PREDICTED BY IDOCK:   -8.01 KCAL/MOL
REMARK 923 INTER-LIGAND FREE ENERGY PREDICTED BY IDOCK:   -7.60 KCAL/MOL
REMARK 924 INTRA-LIGAND FREE ENERGY PREDICTED BY IDOCK:   -0.40 KCAL/MOL
REMARK 927      BINDING AFFINITY PREDICTED BY RF-SCORE:    0.00 PKD
ROOT
HETATM    1  C   UNL     1     -10.545   7.054  67.254  1.00  0.00    -0.325 C  
HETATM    2  N   UNL     1      -9.250   7.023  66.601  1.00  0.00    -0.154 N  
HETATM    3  C   UNL     1      -8.317   5.971  66.971  1.00  0.00    -0.105 C  
ENDROOT
BRANCH   2   4
HETATM    4  C   UNL     1      -9.036   7.957  65.596  1.00  0.00    -0.030 C  
HETATM    5  O   UNL     1      -8.184   7.804  64.723  1.00  0.00    -0.145 OA 
BRANCH   4   6
HETATM    6  N   UNL     1      -9.812   9.077  65.671  1.00  0.00    -0.465 N  
HETATM    7  H   UNL     1     -10.824   8.983  65.581  1.00  0.00     0.000 HD 
BRANCH   6   8
HETATM    8  C   UNL     1      -9.243  10.405  65.876  1.00  0.00    -0.170 C  
HETATM    9  C   UNL     1      -9.565  11.327  64.694  1.00  0.00    -0.265 C  
HETATM   10  C   UNL     1     -11.055  11.666  64.619  1.00  0.00    -0.342 C  
HETATM   11  C   UNL     1     -11.611  12.239  65.936  1.00  0.00    -0.450 C  
HETATM   12  C   UNL     1      -9.755  11.001  67.192  1.00  0.00    -0.198 C  
HETATM   13  C   UNL     1     -11.243  11.346  67.133  1.00  0.00    -0.363 C  
BRANCH  11  14
HETATM   14  C   UNL     1     -11.151  13.687  66.193  1.00  0.00    -0.299 C  
BRANCH  14  15
HETATM   15  C   UNL     1     -11.917  14.405  67.312  1.00  0.00    -0.377 C  
BRANCH  15  16
HETATM   16  N   UNL     1     -11.123  14.670  68.524  1.00  0.00    -0.249 NA 
HETATM   17  C   UNL     1      -9.667  14.478  68.315  1.00  0.00    -0.218 C  
HETATM   18  C   UNL     1      -9.010  15.498  67.354  1.00  0.00    -0.192 C  
HETATM   19  N   UNL     1      -9.308  16.878  67.794  1.00  0.00    -0.233 NA 
HETATM   20  C   UNL     1     -11.327  16.075  68.978  1.00  0.00    -0.363 C  
HETATM   21  C   UNL     1     -10.743  17.133  68.008  1.00  0.00    -0.372 C  
BRANCH  19  22
HETATM   22  C   UNL     1      -8.289  17.789  68.034  1.00  0.00    -0.249 A  
HETATM   23  C   UNL     1      -8.085  19.022  67.355  1.00  0.00    -0.266 A  
HETATM   24  C   UNL     1      -6.983  19.848  67.673  1.00  0.00    -0.247 A  
HETATM   25 CL   UNL     1      -9.240  19.650  66.206  1.00  0.00    -0.420 Cl 
HETATM   26  C   UNL     1      -6.105  19.506  68.701  1.00  0.00    -0.267 A  
HETATM   27 CL   UNL     1      -6.644  21.329  66.835  1.00  0.00    -0.387 Cl 
HETATM   28  C   UNL     1      -6.302  18.331  69.405  1.00  0.00    -0.256 A  
HETATM   29  C   UNL     1      -7.356  17.486  69.057  1.00  0.00    -0.197 A  
ENDBRANCH  19  22
ENDBRANCH  15  16
ENDBRANCH  14  15
ENDBRANCH  11  14
ENDBRANCH   6   8
ENDBRANCH   4   6
ENDBRANCH   2   4
TORSDOF 7
ENDMDL
MODEL       61
REMARK 921   NORMALIZED FREE ENERGY PREDICTED BY IDOCK:   -5.13 KCAL/MOL
REMARK 922        TOTAL FREE ENERGY PREDICTED BY IDOCK:   -8.00 KCAL/MOL
REMARK 923 INTER-LIGAND FREE ENERGY PREDICTED BY IDOCK:   -7.02 KCAL/MOL
REMARK 924 INTRA-LIGAND FREE ENERGY PREDICTED BY IDOCK:   -0.98 KCAL/MOL
REMARK 927      BINDING AFFINITY PREDICTED BY RF-SCORE:    0.00 PKD
ROOT
HETATM    1  C   UNL     1     -10.052   1.619  63.785  1.00  0.00    -0.113 C  
HETATM    2  N   UNL     1      -9.543   2.873  64.309  1.00  0.00    -0.149 N  
HETATM    3  C   UNL     1      -9.524   4.030  63.429  1.00  0.00    -0.150 C  
ENDROOT
BRANCH   2   4
HETATM    4  C   UNL     1      -9.195   2.891  65.653  1.00  0.00    -0.115 C  
HETATM    5  O   UNL     1      -8.439   2.060  66.151  1.00  0.00    -0.091 OA 
BRANCH   4   6
HETATM    6  N   UNL     1      -9.787   3.875  66.391  1.00  0.00    -0.377 N  
HETATM    7  H   UNL     1     -10.795   3.835  66.548  1.00  0.00     0.000 HD 
BRANCH   6   8
HETATM    8  C   UNL     1      -9.028   4.983  66.961  1.00  0.00    -0.112 C  
HETATM    9  C   UNL     1      -9.752   6.316  66.736  1.00  0.00    -0.193 C  
HETATM   10  C   UNL     1     -11.046   6.412  67.547  1.00  0.00    -0.401 C  
HETATM   11  C   UNL     1     -10.838   6.140  69.049  1.00  0.00    -0.416 C  
HETATM   12  C   UNL     1      -8.781   4.738  68.454  1.00  0.00    -0.112 C  
HETATM   13  C   UNL     1     -10.064   4.831  69.279  1.00  0.00    -0.217 C  
BRANCH  11  14
HETATM   14  C   UNL     1     -10.135   7.307  69.770  1.00  0.00    -0.196 C  
BRANCH  14  15
HETATM   15  C   UNL     1     -10.903   8.634  69.723  1.00  0.00    -0.183 C  
BRANCH  15  16
HETATM   16  N   UNL     1     -10.052   9.830  69.597  1.00  0.00    -0.214 NA 
HETATM   17  C   UNL     1      -9.423   9.953  68.259  1.00  0.00    -0.139 C  
HETATM   18  C   UNL     1     -10.411  10.223  67.100  1.00  0.00    -0.254 C  
HETATM   19  N   UNL     1     -11.246  11.403  67.407  1.00  0.00    -0.310 NA 
HETATM   20  C   UNL     1     -10.857  11.063  69.826  1.00  0.00    -0.144 C  
HETATM   21  C   UNL     1     -11.909  11.334  68.720  1.00  0.00    -0.329 C  
BRANCH  19  22
HETATM   22  C   UNL     1     -11.313  12.480  66.533  1.00  0.00    -0.334 A  
HETATM   23  C   UNL     1     -10.788  13.782  66.761  1.00  0.00    -0.284 A  
HETATM   24  C   UNL     1     -10.953  14.806  65.800  1.00  0.00    -0.334 A  
HETATM   25 CL   UNL     1      -9.799  14.154  68.151  1.00  0.00    -0.222 Cl 
HETATM   26  C   UNL     1     -11.580  14.549  64.581  1.00  0.00    -0.413 A  
HETATM   27 CL   UNL     1     -10.394  16.430  66.048  1.00  0.00    -0.352 Cl 
HETATM   28  C   UNL     1     -12.067  13.281  64.317  1.00  0.00    -0.475 A  
HETATM   29  C   UNL     1     -11.955  12.283  65.286  1.00  0.00    -0.391 A  
ENDBRANCH  19  22
ENDBRANCH  15  16
ENDBRANCH  14  15
ENDBRANCH  11  14
ENDBRANCH   6   8
ENDBRANCH   4   6
ENDBRANCH   2   4
TORSDOF 7
ENDMDL
MODEL       62
REMARK 921   NORMALIZED FREE ENERGY PREDICTED BY IDOCK:   -5.12 KCAL/MOL
REMARK 922        TOTAL FREE ENERGY PREDICTED BY IDOCK:   -7.98 KCAL/MOL
REMARK 923 INTER-LIGAND FREE ENERGY PREDICTED BY IDOCK:   -7.30 KCAL/MOL
REMARK 924 INTRA-LIGAND FREE ENERGY PREDICTED BY IDOCK:   -0.69 KCAL/MOL
REMARK 927      BINDING AFFINITY PREDICTED BY RF-SCORE:    0.00 PKD
ROOT
HETATM    1  C   UNL     1     -11.460   6.443  69.992  1.00  0.00    -0.428 C  
HETATM    2  N   UNL     1     -10.444   6.515  68.959  1.00  0.00    -0.197 N  
HETATM    3  C   UNL     1      -9.217   5.759  69.147  1.00  0.00    -0.120 C  
ENDROOT
BRANCH   2   4
HETATM    4  C   UNL     1     -10.767   7.234  67.815  1.00  0.00    -0.197 C  
HETATM    5  O   UNL     1     -10.741   6.735  66.692  1.00  0.00    -0.245 OA 
BRANCH   4   6
HETATM    6  N   UNL     1     -11.074   8.547  68.025  1.00  0.00    -0.379 N  
HETATM    7  H   UNL     1     -12.052   8.812  68.145  1.00  0.00     0.000 HD 
BRANCH   6   8
HETATM    8  C   UNL     1     -10.050   9.586  68.083  1.00  0.00    -0.182 C  
HETATM    9  C   UNL     1      -9.899  10.282  66.725  1.00  0.00    -0.246 C  
HETATM   10  C   UNL     1     -11.130  11.118  66.367  1.00  0.00    -0.204 C  
HETATM   11  C   UNL     1     -11.517  12.124  67.467  1.00  0.00    -0.410 C  
HETATM   12  C   UNL     1     -10.388  10.597  69.184  1.00  0.00    -0.242 C  
HETATM   13  C   UNL     1     -11.616  11.441  68.841  1.00  0.00    -0.388 C  
BRANCH  11  14
HETATM   14  C   UNL     1     -10.551  13.323  67.538  1.00  0.00    -0.251 C  
BRANCH  14  15
HETATM   15  C   UNL     1     -11.162  14.593  68.144  1.00  0.00    -0.289 C  
BRANCH  15  16
HETATM   16  N   UNL     1     -10.293  15.291  69.108  1.00  0.00    -0.237 NA 
HETATM   17  C   UNL     1      -8.873  15.330  68.682  1.00  0.00    -0.188 C  
HETATM   18  C   UNL     1      -8.596  16.188  67.425  1.00  0.00    -0.180 C  
HETATM   19  N   UNL     1      -9.134  17.552  67.609  1.00  0.00    -0.241 NA 
HETATM   20  C   UNL     1     -10.745  16.700  69.283  1.00  0.00    -0.337 C  
HETATM   21  C   UNL     1     -10.548  17.579  68.021  1.00  0.00    -0.384 C  
BRANCH  19  22
HETATM   22  C   UNL     1      -8.324  18.668  67.461  1.00  0.00    -0.265 A  
HETATM   23  C   UNL     1      -7.347  19.128  68.387  1.00  0.00    -0.298 A  
HETATM   24  C   UNL     1      -6.607  20.306  68.132  1.00  0.00    -0.301 A  
HETATM   25 CL   UNL     1      -6.905  18.207  69.803  1.00  0.00     0.064 Cl 
HETATM   26  C   UNL     1      -6.773  21.010  66.940  1.00  0.00    -0.388 A  
HETATM   27 CL   UNL     1      -5.450  20.952  69.252  1.00  0.00    -0.407 Cl 
HETATM   28  C   UNL     1      -7.688  20.564  66.004  1.00  0.00    -0.014 A  
HETATM   29  C   UNL     1      -8.460  19.434  66.277  1.00  0.00    -0.346 A  
ENDBRANCH  19  22
ENDBRANCH  15  16
ENDBRANCH  14  15
ENDBRANCH  11  14
ENDBRANCH   6   8
ENDBRANCH   4   6
ENDBRANCH   2   4
TORSDOF 7
ENDMDL
MODEL       63
REMARK 921   NORMALIZED FREE ENERGY PREDICTED BY IDOCK:   -5.10 KCAL/MOL
REMARK 922        TOTAL FREE ENERGY PREDICTED BY IDOCK:   -7.96 KCAL/MOL
REMARK 923 INTER-LIGAND FREE ENERGY PREDICTED BY IDOCK:   -7.02 KCAL/MOL
REMARK 924 INTRA-LIGAND FREE ENERGY PREDICTED BY IDOCK:   -0.93 KCAL/MOL
REMARK 927      BINDING AFFINITY PREDICTED BY RF-SCORE:    0.00 PKD
ROOT
HETATM    1  C   UNL     1     -10.816   5.844  69.628  1.00  0.00    -0.374 C  
HETATM    2  N   UNL     1      -9.620   5.523  68.872  1.00  0.00    -0.129 N  
HETATM    3  C   UNL     1      -8.612   4.686  69.500  1.00  0.00    -0.081 C  
ENDROOT
BRANCH   2   4
HETATM    4  C   UNL     1      -9.576   5.969  67.557  1.00  0.00    -0.113 C  
HETATM    5  O   UNL     1     -10.378   5.594  66.705  1.00  0.00    -0.213 OA 
BRANCH   4   6
HETATM    6  N   UNL     1      -8.550   6.822  67.270  1.00  0.00    -0.119 N  
HETATM    7  H   UNL     1      -7.803   6.505  66.652  1.00  0.00     0.000 HD 
BRANCH   6   8
HETATM    8  C   UNL     1      -8.486   8.173  67.819  1.00  0.00    -0.132 C  
HETATM    9  C   UNL     1      -7.283   8.937  67.251  1.00  0.00    -0.083 C  
HETATM   10  C   UNL     1      -7.447   9.244  65.762  1.00  0.00    -0.098 C  
HETATM   11  C   UNL     1      -8.768   9.967  65.436  1.00  0.00    -0.176 C  
HETATM   12  C   UNL     1      -9.794   8.920  67.534  1.00  0.00    -0.237 C  
HETATM   13  C   UNL     1      -9.973   9.234  66.049  1.00  0.00    -0.325 C  
BRANCH  11  14
HETATM   14  C   UNL     1      -8.760  11.443  65.881  1.00  0.00    -0.101 C  
BRANCH  14  15
HETATM   15  C   UNL     1     -10.109  12.157  65.728  1.00  0.00    -0.247 C  
BRANCH  15  16
HETATM   16  N   UNL     1     -10.168  13.494  66.344  1.00  0.00    -0.285 NA 
HETATM   17  C   UNL     1     -11.554  13.937  66.630  1.00  0.00    -0.374 C  
HETATM   18  C   UNL     1     -12.282  13.123  67.725  1.00  0.00    -0.076 C  
HETATM   19  N   UNL     1     -11.469  13.086  68.959  1.00  0.00    -0.285 NA 
HETATM   20  C   UNL     1      -9.422  13.501  67.634  1.00  0.00    -0.222 C  
HETATM   21  C   UNL     1     -10.083  12.640  68.740  1.00  0.00    -0.044 C  
BRANCH  19  22
HETATM   22  C   UNL     1     -11.991  13.506  70.174  1.00  0.00    -0.329 A  
HETATM   23  C   UNL     1     -11.754  14.759  70.805  1.00  0.00    -0.300 A  
HETATM   24  C   UNL     1     -12.321  15.052  72.066  1.00  0.00    -0.347 A  
HETATM   25 CL   UNL     1     -10.880  16.046  70.011  1.00  0.00    -0.335 Cl 
HETATM   26  C   UNL     1     -13.176  14.147  72.694  1.00  0.00    -0.612 A  
HETATM   27 CL   UNL     1     -12.015  16.534  72.914  1.00  0.00    -0.589 Cl 
HETATM   28  C   UNL     1     -13.456  12.937  72.085  1.00  0.00    -0.619 A  
HETATM   29  C   UNL     1     -12.854  12.620  70.867  1.00  0.00    -0.178 A  
ENDBRANCH  19  22
ENDBRANCH  15  16
ENDBRANCH  14  15
ENDBRANCH  11  14
ENDBRANCH   6   8
ENDBRANCH   4   6
ENDBRANCH   2   4
TORSDOF 7
ENDMDL
MODEL       64
REMARK 921   NORMALIZED FREE ENERGY PREDICTED BY IDOCK:   -5.07 KCAL/MOL
REMARK 922        TOTAL FREE ENERGY PREDICTED BY IDOCK:   -7.92 KCAL/MOL
REMARK 923 INTER-LIGAND FREE ENERGY PREDICTED BY IDOCK:   -7.24 KCAL/MOL
REMARK 924 INTRA-LIGAND FREE ENERGY PREDICTED BY IDOCK:   -0.67 KCAL/MOL
REMARK 927      BINDING AFFINITY PREDICTED BY RF-SCORE:    0.00 PKD
ROOT
HETATM    1  C   UNL     1      -5.313  21.125  66.361  1.00  0.00    -0.223 C  
HETATM    2  N   UNL     1      -6.366  20.254  65.876  1.00  0.00    -0.206 N  
HETATM    3  C   UNL     1      -6.119  19.479  64.672  1.00  0.00    -0.267 C  
ENDROOT
BRANCH   2   4
HETATM    4  C   UNL     1      -7.508  20.159  66.661  1.00  0.00    -0.279 C  
HETATM    5  O   UNL     1      -7.843  21.041  67.449  1.00  0.00    -0.282 OA 
BRANCH   4   6
HETATM    6  N   UNL     1      -8.209  18.996  66.525  1.00  0.00    -0.292 N  
HETATM    7  H   UNL     1      -9.006  18.972  65.888  1.00  0.00     0.000 HD 
BRANCH   6   8
HETATM    8  C   UNL     1      -7.857  17.785  67.259  1.00  0.00    -0.211 C  
HETATM    9  C   UNL     1      -8.714  17.643  68.523  1.00  0.00    -0.285 C  
HETATM   10  C   UNL     1     -10.181  17.358  68.194  1.00  0.00    -0.350 C  
HETATM   11  C   UNL     1     -10.366  16.148  67.258  1.00  0.00    -0.287 C  
HETATM   12  C   UNL     1      -8.006  16.558  66.354  1.00  0.00    -0.352 C  
HETATM   13  C   UNL     1      -9.467  16.259  66.015  1.00  0.00    -0.369 C  
BRANCH  11  14
HETATM   14  C   UNL     1     -10.120  14.804  67.973  1.00  0.00    -0.218 C  
BRANCH  14  15
HETATM   15  C   UNL     1     -10.967  14.596  69.235  1.00  0.00    -0.260 C  
BRANCH  15  16
HETATM   16  N   UNL     1     -12.223  13.858  69.015  1.00  0.00    -0.318 NA 
HETATM   17  C   UNL     1     -12.013  12.541  68.366  1.00  0.00    -0.221 C  
HETATM   18  C   UNL     1     -11.259  11.504  69.231  1.00  0.00    -0.272 C  
HETATM   19  N   UNL     1     -11.927  11.351  70.541  1.00  0.00    -0.365 NA 
HETATM   20  C   UNL     1     -12.911  13.610  70.313  1.00  0.00     0.009 C  
HETATM   21  C   UNL     1     -12.153  12.627  71.242  1.00  0.00     0.375 C  
BRANCH  19  22
HETATM   22  C   UNL     1     -12.343  10.107  70.993  1.00  0.00    -0.373 A  
HETATM   23  C   UNL     1     -11.510   8.982  71.247  1.00  0.00    -0.320 A  
HETATM   24  C   UNL     1     -12.065   7.754  71.674  1.00  0.00    -0.304 A  
HETATM   25 CL   UNL     1      -9.768   9.085  71.189  1.00  0.00    -0.347 Cl 
HETATM   26  C   UNL     1     -13.433   7.633  71.916  1.00  0.00    -0.311 A  
HETATM   27 CL   UNL     1     -11.110   6.330  71.937  1.00  0.00    -0.298 Cl 
HETATM   28  C   UNL     1     -14.262   8.722  71.713  1.00  0.00    -0.443 A  
HETATM   29  C   UNL     1     -13.726   9.919  71.238  1.00  0.00    -0.174 A  
ENDBRANCH  19  22
ENDBRANCH  15  16
ENDBRANCH  14  15
ENDBRANCH  11  14
ENDBRANCH   6   8
ENDBRANCH   4   6
ENDBRANCH   2   4
TORSDOF 7
ENDMDL
MODEL       65
REMARK 921   NORMALIZED FREE ENERGY PREDICTED BY IDOCK:   -5.06 KCAL/MOL
REMARK 922        TOTAL FREE ENERGY PREDICTED BY IDOCK:   -7.90 KCAL/MOL
REMARK 923 INTER-LIGAND FREE ENERGY PREDICTED BY IDOCK:   -7.08 KCAL/MOL
REMARK 924 INTRA-LIGAND FREE ENERGY PREDICTED BY IDOCK:   -0.82 KCAL/MOL
REMARK 927      BINDING AFFINITY PREDICTED BY RF-SCORE:    0.00 PKD
ROOT
HETATM    1  C   UNL     1      -8.220  19.614  66.194  1.00  0.00    -0.341 C  
HETATM    2  N   UNL     1      -9.321  19.099  66.986  1.00  0.00    -0.301 N  
HETATM    3  C   UNL     1     -10.669  19.229  66.459  1.00  0.00    -0.393 C  
ENDROOT
BRANCH   2   4
HETATM    4  C   UNL     1      -8.988  18.433  68.159  1.00  0.00    -0.309 C  
HETATM    5  O   UNL     1      -7.886  18.545  68.691  1.00  0.00    -0.312 OA 
BRANCH   4   6
HETATM    6  N   UNL     1      -9.960  17.613  68.654  1.00  0.00    -0.349 N  
HETATM    7  H   UNL     1     -10.917  17.962  68.715  1.00  0.00     0.000 HD 
BRANCH   6   8
HETATM    8  C   UNL     1      -9.676  16.252  69.101  1.00  0.00    -0.265 C  
HETATM    9  C   UNL     1     -10.809  15.719  69.986  1.00  0.00    -0.348 C  
HETATM   10  C   UNL     1     -12.099  15.494  69.195  1.00  0.00    -0.266 C  
HETATM   11  C   UNL     1     -11.898  14.604  67.954  1.00  0.00    -0.352 C  
HETATM   12  C   UNL     1      -9.447  15.338  67.892  1.00  0.00    -0.197 C  
HETATM   13  C   UNL     1     -10.727  15.103  67.091  1.00  0.00    -0.310 C  
BRANCH  11  14
HETATM   14  C   UNL     1     -11.697  13.119  68.317  1.00  0.00    -0.384 C  
BRANCH  14  15
HETATM   15  C   UNL     1     -11.288  12.229  67.137  1.00  0.00    -0.335 C  
BRANCH  15  16
HETATM   16  N   UNL     1      -9.949  11.627  67.258  1.00  0.00    -0.190 NA 
HETATM   17  C   UNL     1      -9.579  11.323  68.662  1.00  0.00    -0.190 C  
HETATM   18  C   UNL     1     -10.419  10.208  69.327  1.00  0.00    -0.225 C  
HETATM   19  N   UNL     1     -10.397   8.987  68.494  1.00  0.00    -0.201 NA 
HETATM   20  C   UNL     1      -9.886  10.350  66.494  1.00  0.00    -0.206 C  
HETATM   21  C   UNL     1     -10.769   9.223  67.089  1.00  0.00    -0.152 C  
BRANCH  19  22
HETATM   22  C   UNL     1      -9.991   7.768  69.019  1.00  0.00    -0.182 A  
HETATM   23  C   UNL     1      -8.659   7.270  69.059  1.00  0.00    -0.129 A  
HETATM   24  C   UNL     1      -8.382   5.990  69.593  1.00  0.00    -0.119 A  
HETATM   25 CL   UNL     1      -7.289   8.246  68.593  1.00  0.00    -0.087 Cl 
HETATM   26  C   UNL     1      -9.397   5.212  70.149  1.00  0.00    -0.208 A  
HETATM   27 CL   UNL     1      -6.790   5.301  69.610  1.00  0.00    -0.054 Cl 
HETATM   28  C   UNL     1     -10.696   5.688  70.158  1.00  0.00    -0.376 A  
HETATM   29  C   UNL     1     -10.982   6.926  69.582  1.00  0.00    -0.298 A  
ENDBRANCH  19  22
ENDBRANCH  15  16
ENDBRANCH  14  15
ENDBRANCH  11  14
ENDBRANCH   6   8
ENDBRANCH   4   6
ENDBRANCH   2   4
TORSDOF 7
ENDMDL
MODEL       66
REMARK 921   NORMALIZED FREE ENERGY PREDICTED BY IDOCK:   -5.05 KCAL/MOL
REMARK 922        TOTAL FREE ENERGY PREDICTED BY IDOCK:   -7.89 KCAL/MOL
REMARK 923 INTER-LIGAND FREE ENERGY PREDICTED BY IDOCK:   -7.18 KCAL/MOL
REMARK 924 INTRA-LIGAND FREE ENERGY PREDICTED BY IDOCK:   -0.71 KCAL/MOL
REMARK 927      BINDING AFFINITY PREDICTED BY RF-SCORE:    0.00 PKD
ROOT
HETATM    1  C   UNL     1     -12.027  15.382  73.198  1.00  0.00    -0.447 C  
HETATM    2  N   UNL     1     -12.831  14.658  72.233  1.00  0.00    -0.324 N  
HETATM    3  C   UNL     1     -13.238  13.300  72.555  1.00  0.00    -0.379 C  
ENDROOT
BRANCH   2   4
HETATM    4  C   UNL     1     -13.232  15.359  71.103  1.00  0.00    -0.513 C  
HETATM    5  O   UNL     1     -14.410  15.628  70.876  1.00  0.00    -0.350 OA 
BRANCH   4   6
HETATM    6  N   UNL     1     -12.228  15.692  70.241  1.00  0.00    -0.396 N  
HETATM    7  H   UNL     1     -12.258  16.600  69.776  1.00  0.00     0.000 HD 
BRANCH   6   8
HETATM    8  C   UNL     1     -11.113  14.793  69.962  1.00  0.00    -0.204 C  
HETATM    9  C   UNL     1     -11.583  13.571  69.163  1.00  0.00    -0.359 C  
HETATM   10  C   UNL     1     -12.009  13.942  67.741  1.00  0.00    -0.390 C  
HETATM   11  C   UNL     1     -10.930  14.727  66.973  1.00  0.00    -0.324 C  
HETATM   12  C   UNL     1     -10.005  15.544  69.215  1.00  0.00    -0.264 C  
HETATM   13  C   UNL     1     -10.416  15.923  67.793  1.00  0.00    -0.287 C  
BRANCH  11  14
HETATM   14  C   UNL     1      -9.750  13.836  66.535  1.00  0.00    -0.301 C  
BRANCH  14  15
HETATM   15  C   UNL     1     -10.087  12.343  66.440  1.00  0.00    -0.236 C  
BRANCH  15  16
HETATM   16  N   UNL     1      -8.932  11.443  66.609  1.00  0.00    -0.175 NA 
HETATM   17  C   UNL     1      -8.523  11.290  68.026  1.00  0.00    -0.138 C  
HETATM   18  C   UNL     1      -9.549  10.556  68.922  1.00  0.00    -0.193 C  
HETATM   19  N   UNL     1      -9.905   9.251  68.326  1.00  0.00    -0.154 NA 
HETATM   20  C   UNL     1      -9.256  10.085  66.089  1.00  0.00    -0.165 C  
HETATM   21  C   UNL     1     -10.333   9.340  66.920  1.00  0.00    -0.246 C  
BRANCH  19  22
HETATM   22  C   UNL     1      -9.768   8.073  69.047  1.00  0.00    -0.159 A  
HETATM   23  C   UNL     1      -8.543   7.441  69.402  1.00  0.00    -0.134 A  
HETATM   24  C   UNL     1      -8.541   6.218  70.112  1.00  0.00    -0.134 A  
HETATM   25 CL   UNL     1      -6.994   8.193  69.116  1.00  0.00    -0.059 Cl 
HETATM   26  C   UNL     1      -9.735   5.634  70.535  1.00  0.00    -0.233 A  
HETATM   27 CL   UNL     1      -7.084   5.368  70.516  1.00  0.00    -0.059 Cl 
HETATM   28  C   UNL     1     -10.939   6.247  70.237  1.00  0.00    -0.400 A  
HETATM   29  C   UNL     1     -10.948   7.424  69.488  1.00  0.00    -0.155 A  
ENDBRANCH  19  22
ENDBRANCH  15  16
ENDBRANCH  14  15
ENDBRANCH  11  14
ENDBRANCH   6   8
ENDBRANCH   4   6
ENDBRANCH   2   4
TORSDOF 7
ENDMDL
MODEL       67
REMARK 921   NORMALIZED FREE ENERGY PREDICTED BY IDOCK:   -5.04 KCAL/MOL
REMARK 922        TOTAL FREE ENERGY PREDICTED BY IDOCK:   -7.88 KCAL/MOL
REMARK 923 INTER-LIGAND FREE ENERGY PREDICTED BY IDOCK:   -7.16 KCAL/MOL
REMARK 924 INTRA-LIGAND FREE ENERGY PREDICTED BY IDOCK:   -0.72 KCAL/MOL
REMARK 927      BINDING AFFINITY PREDICTED BY RF-SCORE:    0.00 PKD
ROOT
HETATM    1  C   UNL     1     -10.190  15.450  65.337  1.00  0.00    -0.377 C  
HETATM    2  N   UNL     1     -11.014  14.383  64.801  1.00  0.00    -0.401 N  
HETATM    3  C   UNL     1     -12.389  14.689  64.443  1.00  0.00    -0.398 C  
ENDROOT
BRANCH   2   4
HETATM    4  C   UNL     1     -10.389  13.162  64.582  1.00  0.00    -0.361 C  
HETATM    5  O   UNL     1     -10.093  12.764  63.457  1.00  0.00    -0.350 OA 
BRANCH   4   6
HETATM    6  N   UNL     1     -10.165  12.417  65.704  1.00  0.00    -0.258 N  
HETATM    7  H   UNL     1      -9.223  12.384  66.094  1.00  0.00     0.000 HD 
BRANCH   6   8
HETATM    8  C   UNL     1     -11.229  11.666  66.363  1.00  0.00    -0.287 C  
HETATM    9  C   UNL     1     -10.731  10.283  66.801  1.00  0.00    -0.216 C  
HETATM   10  C   UNL     1      -9.704  10.372  67.931  1.00  0.00    -0.168 C  
HETATM   11  C   UNL     1     -10.204  11.190  69.138  1.00  0.00    -0.163 C  
HETATM   12  C   UNL     1     -11.769  12.458  67.559  1.00  0.00    -0.425 C  
HETATM   13  C   UNL     1     -10.755  12.557  68.698  1.00  0.00    -0.263 C  
BRANCH  11  14
HETATM   14  C   UNL     1     -11.260  10.433  69.968  1.00  0.00    -0.385 C  
BRANCH  14  15
HETATM   15  C   UNL     1     -10.686   9.329  70.865  1.00  0.00    -0.301 C  
BRANCH  15  16
HETATM   16  N   UNL     1     -11.649   8.277  71.233  1.00  0.00    -0.275 NA 
HETATM   17  C   UNL     1     -11.400   6.995  70.530  1.00  0.00    -0.312 C  
HETATM   18  C   UNL     1     -10.084   6.283  70.926  1.00  0.00    -0.189 C  
HETATM   19  N   UNL     1     -10.021   6.107  72.392  1.00  0.00    -0.169 NA 
HETATM   20  C   UNL     1     -11.581   8.003  72.696  1.00  0.00    -0.387 C  
HETATM   21  C   UNL     1     -10.249   7.351  73.147  1.00  0.00    -0.312 C  
BRANCH  19  22
HETATM   22  C   UNL     1      -9.828   4.854  72.956  1.00  0.00    -0.148 A  
HETATM   23  C   UNL     1      -8.583   4.188  73.121  1.00  0.00    -0.093 A  
HETATM   24  C   UNL     1      -8.526   2.891  73.682  1.00  0.00    -0.073 A  
HETATM   25 CL   UNL     1      -7.059   4.970  72.780  1.00  0.00    -0.081 Cl 
HETATM   26  C   UNL     1      -9.681   2.260  74.144  1.00  0.00    -0.124 A  
HETATM   27 CL   UNL     1      -7.046   2.001  73.848  1.00  0.00    -0.027 Cl 
HETATM   28  C   UNL     1     -10.901   2.901  74.032  1.00  0.00    -0.269 A  
HETATM   29  C   UNL     1     -10.969   4.157  73.427  1.00  0.00    -0.350 A  
ENDBRANCH  19  22
ENDBRANCH  15  16
ENDBRANCH  14  15
ENDBRANCH  11  14
ENDBRANCH   6   8
ENDBRANCH   4   6
ENDBRANCH   2   4
TORSDOF 7
ENDMDL
MODEL       68
REMARK 921   NORMALIZED FREE ENERGY PREDICTED BY IDOCK:   -5.02 KCAL/MOL
REMARK 922        TOTAL FREE ENERGY PREDICTED BY IDOCK:   -7.84 KCAL/MOL
REMARK 923 INTER-LIGAND FREE ENERGY PREDICTED BY IDOCK:   -6.94 KCAL/MOL
REMARK 924 INTRA-LIGAND FREE ENERGY PREDICTED BY IDOCK:   -0.90 KCAL/MOL
REMARK 927      BINDING AFFINITY PREDICTED BY RF-SCORE:    0.00 PKD
ROOT
HETATM    1  C   UNL     1      -6.945   7.561  62.343  1.00  0.00    -0.075 C  
HETATM    2  N   UNL     1      -7.966   8.286  63.074  1.00  0.00    -0.152 N  
HETATM    3  C   UNL     1      -8.715   9.316  62.373  1.00  0.00    -0.235 C  
ENDROOT
BRANCH   2   4
HETATM    4  C   UNL     1      -8.214   7.872  64.376  1.00  0.00    -0.051 C  
HETATM    5  O   UNL     1      -7.729   6.845  64.846  1.00  0.00    -0.098 OA 
BRANCH   4   6
HETATM    6  N   UNL     1      -9.071   8.665  65.083  1.00  0.00    -0.426 N  
HETATM    7  H   UNL     1     -10.067   8.634  64.864  1.00  0.00     0.000 HD 
BRANCH   6   8
HETATM    8  C   UNL     1      -8.609   9.556  66.143  1.00  0.00    -0.131 C  
HETATM    9  C   UNL     1      -8.998  11.009  65.844  1.00  0.00    -0.208 C  
HETATM   10  C   UNL     1     -10.510  11.229  65.928  1.00  0.00    -0.314 C  
HETATM   11  C   UNL     1     -11.115  10.756  67.263  1.00  0.00    -0.339 C  
HETATM   12  C   UNL     1      -9.174   9.104  67.494  1.00  0.00    -0.144 C  
HETATM   13  C   UNL     1     -10.684   9.317  67.594  1.00  0.00    -0.276 C  
BRANCH  11  14
HETATM   14  C   UNL     1     -10.774  11.697  68.435  1.00  0.00    -0.248 C  
BRANCH  14  15
HETATM   15  C   UNL     1     -10.788  13.187  68.074  1.00  0.00    -0.242 C  
BRANCH  15  16
HETATM   16  N   UNL     1      -9.459  13.824  68.051  1.00  0.00    -0.201 NA 
HETATM   17  C   UNL     1      -9.202  14.576  66.798  1.00  0.00    -0.267 C  
HETATM   18  C   UNL     1     -10.086  15.829  66.600  1.00  0.00    -0.279 C  
HETATM   19  N   UNL     1      -9.991  16.713  67.781  1.00  0.00    -0.256 NA 
HETATM   20  C   UNL     1      -9.328  14.785  69.182  1.00  0.00    -0.101 C  
HETATM   21  C   UNL     1     -10.250  16.025  69.057  1.00  0.00    -0.236 C  
BRANCH  19  22
HETATM   22  C   UNL     1      -9.622  18.045  67.651  1.00  0.00    -0.271 A  
HETATM   23  C   UNL     1      -8.331  18.589  67.897  1.00  0.00    -0.265 A  
HETATM   24  C   UNL     1      -8.094  19.976  67.761  1.00  0.00    -0.285 A  
HETATM   25 CL   UNL     1      -6.948  17.578  68.236  1.00  0.00    -0.202 Cl 
HETATM   26  C   UNL     1      -9.101  20.835  67.323  1.00  0.00    -0.328 A  
HETATM   27 CL   UNL     1      -6.559  20.707  68.109  1.00  0.00    -0.333 Cl 
HETATM   28  C   UNL     1     -10.357  20.327  67.040  1.00  0.00    -0.421 A  
HETATM   29  C   UNL     1     -10.610  18.968  67.227  1.00  0.00    -0.554 A  
ENDBRANCH  19  22
ENDBRANCH  15  16
ENDBRANCH  14  15
ENDBRANCH  11  14
ENDBRANCH   6   8
ENDBRANCH   4   6
ENDBRANCH   2   4
TORSDOF 7
ENDMDL
MODEL       69
REMARK 921   NORMALIZED FREE ENERGY PREDICTED BY IDOCK:   -4.99 KCAL/MOL
REMARK 922        TOTAL FREE ENERGY PREDICTED BY IDOCK:   -7.80 KCAL/MOL
REMARK 923 INTER-LIGAND FREE ENERGY PREDICTED BY IDOCK:   -6.94 KCAL/MOL
REMARK 924 INTRA-LIGAND FREE ENERGY PREDICTED BY IDOCK:   -0.86 KCAL/MOL
REMARK 927      BINDING AFFINITY PREDICTED BY RF-SCORE:    0.00 PKD
ROOT
HETATM    1  C   UNL     1      -8.392   6.584  70.931  1.00  0.00    -0.126 C  
HETATM    2  N   UNL     1      -9.550   6.067  70.226  1.00  0.00    -0.161 N  
HETATM    3  C   UNL     1     -10.861   6.254  70.825  1.00  0.00    -0.281 C  
ENDROOT
BRANCH   2   4
HETATM    4  C   UNL     1      -9.321   5.508  68.975  1.00  0.00    -0.121 C  
HETATM    5  O   UNL     1      -9.558   4.328  68.726  1.00  0.00    -0.158 OA 
BRANCH   4   6
HETATM    6  N   UNL     1      -8.774   6.355  68.055  1.00  0.00    -0.116 N  
HETATM    7  H   UNL     1      -7.803   6.646  68.169  1.00  0.00     0.000 HD 
BRANCH   6   8
HETATM    8  C   UNL     1      -9.532   6.857  66.913  1.00  0.00    -0.158 C  
HETATM    9  C   UNL     1     -10.770   7.633  67.378  1.00  0.00    -0.318 C  
HETATM   10  C   UNL     1     -10.400   8.946  68.071  1.00  0.00    -0.271 C  
HETATM   11  C   UNL     1      -9.473   9.836  67.222  1.00  0.00    -0.183 C  
HETATM   12  C   UNL     1      -8.636   7.731  66.030  1.00  0.00    -0.166 C  
HETATM   13  C   UNL     1      -8.257   9.047  66.708  1.00  0.00    -0.115 C  
BRANCH  11  14
HETATM   14  C   UNL     1     -10.210  10.504  66.044  1.00  0.00    -0.310 C  
BRANCH  14  15
HETATM   15  C   UNL     1     -11.188  11.611  66.456  1.00  0.00    -0.294 C  
BRANCH  15  16
HETATM   16  N   UNL     1     -11.406  12.648  65.432  1.00  0.00    -0.302 NA 
HETATM   17  C   UNL     1     -12.440  13.637  65.824  1.00  0.00    -0.477 C  
HETATM   18  C   UNL     1     -12.055  14.540  67.019  1.00  0.00    -0.273 C  
HETATM   19  N   UNL     1     -10.757  15.199  66.763  1.00  0.00    -0.307 NA 
HETATM   20  C   UNL     1     -10.144  13.399  65.181  1.00  0.00    -0.246 C  
HETATM   21  C   UNL     1      -9.685  14.265  66.382  1.00  0.00    -0.299 C  
BRANCH  19  22
HETATM   22  C   UNL     1     -10.631  16.580  66.824  1.00  0.00    -0.224 A  
HETATM   23  C   UNL     1     -10.476  17.360  68.004  1.00  0.00    -0.383 A  
HETATM   24  C   UNL     1     -10.392  18.770  67.932  1.00  0.00    -0.406 A  
HETATM   25 CL   UNL     1     -10.240  16.632  69.573  1.00  0.00    -0.232 Cl 
HETATM   26  C   UNL     1     -10.396  19.425  66.701  1.00  0.00    -0.555 A  
HETATM   27 CL   UNL     1     -10.269  19.778  69.338  1.00  0.00    -0.316 Cl 
HETATM   28  C   UNL     1     -10.506  18.688  65.535  1.00  0.00     0.033 A  
HETATM   29  C   UNL     1     -10.646  17.302  65.605  1.00  0.00    -0.173 A  
ENDBRANCH  19  22
ENDBRANCH  15  16
ENDBRANCH  14  15
ENDBRANCH  11  14
ENDBRANCH   6   8
ENDBRANCH   4   6
ENDBRANCH   2   4
TORSDOF 7
ENDMDL
MODEL       70
REMARK 921   NORMALIZED FREE ENERGY PREDICTED BY IDOCK:   -4.97 KCAL/MOL
REMARK 922        TOTAL FREE ENERGY PREDICTED BY IDOCK:   -7.78 KCAL/MOL
REMARK 923 INTER-LIGAND FREE ENERGY PREDICTED BY IDOCK:   -7.02 KCAL/MOL
REMARK 924 INTRA-LIGAND FREE ENERGY PREDICTED BY IDOCK:   -0.76 KCAL/MOL
REMARK 927      BINDING AFFINITY PREDICTED BY RF-SCORE:    0.00 PKD
ROOT
HETATM    1  C   UNL     1     -12.713  11.885  63.240  1.00  0.00    -0.271 C  
HETATM    2  N   UNL     1     -11.501  12.593  63.607  1.00  0.00    -0.462 N  
HETATM    3  C   UNL     1     -10.224  12.021  63.213  1.00  0.00    -0.361 C  
ENDROOT
BRANCH   2   4
HETATM    4  C   UNL     1     -11.662  13.822  64.232  1.00  0.00    -0.395 C  
HETATM    5  O   UNL     1     -12.551  14.611  63.917  1.00  0.00    -0.834 OA 
BRANCH   4   6
HETATM    6  N   UNL     1     -10.736  14.109  65.192  1.00  0.00    -0.363 N  
HETATM    7  H   UNL     1      -9.788  14.356  64.905  1.00  0.00     0.000 HD 
BRANCH   6   8
HETATM    8  C   UNL     1     -11.055  14.075  66.616  1.00  0.00    -0.309 C  
HETATM    9  C   UNL     1     -11.961  12.882  66.944  1.00  0.00    -0.402 C  
HETATM   10  C   UNL     1     -11.233  11.546  66.785  1.00  0.00    -0.350 C  
HETATM   11  C   UNL     1      -9.916  11.478  67.580  1.00  0.00    -0.199 C  
HETATM   12  C   UNL     1      -9.766  14.029  67.443  1.00  0.00    -0.233 C  
HETATM   13  C   UNL     1      -9.027  12.700  67.295  1.00  0.00    -0.194 C  
BRANCH  11  14
HETATM   14  C   UNL     1     -10.147  11.330  69.097  1.00  0.00    -0.093 C  
BRANCH  14  15
HETATM   15  C   UNL     1      -9.421  10.138  69.734  1.00  0.00    -0.167 C  
BRANCH  15  16
HETATM   16  N   UNL     1      -9.415   8.915  68.913  1.00  0.00    -0.151 NA 
HETATM   17  C   UNL     1      -8.290   8.006  69.241  1.00  0.00    -0.134 C  
HETATM   18  C   UNL     1      -8.361   7.366  70.647  1.00  0.00    -0.127 C  
HETATM   19  N   UNL     1      -9.663   6.691  70.835  1.00  0.00    -0.179 NA 
HETATM   20  C   UNL     1     -10.678   8.151  69.115  1.00  0.00    -0.102 C  
HETATM   21  C   UNL     1     -10.822   7.550  70.537  1.00  0.00    -0.240 C  
BRANCH  19  22
HETATM   22  C   UNL     1      -9.732   5.353  71.196  1.00  0.00    -0.174 A  
HETATM   23  C   UNL     1      -9.508   4.238  70.341  1.00  0.00    -0.174 A  
HETATM   24  C   UNL     1      -9.643   2.917  70.826  1.00  0.00    -0.125 A  
HETATM   25 CL   UNL     1      -8.923   4.425  68.707  1.00  0.00    -0.138 Cl 
HETATM   26  C   UNL     1      -9.938   2.674  72.168  1.00  0.00    -0.236 A  
HETATM   27 CL   UNL     1      -9.449   1.519  69.817  1.00  0.00    -0.156 Cl 
HETATM   28  C   UNL     1     -10.123   3.739  73.030  1.00  0.00    -0.217 A  
HETATM   29  C   UNL     1     -10.045   5.045  72.543  1.00  0.00    -0.231 A  
ENDBRANCH  19  22
ENDBRANCH  15  16
ENDBRANCH  14  15
ENDBRANCH  11  14
ENDBRANCH   6   8
ENDBRANCH   4   6
ENDBRANCH   2   4
TORSDOF 7
ENDMDL
MODEL       71
REMARK 921   NORMALIZED FREE ENERGY PREDICTED BY IDOCK:   -4.97 KCAL/MOL
REMARK 922        TOTAL FREE ENERGY PREDICTED BY IDOCK:   -7.78 KCAL/MOL
REMARK 923 INTER-LIGAND FREE ENERGY PREDICTED BY IDOCK:   -6.98 KCAL/MOL
REMARK 924 INTRA-LIGAND FREE ENERGY PREDICTED BY IDOCK:   -0.80 KCAL/MOL
REMARK 927      BINDING AFFINITY PREDICTED BY RF-SCORE:    0.00 PKD
ROOT
HETATM    1  C   UNL     1     -10.397  17.781  67.864  1.00  0.00    -0.386 C  
HETATM    2  N   UNL     1     -10.629  18.164  66.484  1.00  0.00    -0.323 N  
HETATM    3  C   UNL     1     -10.627  19.579  66.152  1.00  0.00    -0.487 C  
ENDROOT
BRANCH   2   4
HETATM    4  C   UNL     1     -10.745  17.132  65.561  1.00  0.00    -0.117 C  
HETATM    5  O   UNL     1     -11.058  17.327  64.389  1.00  0.00    -0.998 OA 
BRANCH   4   6
HETATM    6  N   UNL     1     -10.528  15.881  66.062  1.00  0.00    -0.331 N  
HETATM    7  H   UNL     1     -10.068  15.785  66.968  1.00  0.00     0.000 HD 
BRANCH   6   8
HETATM    8  C   UNL     1     -10.929  14.676  65.343  1.00  0.00    -0.353 C  
HETATM    9  C   UNL     1      -9.798  13.641  65.334  1.00  0.00    -0.153 C  
HETATM   10  C   UNL     1      -9.533  13.066  66.727  1.00  0.00    -0.250 C  
HETATM   11  C   UNL     1     -10.799  12.498  67.396  1.00  0.00    -0.272 C  
HETATM   12  C   UNL     1     -12.202  14.091  65.966  1.00  0.00    -0.484 C  
HETATM   13  C   UNL     1     -11.954  13.512  67.359  1.00  0.00    -0.398 C  
BRANCH  11  14
HETATM   14  C   UNL     1     -11.246  11.159  66.775  1.00  0.00    -0.215 C  
BRANCH  14  15
HETATM   15  C   UNL     1     -10.206  10.036  66.877  1.00  0.00    -0.238 C  
BRANCH  15  16
HETATM   16  N   UNL     1      -9.791   9.709  68.252  1.00  0.00    -0.146 NA 
HETATM   17  C   UNL     1     -10.767   8.845  68.959  1.00  0.00    -0.126 C  
HETATM   18  C   UNL     1     -10.900   7.413  68.387  1.00  0.00    -0.017 C  
HETATM   19  N   UNL     1      -9.573   6.768  68.314  1.00  0.00    -0.127 NA 
HETATM   20  C   UNL     1      -8.486   8.989  68.239  1.00  0.00    -0.129 C  
HETATM   21  C   UNL     1      -8.561   7.574  67.610  1.00  0.00    -0.119 C  
BRANCH  19  22
HETATM   22  C   UNL     1      -9.336   5.545  68.927  1.00  0.00    -0.125 A  
HETATM   23  C   UNL     1      -9.400   4.266  68.306  1.00  0.00    -0.152 A  
HETATM   24  C   UNL     1      -9.169   3.088  69.054  1.00  0.00    -0.156 A  
HETATM   25 CL   UNL     1      -9.622   4.081  66.585  1.00  0.00    -0.220 Cl 
HETATM   26  C   UNL     1      -8.812   3.154  70.400  1.00  0.00    -0.149 A  
HETATM   27 CL   UNL     1      -9.298   1.499  68.370  1.00  0.00    -0.214 Cl 
HETATM   28  C   UNL     1      -8.705   4.386  71.020  1.00  0.00    -0.136 A  
HETATM   29  C   UNL     1      -8.986   5.548  70.300  1.00  0.00    -0.155 A  
ENDBRANCH  19  22
ENDBRANCH  15  16
ENDBRANCH  14  15
ENDBRANCH  11  14
ENDBRANCH   6   8
ENDBRANCH   4   6
ENDBRANCH   2   4
TORSDOF 7
ENDMDL
MODEL       72
REMARK 921   NORMALIZED FREE ENERGY PREDICTED BY IDOCK:   -4.94 KCAL/MOL
REMARK 922        TOTAL FREE ENERGY PREDICTED BY IDOCK:   -7.74 KCAL/MOL
REMARK 923 INTER-LIGAND FREE ENERGY PREDICTED BY IDOCK:   -7.02 KCAL/MOL
REMARK 924 INTRA-LIGAND FREE ENERGY PREDICTED BY IDOCK:   -0.72 KCAL/MOL
REMARK 927      BINDING AFFINITY PREDICTED BY RF-SCORE:    0.00 PKD
ROOT
HETATM    1  C   UNL     1      -5.210   3.928  70.192  1.00  0.00    -0.004 C  
HETATM    2  N   UNL     1      -6.047   3.851  71.374  1.00  0.00    -0.014 N  
HETATM    3  C   UNL     1      -5.896   4.877  72.392  1.00  0.00    -0.016 C  
ENDROOT
BRANCH   2   4
HETATM    4  C   UNL     1      -7.002   2.843  71.397  1.00  0.00    -0.032 C  
HETATM    5  O   UNL     1      -6.948   1.864  70.655  1.00  0.00    -0.032 OA 
BRANCH   4   6
HETATM    6  N   UNL     1      -8.028   3.038  72.275  1.00  0.00    -0.058 N  
HETATM    7  H   UNL     1      -7.812   3.197  73.260  1.00  0.00     0.000 HD 
BRANCH   6   8
HETATM    8  C   UNL     1      -9.426   3.027  71.853  1.00  0.00    -0.137 C  
HETATM    9  C   UNL     1     -10.362   3.178  73.058  1.00  0.00    -0.246 C  
HETATM   10  C   UNL     1     -10.268   4.569  73.688  1.00  0.00    -0.220 C  
HETATM   11  C   UNL     1     -10.482   5.707  72.673  1.00  0.00    -0.249 C  
HETATM   12  C   UNL     1      -9.674   4.133  70.823  1.00  0.00    -0.266 C  
HETATM   13  C   UNL     1      -9.584   5.530  71.437  1.00  0.00    -0.195 C  
BRANCH  11  14
HETATM   14  C   UNL     1     -11.955   5.849  72.243  1.00  0.00    -0.211 C  
BRANCH  14  15
HETATM   15  C   UNL     1     -12.294   7.187  71.575  1.00  0.00    -0.370 C  
BRANCH  15  16
HETATM   16  N   UNL     1     -11.930   8.376  72.366  1.00  0.00    -0.389 NA 
HETATM   17  C   UNL     1     -10.761   9.101  71.812  1.00  0.00    -0.335 C  
HETATM   18  C   UNL     1     -11.004   9.775  70.441  1.00  0.00    -0.312 C  
HETATM   19  N   UNL     1     -12.192  10.652  70.508  1.00  0.00    -0.328 NA 
HETATM   20  C   UNL     1     -13.069   9.335  72.410  1.00  0.00    -0.406 C  
HETATM   21  C   UNL     1     -13.392   9.983  71.039  1.00  0.00    -0.266 C  
BRANCH  19  22
HETATM   22  C   UNL     1     -12.115  11.992  70.154  1.00  0.00    -0.298 A  
HETATM   23  C   UNL     1     -12.611  13.091  70.907  1.00  0.00    -0.280 A  
HETATM   24  C   UNL     1     -12.499  14.413  70.416  1.00  0.00    -0.357 A  
HETATM   25 CL   UNL     1     -13.250  12.898  72.521  1.00  0.00    -0.450 Cl 
HETATM   26  C   UNL     1     -11.845  14.676  69.213  1.00  0.00    -0.357 A  
HETATM   27 CL   UNL     1     -13.143  15.787  71.257  1.00  0.00    -0.515 Cl 
HETATM   28  C   UNL     1     -11.318  13.629  68.479  1.00  0.00    -0.325 A  
HETATM   29  C   UNL     1     -11.476  12.319  68.932  1.00  0.00    -0.355 A  
ENDBRANCH  19  22
ENDBRANCH  15  16
ENDBRANCH  14  15
ENDBRANCH  11  14
ENDBRANCH   6   8
ENDBRANCH   4   6
ENDBRANCH   2   4
TORSDOF 7
ENDMDL
MODEL       73
REMARK 921   NORMALIZED FREE ENERGY PREDICTED BY IDOCK:   -4.93 KCAL/MOL
REMARK 922        TOTAL FREE ENERGY PREDICTED BY IDOCK:   -7.72 KCAL/MOL
REMARK 923 INTER-LIGAND FREE ENERGY PREDICTED BY IDOCK:   -7.02 KCAL/MOL
REMARK 924 INTRA-LIGAND FREE ENERGY PREDICTED BY IDOCK:   -0.70 KCAL/MOL
REMARK 927      BINDING AFFINITY PREDICTED BY RF-SCORE:    0.00 PKD
ROOT
HETATM    1  C   UNL     1     -11.504  12.800  63.523  1.00  0.00    -0.459 C  
HETATM    2  N   UNL     1     -11.472  13.418  64.835  1.00  0.00    -0.315 N  
HETATM    3  C   UNL     1     -12.736  13.762  65.465  1.00  0.00    -0.488 C  
ENDROOT
BRANCH   2   4
HETATM    4  C   UNL     1     -10.225  13.550  65.431  1.00  0.00    -0.302 C  
HETATM    5  O   UNL     1      -9.904  14.546  66.077  1.00  0.00    -0.292 OA 
BRANCH   4   6
HETATM    6  N   UNL     1      -9.366  12.512  65.214  1.00  0.00    -0.416 N  
HETATM    7  H   UNL     1      -8.775  12.528  64.382  1.00  0.00     0.000 HD 
BRANCH   6   8
HETATM    8  C   UNL     1      -9.264  11.381  66.131  1.00  0.00    -0.210 C  
HETATM    9  C   UNL     1      -9.918  10.131  65.531  1.00  0.00    -0.363 C  
HETATM   10  C   UNL     1      -9.136   9.593  64.331  1.00  0.00    -0.279 C  
HETATM   11  C   UNL     1      -7.648   9.347  64.641  1.00  0.00    -0.109 C  
HETATM   12  C   UNL     1      -7.796  11.119  66.482  1.00  0.00    -0.151 C  
HETATM   13  C   UNL     1      -7.001  10.580  65.293  1.00  0.00    -0.045 C  
BRANCH  11  14
HETATM   14  C   UNL     1      -7.424   8.101  65.521  1.00  0.00    -0.081 C  
BRANCH  14  15
HETATM   15  C   UNL     1      -8.477   7.001  65.339  1.00  0.00    -0.086 C  
BRANCH  15  16
HETATM   16  N   UNL     1      -8.496   5.988  66.409  1.00  0.00    -0.115 NA 
HETATM   17  C   UNL     1      -7.793   6.432  67.636  1.00  0.00    -0.106 C  
HETATM   18  C   UNL     1      -8.471   7.604  68.385  1.00  0.00    -0.125 C  
HETATM   19  N   UNL     1      -9.884   7.277  68.670  1.00  0.00    -0.157 NA 
HETATM   20  C   UNL     1      -9.900   5.668  66.791  1.00  0.00    -0.164 C  
HETATM   21  C   UNL     1     -10.640   6.841  67.484  1.00  0.00    -0.279 C  
BRANCH  19  22
HETATM   22  C   UNL     1     -10.385   7.329  69.963  1.00  0.00    -0.213 A  
HETATM   23  C   UNL     1     -10.627   6.217  70.817  1.00  0.00    -0.243 A  
HETATM   24  C   UNL     1     -11.175   6.404  72.107  1.00  0.00    -0.279 A  
HETATM   25 CL   UNL     1     -10.138   4.597  70.392  1.00  0.00    -0.302 Cl 
HETATM   26  C   UNL     1     -11.434   7.684  72.597  1.00  0.00    -0.403 A  
HETATM   27 CL   UNL     1     -11.553   5.085  73.169  1.00  0.00    -0.373 Cl 
HETATM   28  C   UNL     1     -11.172   8.785  71.802  1.00  0.00    -0.410 A  
HETATM   29  C   UNL     1     -10.684   8.603  70.508  1.00  0.00    -0.252 A  
ENDBRANCH  19  22
ENDBRANCH  15  16
ENDBRANCH  14  15
ENDBRANCH  11  14
ENDBRANCH   6   8
ENDBRANCH   4   6
ENDBRANCH   2   4
TORSDOF 7
ENDMDL
MODEL       74
REMARK 921   NORMALIZED FREE ENERGY PREDICTED BY IDOCK:   -4.93 KCAL/MOL
REMARK 922        TOTAL FREE ENERGY PREDICTED BY IDOCK:   -7.72 KCAL/MOL
REMARK 923 INTER-LIGAND FREE ENERGY PREDICTED BY IDOCK:   -7.05 KCAL/MOL
REMARK 924 INTRA-LIGAND FREE ENERGY PREDICTED BY IDOCK:   -0.67 KCAL/MOL
REMARK 927      BINDING AFFINITY PREDICTED BY RF-SCORE:    0.00 PKD
ROOT
HETATM    1  C   UNL     1     -10.708  18.386  66.639  1.00  0.00    -0.212 C  
HETATM    2  N   UNL     1      -9.999  17.289  66.007  1.00  0.00    -0.268 N  
HETATM    3  C   UNL     1      -8.621  17.043  66.398  1.00  0.00    -0.276 C  
ENDROOT
BRANCH   2   4
HETATM    4  C   UNL     1     -10.732  16.494  65.135  1.00  0.00    -0.244 C  
HETATM    5  O   UNL     1     -11.341  16.957  64.173  1.00  0.00    -1.208 OA 
BRANCH   4   6
HETATM    6  N   UNL     1     -10.759  15.166  65.447  1.00  0.00    -0.353 N  
HETATM    7  H   UNL     1     -10.189  14.519  64.901  1.00  0.00     0.000 HD 
BRANCH   6   8
HETATM    8  C   UNL     1     -11.576  14.639  66.536  1.00  0.00    -0.344 C  
HETATM    9  C   UNL     1     -12.405  13.437  66.066  1.00  0.00    -0.471 C  
HETATM   10  C   UNL     1     -11.530  12.221  65.756  1.00  0.00    -0.417 C  
HETATM   11  C   UNL     1     -10.600  11.834  66.922  1.00  0.00    -0.270 C  
HETATM   12  C   UNL     1     -10.688  14.262  67.726  1.00  0.00    -0.253 C  
HETATM   13  C   UNL     1      -9.807  13.048  67.433  1.00  0.00    -0.215 C  
BRANCH  11  14
HETATM   14  C   UNL     1     -11.358  11.166  68.086  1.00  0.00    -0.377 C  
BRANCH  14  15
HETATM   15  C   UNL     1     -11.127   9.654  68.207  1.00  0.00    -0.046 C  
BRANCH  15  16
HETATM   16  N   UNL     1      -9.905   9.167  67.544  1.00  0.00    -0.167 NA 
HETATM   17  C   UNL     1      -8.957   8.520  68.485  1.00  0.00    -0.139 C  
HETATM   18  C   UNL     1      -9.458   7.192  69.100  1.00  0.00    -0.147 C  
HETATM   19  N   UNL     1      -9.868   6.258  68.030  1.00  0.00    -0.121 NA 
HETATM   20  C   UNL     1     -10.249   8.163  66.499  1.00  0.00    -0.177 C  
HETATM   21  C   UNL     1     -10.821   6.840  67.070  1.00  0.00    -0.383 C  
BRANCH  19  22
HETATM   22  C   UNL     1      -9.325   4.983  67.945  1.00  0.00    -0.124 A  
HETATM   23  C   UNL     1      -9.252   4.027  68.996  1.00  0.00    -0.152 A  
HETATM   24  C   UNL     1      -8.640   2.770  68.788  1.00  0.00    -0.075 A  
HETATM   25 CL   UNL     1     -10.027   4.285  70.540  1.00  0.00    -0.265 Cl 
HETATM   26  C   UNL     1      -8.149   2.413  67.532  1.00  0.00    -0.068 A  
HETATM   27 CL   UNL     1      -8.462   1.590  70.047  1.00  0.00    -0.068 Cl 
HETATM   28  C   UNL     1      -8.241   3.308  66.482  1.00  0.00    -0.096 A  
HETATM   29  C   UNL     1      -8.794   4.571  66.698  1.00  0.00    -0.112 A  
ENDBRANCH  19  22
ENDBRANCH  15  16
ENDBRANCH  14  15
ENDBRANCH  11  14
ENDBRANCH   6   8
ENDBRANCH   4   6
ENDBRANCH   2   4
TORSDOF 7
ENDMDL
MODEL       75
REMARK 921   NORMALIZED FREE ENERGY PREDICTED BY IDOCK:   -4.88 KCAL/MOL
REMARK 922        TOTAL FREE ENERGY PREDICTED BY IDOCK:   -7.64 KCAL/MOL
REMARK 923 INTER-LIGAND FREE ENERGY PREDICTED BY IDOCK:   -6.72 KCAL/MOL
REMARK 924 INTRA-LIGAND FREE ENERGY PREDICTED BY IDOCK:   -0.92 KCAL/MOL
REMARK 927      BINDING AFFINITY PREDICTED BY RF-SCORE:    0.00 PKD
ROOT
HETATM    1  C   UNL     1      -9.220   7.545  73.494  1.00  0.00    -0.249 C  
HETATM    2  N   UNL     1      -9.805   6.569  72.593  1.00  0.00    -0.168 N  
HETATM    3  C   UNL     1     -11.000   5.864  73.024  1.00  0.00    -0.268 C  
ENDROOT
BRANCH   2   4
HETATM    4  C   UNL     1      -9.222   6.451  71.338  1.00  0.00    -0.149 C  
HETATM    5  O   UNL     1      -8.610   5.444  70.987  1.00  0.00    -0.121 OA 
BRANCH   4   6
HETATM    6  N   UNL     1      -9.342   7.550  70.538  1.00  0.00    -0.161 N  
HETATM    7  H   UNL     1      -8.496   8.038  70.240  1.00  0.00     0.000 HD 
BRANCH   6   8
HETATM    8  C   UNL     1     -10.639   8.051  70.094  1.00  0.00    -0.237 C  
HETATM    9  C   UNL     1     -10.826   9.518  70.501  1.00  0.00    -0.352 C  
HETATM   10  C   UNL     1      -9.886  10.452  69.736  1.00  0.00    -0.134 C  
HETATM   11  C   UNL     1      -9.979  10.282  68.208  1.00  0.00    -0.166 C  
HETATM   12  C   UNL     1     -10.779   7.880  68.578  1.00  0.00    -0.069 C  
HETATM   13  C   UNL     1      -9.845   8.806  67.799  1.00  0.00    -0.217 C  
BRANCH  11  14
HETATM   14  C   UNL     1     -11.273  10.881  67.624  1.00  0.00    -0.379 C  
BRANCH  14  15
HETATM   15  C   UNL     1     -11.046  11.980  66.578  1.00  0.00    -0.314 C  
BRANCH  15  16
HETATM   16  N   UNL     1     -11.504  13.319  66.988  1.00  0.00    -0.322 NA 
HETATM   17  C   UNL     1     -10.748  13.859  68.143  1.00  0.00    -0.250 C  
HETATM   18  C   UNL     1      -9.261  14.178  67.855  1.00  0.00    -0.196 C  
HETATM   19  N   UNL     1      -9.149  15.070  66.682  1.00  0.00    -0.264 NA 
HETATM   20  C   UNL     1     -11.348  14.284  65.863  1.00  0.00    -0.328 C  
HETATM   21  C   UNL     1      -9.871  14.579  65.495  1.00  0.00    -0.285 C  
BRANCH  19  22
HETATM   22  C   UNL     1      -8.472  16.278  66.763  1.00  0.00    -0.247 A  
HETATM   23  C   UNL     1      -9.051  17.554  67.010  1.00  0.00    -0.248 A  
HETATM   24  C   UNL     1      -8.250  18.719  67.033  1.00  0.00    -0.264 A  
HETATM   25 CL   UNL     1     -10.734  17.741  67.435  1.00  0.00    -0.332 Cl 
HETATM   26  C   UNL     1      -6.867  18.639  66.876  1.00  0.00    -0.211 A  
HETATM   27 CL   UNL     1      -8.907  20.308  67.264  1.00  0.00    -0.437 Cl 
HETATM   28  C   UNL     1      -6.272  17.407  66.673  1.00  0.00    -0.239 A  
HETATM   29  C   UNL     1      -7.065  16.262  66.593  1.00  0.00    -0.112 A  
ENDBRANCH  19  22
ENDBRANCH  15  16
ENDBRANCH  14  15
ENDBRANCH  11  14
ENDBRANCH   6   8
ENDBRANCH   4   6
ENDBRANCH   2   4
TORSDOF 7
ENDMDL
MODEL       76
REMARK 921   NORMALIZED FREE ENERGY PREDICTED BY IDOCK:   -4.83 KCAL/MOL
REMARK 922        TOTAL FREE ENERGY PREDICTED BY IDOCK:   -7.57 KCAL/MOL
REMARK 923 INTER-LIGAND FREE ENERGY PREDICTED BY IDOCK:   -6.89 KCAL/MOL
REMARK 924 INTRA-LIGAND FREE ENERGY PREDICTED BY IDOCK:   -0.68 KCAL/MOL
REMARK 927      BINDING AFFINITY PREDICTED BY RF-SCORE:    0.00 PKD
ROOT
HETATM    1  C   UNL     1      -9.331   5.652  72.345  1.00  0.00    -0.143 C  
HETATM    2  N   UNL     1      -9.758   7.008  72.635  1.00  0.00    -0.149 N  
HETATM    3  C   UNL     1     -10.894   7.196  73.522  1.00  0.00    -0.255 C  
ENDROOT
BRANCH   2   4
HETATM    4  C   UNL     1      -8.982   8.033  72.111  1.00  0.00    -0.164 C  
HETATM    5  O   UNL     1      -8.284   8.759  72.815  1.00  0.00    -0.407 OA 
BRANCH   4   6
HETATM    6  N   UNL     1      -9.082   8.202  70.760  1.00  0.00    -0.143 N  
HETATM    7  H   UNL     1      -9.358   7.407  70.183  1.00  0.00     0.000 HD 
BRANCH   6   8
HETATM    8  C   UNL     1      -8.807   9.481  70.114  1.00  0.00    -0.235 C  
HETATM    9  C   UNL     1      -7.827   9.305  68.947  1.00  0.00    -0.087 C  
HETATM   10  C   UNL     1      -8.450   8.530  67.785  1.00  0.00    -0.130 C  
HETATM   11  C   UNL     1      -9.784   9.131  67.304  1.00  0.00    -0.225 C  
HETATM   12  C   UNL     1     -10.115  10.123  69.640  1.00  0.00    -0.265 C  
HETATM   13  C   UNL     1     -10.750   9.360  68.478  1.00  0.00    -0.203 C  
BRANCH  11  14
HETATM   14  C   UNL     1      -9.592  10.438  66.510  1.00  0.00    -0.224 C  
BRANCH  14  15
HETATM   15  C   UNL     1     -10.835  11.335  66.458  1.00  0.00    -0.265 C  
BRANCH  15  16
HETATM   16  N   UNL     1     -10.729  12.475  65.530  1.00  0.00    -0.265 NA 
HETATM   17  C   UNL     1     -11.856  13.430  65.659  1.00  0.00    -0.370 C  
HETATM   18  C   UNL     1     -11.904  14.200  67.000  1.00  0.00    -0.429 C  
HETATM   19  N   UNL     1     -10.608  14.866  67.252  1.00  0.00    -0.268 NA 
HETATM   20  C   UNL     1      -9.471  13.232  65.784  1.00  0.00     0.053 C  
HETATM   21  C   UNL     1      -9.449  13.963  67.150  1.00  0.00    -0.246 C  
BRANCH  19  22
HETATM   22  C   UNL     1     -10.539  16.232  67.492  1.00  0.00    -0.310 A  
HETATM   23  C   UNL     1     -10.590  17.262  66.512  1.00  0.00    -0.178 A  
HETATM   24  C   UNL     1     -10.474  18.620  66.886  1.00  0.00    -0.402 A  
HETATM   25 CL   UNL     1     -10.937  16.930  64.833  1.00  0.00    -0.190 Cl 
HETATM   26  C   UNL     1     -10.369  18.987  68.227  1.00  0.00    -0.415 A  
HETATM   27 CL   UNL     1     -10.462  19.916  65.733  1.00  0.00    -0.583 Cl 
HETATM   28  C   UNL     1     -10.356  18.007  69.204  1.00  0.00    -0.071 A  
HETATM   29  C   UNL     1     -10.414  16.663  68.836  1.00  0.00    -0.322 A  
ENDBRANCH  19  22
ENDBRANCH  15  16
ENDBRANCH  14  15
ENDBRANCH  11  14
ENDBRANCH   6   8
ENDBRANCH   4   6
ENDBRANCH   2   4
TORSDOF 7
ENDMDL
MODEL       77
REMARK 921   NORMALIZED FREE ENERGY PREDICTED BY IDOCK:   -4.82 KCAL/MOL
REMARK 922        TOTAL FREE ENERGY PREDICTED BY IDOCK:   -7.56 KCAL/MOL
REMARK 923 INTER-LIGAND FREE ENERGY PREDICTED BY IDOCK:   -6.86 KCAL/MOL
REMARK 924 INTRA-LIGAND FREE ENERGY PREDICTED BY IDOCK:   -0.70 KCAL/MOL
REMARK 927      BINDING AFFINITY PREDICTED BY RF-SCORE:    0.00 PKD
ROOT
HETATM    1  C   UNL     1     -10.269   4.903  65.950  1.00  0.00    -0.223 C  
HETATM    2  N   UNL     1      -9.293   4.865  67.023  1.00  0.00    -0.123 N  
HETATM    3  C   UNL     1      -9.056   3.597  67.693  1.00  0.00    -0.157 C  
ENDROOT
BRANCH   2   4
HETATM    4  C   UNL     1      -8.588   6.036  67.266  1.00  0.00    -0.106 C  
HETATM    5  O   UNL     1      -7.663   6.411  66.549  1.00  0.00    -0.096 OA 
BRANCH   4   6
HETATM    6  N   UNL     1      -8.970   6.720  68.384  1.00  0.00    -0.125 N  
HETATM    7  H   UNL     1      -8.300   6.833  69.145  1.00  0.00     0.000 HD 
BRANCH   6   8
HETATM    8  C   UNL     1     -10.304   7.294  68.527  1.00  0.00    -0.189 C  
HETATM    9  C   UNL     1     -10.458   7.989  69.885  1.00  0.00    -0.233 C  
HETATM   10  C   UNL     1      -9.596   9.249  69.987  1.00  0.00    -0.235 C  
HETATM   11  C   UNL     1      -9.830  10.236  68.829  1.00  0.00    -0.184 C  
HETATM   12  C   UNL     1     -10.584   8.267  67.377  1.00  0.00    -0.324 C  
HETATM   13  C   UNL     1      -9.730   9.532  67.465  1.00  0.00    -0.194 C  
BRANCH  11  14
HETATM   14  C   UNL     1     -11.175  10.979  68.947  1.00  0.00    -0.326 C  
BRANCH  14  15
HETATM   15  C   UNL     1     -11.059  12.508  68.907  1.00  0.00    -0.260 C  
BRANCH  15  16
HETATM   16  N   UNL     1     -10.337  13.037  67.736  1.00  0.00    -0.222 NA 
HETATM   17  C   UNL     1     -11.142  14.003  66.950  1.00  0.00    -0.304 C  
HETATM   18  C   UNL     1     -11.452  15.332  67.677  1.00  0.00    -0.280 C  
HETATM   19  N   UNL     1     -10.201  15.952  68.163  1.00  0.00    -0.229 NA 
HETATM   20  C   UNL     1      -9.096  13.739  68.170  1.00  0.00    -0.194 C  
HETATM   21  C   UNL     1      -9.363  15.044  68.963  1.00  0.00    -0.206 C  
BRANCH  19  22
HETATM   22  C   UNL     1      -9.863  17.252  67.813  1.00  0.00    -0.281 A  
HETATM   23  C   UNL     1      -8.703  17.656  67.095  1.00  0.00    -0.243 A  
HETATM   24  C   UNL     1      -8.456  19.023  66.831  1.00  0.00    -0.290 A  
HETATM   25 CL   UNL     1      -7.605  16.501  66.381  1.00  0.00    -0.299 Cl 
HETATM   26  C   UNL     1      -9.372  20.002  67.214  1.00  0.00    -0.496 A  
HETATM   27 CL   UNL     1      -7.029  19.582  66.018  1.00  0.00    -0.261 Cl 
HETATM   28  C   UNL     1     -10.527  19.634  67.880  1.00  0.00    -0.556 A  
HETATM   29  C   UNL     1     -10.748  18.292  68.191  1.00  0.00    -0.223 A  
ENDBRANCH  19  22
ENDBRANCH  15  16
ENDBRANCH  14  15
ENDBRANCH  11  14
ENDBRANCH   6   8
ENDBRANCH   4   6
ENDBRANCH   2   4
TORSDOF 7
ENDMDL
MODEL       78
REMARK 921   NORMALIZED FREE ENERGY PREDICTED BY IDOCK:   -4.79 KCAL/MOL
REMARK 922        TOTAL FREE ENERGY PREDICTED BY IDOCK:   -7.53 KCAL/MOL
REMARK 923 INTER-LIGAND FREE ENERGY PREDICTED BY IDOCK:   -6.84 KCAL/MOL
REMARK 924 INTRA-LIGAND FREE ENERGY PREDICTED BY IDOCK:   -0.69 KCAL/MOL
REMARK 927      BINDING AFFINITY PREDICTED BY RF-SCORE:    0.00 PKD
ROOT
HETATM    1  C   UNL     1     -12.274  12.765  63.456  1.00  0.00    -0.525 C  
HETATM    2  N   UNL     1     -10.892  12.750  63.895  1.00  0.00    -0.412 N  
HETATM    3  C   UNL     1     -10.009  11.729  63.354  1.00  0.00    -0.423 C  
ENDROOT
BRANCH   2   4
HETATM    4  C   UNL     1     -10.493  13.780  64.736  1.00  0.00    -0.428 C  
HETATM    5  O   UNL     1     -10.851  14.944  64.571  1.00  0.00    -0.316 OA 
BRANCH   4   6
HETATM    6  N   UNL     1      -9.639  13.413  65.736  1.00  0.00    -0.487 N  
HETATM    7  H   UNL     1      -8.741  12.997  65.489  1.00  0.00     0.000 HD 
BRANCH   6   8
HETATM    8  C   UNL     1      -9.969  13.596  67.146  1.00  0.00    -0.247 C  
HETATM    9  C   UNL     1     -11.355  13.023  67.463  1.00  0.00    -0.346 C  
HETATM   10  C   UNL     1     -11.382  11.496  67.362  1.00  0.00    -0.367 C  
HETATM   11  C   UNL     1     -10.292  10.816  68.211  1.00  0.00    -0.195 C  
HETATM   12  C   UNL     1      -8.893  12.951  68.026  1.00  0.00    -0.195 C  
HETATM   13  C   UNL     1      -8.907  11.425  67.937  1.00  0.00    -0.149 C  
BRANCH  11  14
HETATM   14  C   UNL     1     -10.603  10.860  69.720  1.00  0.00    -0.126 C  
BRANCH  14  15
HETATM   15  C   UNL     1     -11.562   9.764  70.201  1.00  0.00    -0.182 C  
BRANCH  15  16
HETATM   16  N   UNL     1     -11.257   9.227  71.539  1.00  0.00    -0.364 NA 
HETATM   17  C   UNL     1     -11.874   7.901  71.783  1.00  0.00    -0.293 C  
HETATM   18  C   UNL     1     -11.309   6.752  70.914  1.00  0.00    -0.315 C  
HETATM   19  N   UNL     1      -9.838   6.688  71.049  1.00  0.00    -0.182 NA 
HETATM   20  C   UNL     1      -9.785   9.072  71.709  1.00  0.00    -0.241 C  
HETATM   21  C   UNL     1      -9.165   7.975  70.804  1.00  0.00    -0.157 C  
BRANCH  19  22
HETATM   22  C   UNL     1      -9.204   5.516  71.436  1.00  0.00    -0.146 A  
HETATM   23  C   UNL     1      -9.193   4.288  70.718  1.00  0.00    -0.137 A  
HETATM   24  C   UNL     1      -8.535   3.151  71.241  1.00  0.00    -0.064 A  
HETATM   25 CL   UNL     1      -9.855   4.148  69.109  1.00  0.00    -0.197 Cl 
HETATM   26  C   UNL     1      -7.829   3.222  72.442  1.00  0.00    -0.059 A  
HETATM   27 CL   UNL     1      -8.542   1.610  70.445  1.00  0.00    -0.079 Cl 
HETATM   28  C   UNL     1      -7.791   4.415  73.142  1.00  0.00    -0.091 A  
HETATM   29  C   UNL     1      -8.486   5.523  72.657  1.00  0.00    -0.117 A  
ENDBRANCH  19  22
ENDBRANCH  15  16
ENDBRANCH  14  15
ENDBRANCH  11  14
ENDBRANCH   6   8
ENDBRANCH   4   6
ENDBRANCH   2   4
TORSDOF 7
ENDMDL
MODEL       79
REMARK 921   NORMALIZED FREE ENERGY PREDICTED BY IDOCK:   -4.79 KCAL/MOL
REMARK 922        TOTAL FREE ENERGY PREDICTED BY IDOCK:   -7.52 KCAL/MOL
REMARK 923 INTER-LIGAND FREE ENERGY PREDICTED BY IDOCK:   -6.52 KCAL/MOL
REMARK 924 INTRA-LIGAND FREE ENERGY PREDICTED BY IDOCK:   -1.00 KCAL/MOL
REMARK 927      BINDING AFFINITY PREDICTED BY RF-SCORE:    0.00 PKD
ROOT
HETATM    1  C   UNL     1     -12.490  11.878  63.608  1.00  0.00    -0.470 C  
HETATM    2  N   UNL     1     -12.021  12.741  64.675  1.00  0.00    -0.372 N  
HETATM    3  C   UNL     1     -11.972  14.174  64.432  1.00  0.00    -0.457 C  
ENDROOT
BRANCH   2   4
HETATM    4  C   UNL     1     -11.741  12.133  65.892  1.00  0.00    -0.328 C  
HETATM    5  O   UNL     1     -12.407  12.342  66.904  1.00  0.00    -0.417 OA 
BRANCH   4   6
HETATM    6  N   UNL     1     -10.646  11.318  65.893  1.00  0.00    -0.262 N  
HETATM    7  H   UNL     1     -10.781  10.312  65.998  1.00  0.00     0.000 HD 
BRANCH   6   8
HETATM    8  C   UNL     1      -9.290  11.837  65.749  1.00  0.00    -0.185 C  
HETATM    9  C   UNL     1      -9.057  13.027  66.688  1.00  0.00    -0.181 C  
HETATM   10  C   UNL     1      -9.044  12.606  68.158  1.00  0.00    -0.204 C  
HETATM   11  C   UNL     1      -8.051  11.466  68.451  1.00  0.00    -0.145 C  
HETATM   12  C   UNL     1      -8.270  10.724  66.011  1.00  0.00    -0.164 C  
HETATM   13  C   UNL     1      -8.244  10.292  67.477  1.00  0.00    -0.114 C  
BRANCH  11  14
HETATM   14  C   UNL     1      -6.584  11.939  68.430  1.00  0.00    -0.056 C  
BRANCH  14  15
HETATM   15  C   UNL     1      -6.258  13.033  69.454  1.00  0.00    -0.113 C  
BRANCH  15  16
HETATM   16  N   UNL     1      -5.296  14.045  68.983  1.00  0.00    -0.076 NA 
HETATM   17  C   UNL     1      -5.670  14.632  67.673  1.00  0.00     0.018 C  
HETATM   18  C   UNL     1      -6.954  15.493  67.691  1.00  0.00    -0.179 C  
HETATM   19  N   UNL     1      -6.854  16.537  68.732  1.00  0.00    -0.164 NA 
HETATM   20  C   UNL     1      -5.204  15.165  69.962  1.00  0.00    -0.105 C  
HETATM   21  C   UNL     1      -6.497  16.013  70.062  1.00  0.00    -0.042 C  
BRANCH  19  22
HETATM   22  C   UNL     1      -7.024  17.879  68.421  1.00  0.00    -0.234 A  
HETATM   23  C   UNL     1      -8.256  18.524  68.123  1.00  0.00    -0.295 A  
HETATM   24  C   UNL     1      -8.289  19.898  67.786  1.00  0.00    -0.303 A  
HETATM   25 CL   UNL     1      -9.793  17.714  68.291  1.00  0.00    -0.306 Cl 
HETATM   26  C   UNL     1      -7.125  20.665  67.799  1.00  0.00    -0.325 A  
HETATM   27 CL   UNL     1      -9.750  20.725  67.349  1.00  0.00    -0.573 Cl 
HETATM   28  C   UNL     1      -5.918  20.072  68.122  1.00  0.00    -0.271 A  
HETATM   29  C   UNL     1      -5.873  18.705  68.401  1.00  0.00    -0.199 A  
ENDBRANCH  19  22
ENDBRANCH  15  16
ENDBRANCH  14  15
ENDBRANCH  11  14
ENDBRANCH   6   8
ENDBRANCH   4   6
ENDBRANCH   2   4
TORSDOF 7
ENDMDL
MODEL       80
REMARK 921   NORMALIZED FREE ENERGY PREDICTED BY IDOCK:   -4.79 KCAL/MOL
REMARK 922        TOTAL FREE ENERGY PREDICTED BY IDOCK:   -7.52 KCAL/MOL
REMARK 923 INTER-LIGAND FREE ENERGY PREDICTED BY IDOCK:   -6.46 KCAL/MOL
REMARK 924 INTRA-LIGAND FREE ENERGY PREDICTED BY IDOCK:   -1.06 KCAL/MOL
REMARK 927      BINDING AFFINITY PREDICTED BY RF-SCORE:    0.00 PKD
ROOT
HETATM    1  C   UNL     1      -8.817   1.873  66.861  1.00  0.00    -0.127 C  
HETATM    2  N   UNL     1      -8.688   3.285  67.166  1.00  0.00    -0.112 N  
HETATM    3  C   UNL     1      -9.530   4.225  66.445  1.00  0.00    -0.183 C  
ENDROOT
BRANCH   2   4
HETATM    4  C   UNL     1      -7.826   3.624  68.201  1.00  0.00    -0.068 C  
HETATM    5  O   UNL     1      -6.610   3.719  68.043  1.00  0.00    -0.040 OA 
BRANCH   4   6
HETATM    6  N   UNL     1      -8.421   3.802  69.416  1.00  0.00    -0.063 N  
HETATM    7  H   UNL     1      -8.943   3.028  69.828  1.00  0.00     0.000 HD 
BRANCH   6   8
HETATM    8  C   UNL     1      -8.338   5.064  70.145  1.00  0.00    -0.085 C  
HETATM    9  C   UNL     1      -9.353   6.077  69.604  1.00  0.00    -0.161 C  
HETATM   10  C   UNL     1     -10.795   5.667  69.912  1.00  0.00    -0.370 C  
HETATM   11  C   UNL     1     -11.035   5.384  71.407  1.00  0.00    -0.148 C  
HETATM   12  C   UNL     1      -8.550   4.821  71.643  1.00  0.00    -0.129 C  
HETATM   13  C   UNL     1      -9.986   4.410  71.968  1.00  0.00    -0.252 C  
BRANCH  11  14
HETATM   14  C   UNL     1     -11.073   6.672  72.254  1.00  0.00    -0.292 C  
BRANCH  14  15
HETATM   15  C   UNL     1     -11.956   7.784  71.675  1.00  0.00    -0.297 C  
BRANCH  15  16
HETATM   16  N   UNL     1     -11.470   9.150  71.938  1.00  0.00    -0.371 NA 
HETATM   17  C   UNL     1     -10.347   9.544  71.054  1.00  0.00    -0.283 C  
HETATM   18  C   UNL     1     -10.717   9.690  69.559  1.00  0.00    -0.232 C  
HETATM   19  N   UNL     1     -11.863  10.612  69.406  1.00  0.00    -0.276 NA 
HETATM   20  C   UNL     1     -12.568  10.137  71.729  1.00  0.00    -0.403 C  
HETATM   21  C   UNL     1     -13.018  10.265  70.251  1.00  0.00    -0.001 C  
BRANCH  19  22
HETATM   22  C   UNL     1     -11.782  11.724  68.580  1.00  0.00    -0.330 A  
HETATM   23  C   UNL     1     -11.816  13.085  68.994  1.00  0.00    -0.316 A  
HETATM   24  C   UNL     1     -11.759  14.130  68.043  1.00  0.00    -0.359 A  
HETATM   25 CL   UNL     1     -11.783  13.543  70.678  1.00  0.00    -0.179 Cl 
HETATM   26  C   UNL     1     -11.608  13.855  66.685  1.00  0.00    -0.392 A  
HETATM   27 CL   UNL     1     -11.862  15.806  68.481  1.00  0.00    -0.322 Cl 
HETATM   28  C   UNL     1     -11.534  12.541  66.258  1.00  0.00    -0.421 A  
HETATM   29  C   UNL     1     -11.646  11.506  67.186  1.00  0.00    -0.249 A  
ENDBRANCH  19  22
ENDBRANCH  15  16
ENDBRANCH  14  15
ENDBRANCH  11  14
ENDBRANCH   6   8
ENDBRANCH   4   6
ENDBRANCH   2   4
TORSDOF 7
ENDMDL
MODEL       81
REMARK 921   NORMALIZED FREE ENERGY PREDICTED BY IDOCK:   -4.79 KCAL/MOL
REMARK 922        TOTAL FREE ENERGY PREDICTED BY IDOCK:   -7.52 KCAL/MOL
REMARK 923 INTER-LIGAND FREE ENERGY PREDICTED BY IDOCK:   -6.87 KCAL/MOL
REMARK 924 INTRA-LIGAND FREE ENERGY PREDICTED BY IDOCK:   -0.65 KCAL/MOL
REMARK 927      BINDING AFFINITY PREDICTED BY RF-SCORE:    0.00 PKD
ROOT
HETATM    1  C   UNL     1      -9.352   2.292  72.685  1.00  0.00    -0.081 C  
HETATM    2  N   UNL     1      -9.505   3.615  73.259  1.00  0.00    -0.104 N  
HETATM    3  C   UNL     1      -8.306   4.350  73.624  1.00  0.00    -0.097 C  
ENDROOT
BRANCH   2   4
HETATM    4  C   UNL     1     -10.798   4.118  73.330  1.00  0.00    -0.244 C  
HETATM    5  O   UNL     1     -11.785   3.392  73.421  1.00  0.00    -0.080 OA 
BRANCH   4   6
HETATM    6  N   UNL     1     -10.895   5.477  73.250  1.00  0.00    -0.274 N  
HETATM    7  H   UNL     1     -10.539   6.043  74.020  1.00  0.00     0.000 HD 
BRANCH   6   8
HETATM    8  C   UNL     1     -11.492   6.147  72.099  1.00  0.00    -0.311 C  
HETATM    9  C   UNL     1     -11.568   7.662  72.327  1.00  0.00    -0.370 C  
HETATM   10  C   UNL     1     -10.183   8.311  72.345  1.00  0.00    -0.397 C  
HETATM   11  C   UNL     1      -9.344   7.980  71.097  1.00  0.00    -0.176 C  
HETATM   12  C   UNL     1     -10.697   5.823  70.830  1.00  0.00    -0.342 C  
HETATM   13  C   UNL     1      -9.310   6.465  70.833  1.00  0.00    -0.168 C  
BRANCH  11  14
HETATM   14  C   UNL     1      -9.831   8.728  69.841  1.00  0.00    -0.189 C  
BRANCH  14  15
HETATM   15  C   UNL     1     -10.626  10.007  70.134  1.00  0.00    -0.296 C  
BRANCH  15  16
HETATM   16  N   UNL     1     -11.614  10.364  69.102  1.00  0.00    -0.205 NA 
HETATM   17  C   UNL     1     -12.221  11.699  69.322  1.00  0.00    -0.164 C  
HETATM   18  C   UNL     1     -11.247  12.890  69.162  1.00  0.00    -0.237 C  
HETATM   19  N   UNL     1     -10.570  12.823  67.849  1.00  0.00    -0.216 NA 
HETATM   20  C   UNL     1     -10.972  10.383  67.757  1.00  0.00    -0.309 C  
HETATM   21  C   UNL     1      -9.935  11.522  67.578  1.00  0.00    -0.190 C  
BRANCH  19  22
HETATM   22  C   UNL     1     -10.616  13.890  66.964  1.00  0.00    -0.279 A  
HETATM   23  C   UNL     1      -9.904  15.116  67.085  1.00  0.00    -0.228 A  
HETATM   24  C   UNL     1     -10.065  16.143  66.127  1.00  0.00    -0.338 A  
HETATM   25 CL   UNL     1      -8.699  15.370  68.323  1.00  0.00    -0.160 Cl 
HETATM   26  C   UNL     1     -10.877  15.957  65.009  1.00  0.00    -0.444 A  
HETATM   27 CL   UNL     1      -9.276  17.682  66.256  1.00  0.00    -0.249 Cl 
HETATM   28  C   UNL     1     -11.552  14.760  64.845  1.00  0.00    -0.401 A  
HETATM   29  C   UNL     1     -11.439  13.766  65.817  1.00  0.00    -0.324 A  
ENDBRANCH  19  22
ENDBRANCH  15  16
ENDBRANCH  14  15
ENDBRANCH  11  14
ENDBRANCH   6   8
ENDBRANCH   4   6
ENDBRANCH   2   4
TORSDOF 7
ENDMDL
MODEL       82
REMARK 921   NORMALIZED FREE ENERGY PREDICTED BY IDOCK:   -4.76 KCAL/MOL
REMARK 922        TOTAL FREE ENERGY PREDICTED BY IDOCK:   -7.48 KCAL/MOL
REMARK 923 INTER-LIGAND FREE ENERGY PREDICTED BY IDOCK:   -6.50 KCAL/MOL
REMARK 924 INTRA-LIGAND FREE ENERGY PREDICTED BY IDOCK:   -0.98 KCAL/MOL
REMARK 927      BINDING AFFINITY PREDICTED BY RF-SCORE:    0.00 PKD
ROOT
HETATM    1  C   UNL     1      -8.481   9.067  63.192  1.00  0.00    -0.183 C  
HETATM    2  N   UNL     1      -9.232   9.972  64.041  1.00  0.00    -0.259 N  
HETATM    3  C   UNL     1      -9.981  11.046  63.410  1.00  0.00    -0.380 C  
ENDROOT
BRANCH   2   4
HETATM    4  C   UNL     1      -9.251   9.681  65.399  1.00  0.00    -0.238 C  
HETATM    5  O   UNL     1      -8.518   8.833  65.903  1.00  0.00    -0.127 OA 
BRANCH   4   6
HETATM    6  N   UNL     1     -10.172  10.377  66.127  1.00  0.00    -0.235 N  
HETATM    7  H   UNL     1     -11.162  10.264  65.907  1.00  0.00     0.000 HD 
BRANCH   6   8
HETATM    8  C   UNL     1      -9.789  11.277  67.211  1.00  0.00    -0.182 C  
HETATM    9  C   UNL     1      -9.763  12.732  66.729  1.00  0.00    -0.243 C  
HETATM   10  C   UNL     1     -11.163  13.257  66.407  1.00  0.00    -0.325 C  
HETATM   11  C   UNL     1     -12.158  13.075  67.569  1.00  0.00    -0.279 C  
HETATM   12  C   UNL     1     -10.744  11.108  68.397  1.00  0.00    -0.234 C  
HETATM   13  C   UNL     1     -12.149  11.628  68.092  1.00  0.00    -0.031 C  
BRANCH  11  14
HETATM   14  C   UNL     1     -11.903  14.060  68.727  1.00  0.00    -0.396 C  
BRANCH  14  15
HETATM   15  C   UNL     1     -11.386  15.435  68.285  1.00  0.00    -0.348 C  
BRANCH  15  16
HETATM   16  N   UNL     1     -10.338  16.003  69.151  1.00  0.00    -0.230 NA 
HETATM   17  C   UNL     1      -8.976  15.847  68.586  1.00  0.00    -0.203 C  
HETATM   18  C   UNL     1      -8.710  16.663  67.299  1.00  0.00    -0.191 C  
HETATM   19  N   UNL     1      -9.034  18.088  67.523  1.00  0.00    -0.248 NA 
HETATM   20  C   UNL     1     -10.572  17.460  69.356  1.00  0.00     0.006 C  
HETATM   21  C   UNL     1     -10.382  18.308  68.072  1.00  0.00    -0.391 C  
BRANCH  19  22
HETATM   22  C   UNL     1      -8.096  19.083  67.284  1.00  0.00    -0.262 A  
HETATM   23  C   UNL     1      -7.154  19.593  68.220  1.00  0.00    -0.302 A  
HETATM   24  C   UNL     1      -6.271  20.637  67.859  1.00  0.00    -0.294 A  
HETATM   25 CL   UNL     1      -6.933  18.880  69.798  1.00  0.00    -0.028 Cl 
HETATM   26  C   UNL     1      -6.259  21.148  66.562  1.00  0.00    -0.347 A  
HETATM   27 CL   UNL     1      -5.146  21.346  68.974  1.00  0.00    -0.146 Cl 
HETATM   28  C   UNL     1      -7.139  20.644  65.620  1.00  0.00    -0.082 A  
HETATM   29  C   UNL     1      -8.050  19.653  65.988  1.00  0.00    -0.322 A  
ENDBRANCH  19  22
ENDBRANCH  15  16
ENDBRANCH  14  15
ENDBRANCH  11  14
ENDBRANCH   6   8
ENDBRANCH   4   6
ENDBRANCH   2   4
TORSDOF 7
ENDMDL
MODEL       83
REMARK 921   NORMALIZED FREE ENERGY PREDICTED BY IDOCK:   -4.76 KCAL/MOL
REMARK 922        TOTAL FREE ENERGY PREDICTED BY IDOCK:   -7.48 KCAL/MOL
REMARK 923 INTER-LIGAND FREE ENERGY PREDICTED BY IDOCK:   -6.89 KCAL/MOL
REMARK 924 INTRA-LIGAND FREE ENERGY PREDICTED BY IDOCK:   -0.59 KCAL/MOL
REMARK 927      BINDING AFFINITY PREDICTED BY RF-SCORE:    0.00 PKD
ROOT
HETATM    1  C   UNL     1     -11.238  16.833  64.819  1.00  0.00     0.040 C  
HETATM    2  N   UNL     1     -10.675  15.520  65.069  1.00  0.00    -0.440 N  
HETATM    3  C   UNL     1      -9.460  15.431  65.861  1.00  0.00    -0.334 C  
ENDROOT
BRANCH   2   4
HETATM    4  C   UNL     1     -11.402  14.431  64.605  1.00  0.00    -0.371 C  
HETATM    5  O   UNL     1     -12.518  14.548  64.102  1.00  0.00    -0.707 OA 
BRANCH   4   6
HETATM    6  N   UNL     1     -10.805  13.217  64.784  1.00  0.00    -0.332 N  
HETATM    7  H   UNL     1      -9.893  13.048  64.359  1.00  0.00     0.000 HD 
BRANCH   6   8
HETATM    8  C   UNL     1     -11.427  12.152  65.564  1.00  0.00    -0.343 C  
HETATM    9  C   UNL     1     -10.423  11.031  65.859  1.00  0.00    -0.300 C  
HETATM   10  C   UNL     1      -9.324  11.482  66.823  1.00  0.00    -0.191 C  
HETATM   11  C   UNL     1      -9.876  12.089  68.126  1.00  0.00    -0.201 C  
HETATM   12  C   UNL     1     -12.010  12.721  66.862  1.00  0.00    -0.380 C  
HETATM   13  C   UNL     1     -10.924  13.177  67.837  1.00  0.00    -0.271 C  
BRANCH  11  14
HETATM   14  C   UNL     1     -10.463  11.024  69.074  1.00  0.00    -0.242 C  
BRANCH  14  15
HETATM   15  C   UNL     1      -9.417  10.102  69.713  1.00  0.00    -0.167 C  
BRANCH  15  16
HETATM   16  N   UNL     1      -9.914   9.310  70.852  1.00  0.00    -0.283 NA 
HETATM   17  C   UNL     1     -10.991   8.365  70.472  1.00  0.00    -0.242 C  
HETATM   18  C   UNL     1     -10.546   7.215  69.539  1.00  0.00    -0.234 C  
HETATM   19  N   UNL     1      -9.393   6.499  70.127  1.00  0.00    -0.158 NA 
HETATM   20  C   UNL     1      -8.806   8.509  71.445  1.00  0.00    -0.198 C  
HETATM   21  C   UNL     1      -8.283   7.385  70.514  1.00  0.00    -0.127 C  
BRANCH  19  22
HETATM   22  C   UNL     1      -9.431   5.127  70.334  1.00  0.00    -0.169 A  
HETATM   23  C   UNL     1      -9.358   4.122  69.331  1.00  0.00    -0.168 A  
HETATM   24  C   UNL     1      -9.442   2.752  69.673  1.00  0.00    -0.078 A  
HETATM   25 CL   UNL     1      -9.020   4.501  67.660  1.00  0.00    -0.121 Cl 
HETATM   26  C   UNL     1      -9.538   2.353  71.006  1.00  0.00    -0.203 A  
HETATM   27 CL   UNL     1      -9.426   1.484  68.490  1.00  0.00    -0.231 Cl 
HETATM   28  C   UNL     1      -9.572   3.308  72.005  1.00  0.00    -0.215 A  
HETATM   29  C   UNL     1      -9.545   4.662  71.668  1.00  0.00    -0.221 A  
ENDBRANCH  19  22
ENDBRANCH  15  16
ENDBRANCH  14  15
ENDBRANCH  11  14
ENDBRANCH   6   8
ENDBRANCH   4   6
ENDBRANCH   2   4
TORSDOF 7
ENDMDL
MODEL       84
REMARK 921   NORMALIZED FREE ENERGY PREDICTED BY IDOCK:   -4.75 KCAL/MOL
REMARK 922        TOTAL FREE ENERGY PREDICTED BY IDOCK:   -7.47 KCAL/MOL
REMARK 923 INTER-LIGAND FREE ENERGY PREDICTED BY IDOCK:   -6.50 KCAL/MOL
REMARK 924 INTRA-LIGAND FREE ENERGY PREDICTED BY IDOCK:   -0.97 KCAL/MOL
REMARK 927      BINDING AFFINITY PREDICTED BY RF-SCORE:    0.00 PKD
ROOT
HETATM    1  C   UNL     1      -6.808   3.895  70.250  1.00  0.00    -0.034 C  
HETATM    2  N   UNL     1      -6.981   4.324  71.625  1.00  0.00    -0.037 N  
HETATM    3  C   UNL     1      -6.086   5.344  72.146  1.00  0.00    -0.034 C  
ENDROOT
BRANCH   2   4
HETATM    4  C   UNL     1      -8.059   3.786  72.316  1.00  0.00    -0.077 C  
HETATM    5  O   UNL     1      -8.353   2.594  72.256  1.00  0.00    -0.058 OA 
BRANCH   4   6
HETATM    6  N   UNL     1      -8.793   4.685  73.034  1.00  0.00    -0.112 N  
HETATM    7  H   UNL     1      -8.359   5.152  73.831  1.00  0.00     0.000 HD 
BRANCH   6   8
HETATM    8  C   UNL     1     -10.179   5.000  72.701  1.00  0.00    -0.188 C  
HETATM    9  C   UNL     1     -10.762   6.015  73.691  1.00  0.00    -0.240 C  
HETATM   10  C   UNL     1     -10.116   7.394  73.549  1.00  0.00    -0.390 C  
HETATM   11  C   UNL     1     -10.162   7.936  72.107  1.00  0.00    -0.286 C  
HETATM   12  C   UNL     1     -10.269   5.522  71.263  1.00  0.00    -0.283 C  
HETATM   13  C   UNL     1      -9.628   6.900  71.103  1.00  0.00    -0.167 C  
BRANCH  11  14
HETATM   14  C   UNL     1     -11.572   8.400  71.693  1.00  0.00    -0.348 C  
BRANCH  14  15
HETATM   15  C   UNL     1     -11.633   9.101  70.331  1.00  0.00    -0.146 C  
BRANCH  15  16
HETATM   16  N   UNL     1     -10.705  10.236  70.185  1.00  0.00    -0.289 NA 
HETATM   17  C   UNL     1      -9.950  10.203  68.908  1.00  0.00    -0.199 C  
HETATM   18  C   UNL     1     -10.810  10.415  67.640  1.00  0.00    -0.306 C  
HETATM   19  N   UNL     1     -11.599  11.660  67.761  1.00  0.00    -0.484 NA 
HETATM   20  C   UNL     1     -11.454  11.524  70.227  1.00  0.00    -0.099 C  
HETATM   21  C   UNL     1     -12.382  11.745  69.005  1.00  0.00     0.117 C  
BRANCH  19  22
HETATM   22  C   UNL     1     -11.522  12.654  66.795  1.00  0.00    -0.351 A  
HETATM   23  C   UNL     1     -10.958  13.949  66.964  1.00  0.00    -0.295 A  
HETATM   24  C   UNL     1     -10.973  14.886  65.905  1.00  0.00    -0.338 A  
HETATM   25 CL   UNL     1     -10.100  14.406  68.414  1.00  0.00    -0.237 Cl 
HETATM   26  C   UNL     1     -11.483  14.544  64.653  1.00  0.00    -0.389 A  
HETATM   27 CL   UNL     1     -10.362  16.502  66.070  1.00  0.00    -0.350 Cl 
HETATM   28  C   UNL     1     -12.003  13.278  64.450  1.00  0.00    -0.459 A  
HETATM   29  C   UNL     1     -12.041  12.369  65.508  1.00  0.00    -0.417 A  
ENDBRANCH  19  22
ENDBRANCH  15  16
ENDBRANCH  14  15
ENDBRANCH  11  14
ENDBRANCH   6   8
ENDBRANCH   4   6
ENDBRANCH   2   4
TORSDOF 7
ENDMDL
MODEL       85
REMARK 921   NORMALIZED FREE ENERGY PREDICTED BY IDOCK:   -4.74 KCAL/MOL
REMARK 922        TOTAL FREE ENERGY PREDICTED BY IDOCK:   -7.46 KCAL/MOL
REMARK 923 INTER-LIGAND FREE ENERGY PREDICTED BY IDOCK:   -6.94 KCAL/MOL
REMARK 924 INTRA-LIGAND FREE ENERGY PREDICTED BY IDOCK:   -0.52 KCAL/MOL
REMARK 927      BINDING AFFINITY PREDICTED BY RF-SCORE:    0.00 PKD
ROOT
HETATM    1  C   UNL     1     -10.834  18.181  65.339  1.00  0.00     0.288 C  
HETATM    2  N   UNL     1     -10.590  16.762  65.516  1.00  0.00    -0.304 N  
HETATM    3  C   UNL     1      -9.843  16.333  66.687  1.00  0.00    -0.253 C  
ENDROOT
BRANCH   2   4
HETATM    4  C   UNL     1     -11.175  15.908  64.591  1.00  0.00    -0.351 C  
HETATM    5  O   UNL     1     -12.134  16.242  63.898  1.00  0.00    -0.986 OA 
BRANCH   4   6
HETATM    6  N   UNL     1     -10.635  14.656  64.536  1.00  0.00    -0.576 N  
HETATM    7  H   UNL     1      -9.636  14.557  64.357  1.00  0.00     0.000 HD 
BRANCH   6   8
HETATM    8  C   UNL     1     -11.440  13.453  64.726  1.00  0.00    -0.336 C  
HETATM    9  C   UNL     1     -10.547  12.216  64.883  1.00  0.00    -0.332 C  
HETATM   10  C   UNL     1      -9.759  12.239  66.195  1.00  0.00    -0.256 C  
HETATM   11  C   UNL     1     -10.654  12.439  67.433  1.00  0.00    -0.237 C  
HETATM   12  C   UNL     1     -12.362  13.622  65.938  1.00  0.00    -0.516 C  
HETATM   13  C   UNL     1     -11.590  13.646  67.257  1.00  0.00    -0.387 C  
BRANCH  11  14
HETATM   14  C   UNL     1     -11.470  11.179  67.783  1.00  0.00    -0.349 C  
BRANCH  14  15
HETATM   15  C   UNL     1     -11.171  10.598  69.171  1.00  0.00    -0.265 C  
BRANCH  15  16
HETATM   16  N   UNL     1     -11.128   9.126  69.222  1.00  0.00    -0.059 NA 
HETATM   17  C   UNL     1      -9.766   8.581  69.008  1.00  0.00    -0.170 C  
HETATM   18  C   UNL     1      -8.754   8.903  70.132  1.00  0.00    -0.161 C  
HETATM   19  N   UNL     1      -9.295   8.483  71.442  1.00  0.00    -0.189 NA 
HETATM   20  C   UNL     1     -11.598   8.643  70.551  1.00  0.00    -0.139 C  
HETATM   21  C   UNL     1     -10.644   9.005  71.719  1.00  0.00    -0.356 C  
BRANCH  19  22
HETATM   22  C   UNL     1      -8.587   7.621  72.267  1.00  0.00    -0.123 A  
HETATM   23  C   UNL     1      -8.584   6.200  72.198  1.00  0.00    -0.127 A  
HETATM   24  C   UNL     1      -7.842   5.433  73.125  1.00  0.00    -0.101 A  
HETATM   25 CL   UNL     1      -9.366   5.334  70.900  1.00  0.00    -0.186 Cl 
HETATM   26  C   UNL     1      -7.047   6.050  74.090  1.00  0.00    -0.088 A  
HETATM   27 CL   UNL     1      -7.851   3.698  73.132  1.00  0.00    -0.069 Cl 
HETATM   28  C   UNL     1      -7.000   7.431  74.156  1.00  0.00    -0.099 A  
HETATM   29  C   UNL     1      -7.774   8.191  73.279  1.00  0.00    -0.211 A  
ENDBRANCH  19  22
ENDBRANCH  15  16
ENDBRANCH  14  15
ENDBRANCH  11  14
ENDBRANCH   6   8
ENDBRANCH   4   6
ENDBRANCH   2   4
TORSDOF 7
ENDMDL
MODEL       86
REMARK 921   NORMALIZED FREE ENERGY PREDICTED BY IDOCK:   -4.70 KCAL/MOL
REMARK 922        TOTAL FREE ENERGY PREDICTED BY IDOCK:   -7.40 KCAL/MOL
REMARK 923 INTER-LIGAND FREE ENERGY PREDICTED BY IDOCK:   -6.49 KCAL/MOL
REMARK 924 INTRA-LIGAND FREE ENERGY PREDICTED BY IDOCK:   -0.91 KCAL/MOL
REMARK 927      BINDING AFFINITY PREDICTED BY RF-SCORE:    0.00 PKD
ROOT
HETATM    1  C   UNL     1      -7.426   4.602  67.055  1.00  0.00    -0.086 C  
HETATM    2  N   UNL     1      -7.779   5.521  65.989  1.00  0.00    -0.093 N  
HETATM    3  C   UNL     1      -8.392   4.979  64.788  1.00  0.00    -0.140 C  
ENDROOT
BRANCH   2   4
HETATM    4  C   UNL     1      -7.587   6.873  66.242  1.00  0.00    -0.088 C  
HETATM    5  O   UNL     1      -6.685   7.521  65.715  1.00  0.00    -0.045 OA 
BRANCH   4   6
HETATM    6  N   UNL     1      -8.446   7.420  67.150  1.00  0.00    -0.117 N  
HETATM    7  H   UNL     1      -8.141   7.522  68.119  1.00  0.00     0.000 HD 
BRANCH   6   8
HETATM    8  C   UNL     1      -9.786   7.865  66.783  1.00  0.00    -0.248 C  
HETATM    9  C   UNL     1     -10.684   7.977  68.021  1.00  0.00    -0.112 C  
HETATM   10  C   UNL     1     -10.251   9.118  68.944  1.00  0.00    -0.221 C  
HETATM   11  C   UNL     1     -10.136  10.471  68.218  1.00  0.00    -0.180 C  
HETATM   12  C   UNL     1      -9.712   9.201  66.036  1.00  0.00    -0.358 C  
HETATM   13  C   UNL     1      -9.281  10.352  66.945  1.00  0.00    -0.170 C  
BRANCH  11  14
HETATM   14  C   UNL     1     -11.511  11.081  67.880  1.00  0.00    -0.358 C  
BRANCH  14  15
HETATM   15  C   UNL     1     -11.456  12.258  66.898  1.00  0.00    -0.356 C  
BRANCH  15  16
HETATM   16  N   UNL     1     -11.723  13.574  67.505  1.00  0.00    -0.345 NA 
HETATM   17  C   UNL     1     -10.707  13.961  68.513  1.00  0.00    -0.257 C  
HETATM   18  C   UNL     1      -9.294  14.228  67.942  1.00  0.00    -0.198 C  
HETATM   19  N   UNL     1      -9.365  15.221  66.849  1.00  0.00    -0.225 NA 
HETATM   20  C   UNL     1     -11.736  14.632  66.456  1.00  0.00    -0.325 C  
HETATM   21  C   UNL     1     -10.351  14.884  65.808  1.00  0.00    -0.332 C  
BRANCH  19  22
HETATM   22  C   UNL     1      -8.602  16.379  66.882  1.00  0.00    -0.214 A  
HETATM   23  C   UNL     1      -9.088  17.702  67.073  1.00  0.00    -0.250 A  
HETATM   24  C   UNL     1      -8.204  18.806  67.052  1.00  0.00    -0.264 A  
HETATM   25 CL   UNL     1     -10.753  18.029  67.481  1.00  0.00    -0.400 Cl 
HETATM   26  C   UNL     1      -6.830  18.620  66.905  1.00  0.00    -0.211 A  
HETATM   27 CL   UNL     1      -8.744  20.447  67.212  1.00  0.00    -0.437 Cl 
HETATM   28  C   UNL     1      -6.325  17.340  66.757  1.00  0.00    -0.238 A  
HETATM   29  C   UNL     1      -7.199  16.253  66.721  1.00  0.00    -0.221 A  
ENDBRANCH  19  22
ENDBRANCH  15  16
ENDBRANCH  14  15
ENDBRANCH  11  14
ENDBRANCH   6   8
ENDBRANCH   4   6
ENDBRANCH   2   4
TORSDOF 7
ENDMDL
MODEL       87
REMARK 921   NORMALIZED FREE ENERGY PREDICTED BY IDOCK:   -4.68 KCAL/MOL
REMARK 922        TOTAL FREE ENERGY PREDICTED BY IDOCK:   -7.37 KCAL/MOL
REMARK 923 INTER-LIGAND FREE ENERGY PREDICTED BY IDOCK:   -6.56 KCAL/MOL
REMARK 924 INTRA-LIGAND FREE ENERGY PREDICTED BY IDOCK:   -0.81 KCAL/MOL
REMARK 927      BINDING AFFINITY PREDICTED BY RF-SCORE:    0.00 PKD
ROOT
HETATM    1  C   UNL     1      -6.996  18.940  67.743  1.00  0.00    -0.219 C  
HETATM    2  N   UNL     1      -7.837  19.478  66.690  1.00  0.00    -0.269 N  
HETATM    3  C   UNL     1      -7.193  20.034  65.511  1.00  0.00    -0.282 C  
ENDROOT
BRANCH   2   4
HETATM    4  C   UNL     1      -9.208  19.333  66.852  1.00  0.00    -0.311 C  
HETATM    5  O   UNL     1     -10.018  20.118  66.361  1.00  0.00    -0.440 OA 
BRANCH   4   6
HETATM    6  N   UNL     1      -9.592  18.279  67.630  1.00  0.00    -0.278 N  
HETATM    7  H   UNL     1      -9.129  18.135  68.527  1.00  0.00     0.000 HD 
BRANCH   6   8
HETATM    8  C   UNL     1     -10.641  17.351  67.220  1.00  0.00    -0.284 C  
HETATM    9  C   UNL     1     -10.215  16.557  65.979  1.00  0.00    -0.372 C  
HETATM   10  C   UNL     1      -9.077  15.581  66.282  1.00  0.00    -0.369 C  
HETATM   11  C   UNL     1      -9.386  14.641  67.462  1.00  0.00    -0.195 C  
HETATM   12  C   UNL     1     -10.993  16.411  68.378  1.00  0.00    -0.353 C  
HETATM   13  C   UNL     1      -9.866  15.428  68.693  1.00  0.00    -0.208 C  
BRANCH  11  14
HETATM   14  C   UNL     1     -10.411  13.549  67.096  1.00  0.00    -0.256 C  
BRANCH  14  15
HETATM   15  C   UNL     1      -9.971  12.626  65.954  1.00  0.00    -0.264 C  
BRANCH  15  16
HETATM   16  N   UNL     1     -10.704  11.350  65.881  1.00  0.00    -0.267 NA 
HETATM   17  C   UNL     1     -10.039  10.351  65.009  1.00  0.00    -0.309 C  
HETATM   18  C   UNL     1      -8.680   9.832  65.534  1.00  0.00    -0.149 C  
HETATM   19  N   UNL     1      -8.829   9.319  66.913  1.00  0.00    -0.126 NA 
HETATM   20  C   UNL     1     -10.824  10.746  67.238  1.00  0.00    -0.288 C  
HETATM   21  C   UNL     1      -9.473  10.273  67.832  1.00  0.00    -0.141 C  
BRANCH  19  22
HETATM   22  C   UNL     1      -8.443   8.028  67.243  1.00  0.00    -0.125 A  
HETATM   23  C   UNL     1      -9.304   6.906  67.399  1.00  0.00    -0.131 A  
HETATM   24  C   UNL     1      -8.786   5.644  67.773  1.00  0.00    -0.107 A  
HETATM   25 CL   UNL     1     -11.004   6.979  67.007  1.00  0.00    -0.435 Cl 
HETATM   26  C   UNL     1      -7.414   5.455  67.937  1.00  0.00    -0.077 A  
HETATM   27 CL   UNL     1      -9.791   4.257  68.043  1.00  0.00    -0.157 Cl 
HETATM   28  C   UNL     1      -6.550   6.519  67.753  1.00  0.00    -0.061 A  
HETATM   29  C   UNL     1      -7.062   7.778  67.439  1.00  0.00    -0.086 A  
ENDBRANCH  19  22
ENDBRANCH  15  16
ENDBRANCH  14  15
ENDBRANCH  11  14
ENDBRANCH   6   8
ENDBRANCH   4   6
ENDBRANCH   2   4
TORSDOF 7
ENDMDL
MODEL       88
REMARK 921   NORMALIZED FREE ENERGY PREDICTED BY IDOCK:   -4.66 KCAL/MOL
REMARK 922        TOTAL FREE ENERGY PREDICTED BY IDOCK:   -7.34 KCAL/MOL
REMARK 923 INTER-LIGAND FREE ENERGY PREDICTED BY IDOCK:   -6.67 KCAL/MOL
REMARK 924 INTRA-LIGAND FREE ENERGY PREDICTED BY IDOCK:   -0.68 KCAL/MOL
REMARK 927      BINDING AFFINITY PREDICTED BY RF-SCORE:    0.00 PKD
ROOT
HETATM    1  C   UNL     1      -9.803   2.555  71.675  1.00  0.00    -0.146 C  
HETATM    2  N   UNL     1     -10.070   2.883  73.063  1.00  0.00    -0.128 N  
HETATM    3  C   UNL     1      -9.663   1.934  74.085  1.00  0.00    -0.080 C  
ENDROOT
BRANCH   2   4
HETATM    4  C   UNL     1     -10.618   4.135  73.313  1.00  0.00    -0.189 C  
HETATM    5  O   UNL     1     -10.684   4.612  74.444  1.00  0.00    -0.286 OA 
BRANCH   4   6
HETATM    6  N   UNL     1     -11.115   4.780  72.218  1.00  0.00    -0.003 N  
HETATM    7  H   UNL     1     -11.595   4.235  71.501  1.00  0.00     0.000 HD 
BRANCH   6   8
HETATM    8  C   UNL     1     -10.983   6.222  72.037  1.00  0.00    -0.256 C  
HETATM    9  C   UNL     1      -9.509   6.625  71.913  1.00  0.00    -0.150 C  
HETATM   10  C   UNL     1      -8.881   6.119  70.613  1.00  0.00    -0.143 C  
HETATM   11  C   UNL     1      -9.677   6.530  69.360  1.00  0.00    -0.155 C  
HETATM   12  C   UNL     1     -11.781   6.674  70.810  1.00  0.00    -0.445 C  
HETATM   13  C   UNL     1     -11.167   6.176  69.502  1.00  0.00    -0.482 C  
BRANCH  11  14
HETATM   14  C   UNL     1      -9.514   8.024  69.019  1.00  0.00    -0.151 C  
BRANCH  14  15
HETATM   15  C   UNL     1      -9.001   8.297  67.600  1.00  0.00    -0.135 C  
BRANCH  15  16
HETATM   16  N   UNL     1      -8.381   9.621  67.417  1.00  0.00    -0.114 NA 
HETATM   17  C   UNL     1      -8.277  10.018  65.992  1.00  0.00    -0.126 C  
HETATM   18  C   UNL     1      -9.631  10.274  65.289  1.00  0.00    -0.264 C  
HETATM   19  N   UNL     1     -10.427  11.254  66.058  1.00  0.00    -0.251 NA 
HETATM   20  C   UNL     1      -9.182  10.667  68.114  1.00  0.00    -0.148 C  
HETATM   21  C   UNL     1     -10.577  10.907  67.481  1.00  0.00    -0.230 C  
BRANCH  19  22
HETATM   22  C   UNL     1     -10.910  12.411  65.462  1.00  0.00    -0.281 A  
HETATM   23  C   UNL     1     -10.535  13.744  65.787  1.00  0.00    -0.299 A  
HETATM   24  C   UNL     1     -11.130  14.843  65.125  1.00  0.00    -0.393 A  
HETATM   25 CL   UNL     1      -9.238  14.099  66.900  1.00  0.00    -0.257 Cl 
HETATM   26  C   UNL     1     -12.051  14.646  64.096  1.00  0.00    -0.346 A  
HETATM   27 CL   UNL     1     -10.763  16.492  65.522  1.00  0.00    -0.325 Cl 
HETATM   28  C   UNL     1     -12.405  13.359  63.734  1.00  0.00    -0.418 A  
HETATM   29  C   UNL     1     -11.862  12.273  64.422  1.00  0.00    -0.464 A  
ENDBRANCH  19  22
ENDBRANCH  15  16
ENDBRANCH  14  15
ENDBRANCH  11  14
ENDBRANCH   6   8
ENDBRANCH   4   6
ENDBRANCH   2   4
TORSDOF 7
ENDMDL
MODEL       89
REMARK 921   NORMALIZED FREE ENERGY PREDICTED BY IDOCK:   -4.65 KCAL/MOL
REMARK 922        TOTAL FREE ENERGY PREDICTED BY IDOCK:   -7.32 KCAL/MOL
REMARK 923 INTER-LIGAND FREE ENERGY PREDICTED BY IDOCK:   -6.71 KCAL/MOL
REMARK 924 INTRA-LIGAND FREE ENERGY PREDICTED BY IDOCK:   -0.62 KCAL/MOL
REMARK 927      BINDING AFFINITY PREDICTED BY RF-SCORE:    0.00 PKD
ROOT
HETATM    1  C   UNL     1     -12.528  14.316  65.478  1.00  0.00    -0.422 C  
HETATM    2  N   UNL     1     -11.215  14.393  64.867  1.00  0.00    -0.370 N  
HETATM    3  C   UNL     1     -10.474  15.639  64.981  1.00  0.00    -0.333 C  
ENDROOT
BRANCH   2   4
HETATM    4  C   UNL     1     -10.724  13.227  64.294  1.00  0.00    -0.387 C  
HETATM    5  O   UNL     1     -11.279  12.673  63.348  1.00  0.00    -0.467 OA 
BRANCH   4   6
HETATM    6  N   UNL     1      -9.604  12.718  64.885  1.00  0.00    -0.477 N  
HETATM    7  H   UNL     1      -8.702  12.845  64.424  1.00  0.00     0.000 HD 
BRANCH   6   8
HETATM    8  C   UNL     1      -9.652  11.999  66.154  1.00  0.00    -0.239 C  
HETATM    9  C   UNL     1     -10.498  10.726  66.029  1.00  0.00    -0.273 C  
HETATM   10  C   UNL     1      -9.832   9.678  65.136  1.00  0.00    -0.209 C  
HETATM   11  C   UNL     1      -8.390   9.347  65.565  1.00  0.00    -0.139 C  
HETATM   12  C   UNL     1      -8.233  11.671  66.628  1.00  0.00    -0.140 C  
HETATM   13  C   UNL     1      -7.553  10.625  65.745  1.00  0.00    -0.120 C  
BRANCH  11  14
HETATM   14  C   UNL     1      -8.336   8.491  66.846  1.00  0.00    -0.109 C  
BRANCH  14  15
HETATM   15  C   UNL     1      -9.317   7.312  66.861  1.00  0.00    -0.156 C  
BRANCH  15  16
HETATM   16  N   UNL     1      -8.840   6.127  67.595  1.00  0.00    -0.105 NA 
HETATM   17  C   UNL     1      -7.946   6.471  68.727  1.00  0.00    -0.111 C  
HETATM   18  C   UNL     1      -8.632   7.228  69.889  1.00  0.00    -0.141 C  
HETATM   19  N   UNL     1      -9.818   6.479  70.355  1.00  0.00    -0.175 NA 
HETATM   20  C   UNL     1      -9.993   5.366  68.152  1.00  0.00    -0.158 C  
HETATM   21  C   UNL     1     -10.752   6.119  69.275  1.00  0.00    -0.318 C  
BRANCH  19  22
HETATM   22  C   UNL     1      -9.959   6.115  71.687  1.00  0.00    -0.177 A  
HETATM   23  C   UNL     1     -10.024   4.788  72.195  1.00  0.00    -0.179 A  
HETATM   24  C   UNL     1     -10.204   4.552  73.577  1.00  0.00    -0.172 A  
HETATM   25 CL   UNL     1      -9.749   3.393  71.183  1.00  0.00    -0.239 Cl 
HETATM   26  C   UNL     1     -10.259   5.611  74.483  1.00  0.00    -0.288 A  
HETATM   27 CL   UNL     1     -10.358   2.959  74.248  1.00  0.00    -0.202 Cl 
HETATM   28  C   UNL     1     -10.159   6.911  74.021  1.00  0.00    -0.383 A  
HETATM   29  C   UNL     1     -10.038   7.150  72.652  1.00  0.00    -0.217 A  
ENDBRANCH  19  22
ENDBRANCH  15  16
ENDBRANCH  14  15
ENDBRANCH  11  14
ENDBRANCH   6   8
ENDBRANCH   4   6
ENDBRANCH   2   4
TORSDOF 7
ENDMDL
MODEL       90
REMARK 921   NORMALIZED FREE ENERGY PREDICTED BY IDOCK:   -4.62 KCAL/MOL
REMARK 922        TOTAL FREE ENERGY PREDICTED BY IDOCK:   -7.28 KCAL/MOL
REMARK 923 INTER-LIGAND FREE ENERGY PREDICTED BY IDOCK:   -6.85 KCAL/MOL
REMARK 924 INTRA-LIGAND FREE ENERGY PREDICTED BY IDOCK:   -0.43 KCAL/MOL
REMARK 927      BINDING AFFINITY PREDICTED BY RF-SCORE:    0.00 PKD
ROOT
HETATM    1  C   UNL     1      -6.542   5.726  69.929  1.00  0.00    -0.046 C  
HETATM    2  N   UNL     1      -7.818   5.163  70.327  1.00  0.00    -0.077 N  
HETATM    3  C   UNL     1      -7.919   4.544  71.638  1.00  0.00    -0.100 C  
ENDROOT
BRANCH   2   4
HETATM    4  C   UNL     1      -8.880   5.343  69.451  1.00  0.00    -0.105 C  
HETATM    5  O   UNL     1      -9.643   4.431  69.140  1.00  0.00    -0.160 OA 
BRANCH   4   6
HETATM    6  N   UNL     1      -8.991   6.598  68.926  1.00  0.00    -0.130 N  
HETATM    7  H   UNL     1      -8.169   7.030  68.501  1.00  0.00     0.000 HD 
BRANCH   6   8
HETATM    8  C   UNL     1     -10.245   7.345  68.953  1.00  0.00    -0.196 C  
HETATM    9  C   UNL     1     -10.091   8.645  69.751  1.00  0.00    -0.199 C  
HETATM   10  C   UNL     1      -9.179   9.650  69.045  1.00  0.00    -0.156 C  
HETATM   11  C   UNL     1      -9.608   9.937  67.593  1.00  0.00    -0.172 C  
HETATM   12  C   UNL     1     -10.717   7.631  67.524  1.00  0.00    -0.280 C  
HETATM   13  C   UNL     1      -9.816   8.634  66.803  1.00  0.00    -0.322 C  
BRANCH  11  14
HETATM   14  C   UNL     1     -10.871  10.816  67.513  1.00  0.00    -0.342 C  
BRANCH  14  15
HETATM   15  C   UNL     1     -10.691  12.234  68.069  1.00  0.00    -0.218 C  
BRANCH  15  16
HETATM   16  N   UNL     1     -11.520  13.260  67.411  1.00  0.00    -0.313 NA 
HETATM   17  C   UNL     1     -11.852  14.395  68.306  1.00  0.00    -0.326 C  
HETATM   18  C   UNL     1     -10.646  15.271  68.719  1.00  0.00    -0.240 C  
HETATM   19  N   UNL     1      -9.918  15.735  67.519  1.00  0.00    -0.234 NA 
HETATM   20  C   UNL     1     -10.806  13.819  66.229  1.00  0.00    -0.283 C  
HETATM   21  C   UNL     1      -9.548  14.649  66.595  1.00  0.00    -0.278 C  
BRANCH  19  22
HETATM   22  C   UNL     1      -9.689  17.085  67.297  1.00  0.00    -0.253 A  
HETATM   23  C   UNL     1      -8.490  17.665  66.797  1.00  0.00    -0.251 A  
HETATM   24  C   UNL     1      -8.372  19.066  66.649  1.00  0.00    -0.301 A  
HETATM   25 CL   UNL     1      -7.164  16.692  66.210  1.00  0.00    -0.162 Cl 
HETATM   26  C   UNL     1      -9.447  19.908  66.930  1.00  0.00    -0.506 A  
HETATM   27 CL   UNL     1      -6.915  19.836  66.107  1.00  0.00    -0.239 Cl 
HETATM   28  C   UNL     1     -10.638  19.369  67.381  1.00  0.00    -0.603 A  
HETATM   29  C   UNL     1     -10.740  17.992  67.582  1.00  0.00    -0.360 A  
ENDBRANCH  19  22
ENDBRANCH  15  16
ENDBRANCH  14  15
ENDBRANCH  11  14
ENDBRANCH   6   8
ENDBRANCH   4   6
ENDBRANCH   2   4
TORSDOF 7
ENDMDL
MODEL       91
REMARK 921   NORMALIZED FREE ENERGY PREDICTED BY IDOCK:   -4.62 KCAL/MOL
REMARK 922        TOTAL FREE ENERGY PREDICTED BY IDOCK:   -7.28 KCAL/MOL
REMARK 923 INTER-LIGAND FREE ENERGY PREDICTED BY IDOCK:   -6.60 KCAL/MOL
REMARK 924 INTRA-LIGAND FREE ENERGY PREDICTED BY IDOCK:   -0.68 KCAL/MOL
REMARK 927      BINDING AFFINITY PREDICTED BY RF-SCORE:    0.00 PKD
ROOT
HETATM    1  C   UNL     1      -8.159   4.626  65.523  1.00  0.00    -0.107 C  
HETATM    2  N   UNL     1      -8.533   4.827  66.910  1.00  0.00    -0.106 N  
HETATM    3  C   UNL     1      -9.599   4.006  67.461  1.00  0.00    -0.168 C  
ENDROOT
BRANCH   2   4
HETATM    4  C   UNL     1      -7.772   5.733  67.636  1.00  0.00    -0.097 C  
HETATM    5  O   UNL     1      -6.576   5.560  67.861  1.00  0.00    -0.049 OA 
BRANCH   4   6
HETATM    6  N   UNL     1      -8.458   6.810  68.118  1.00  0.00    -0.121 N  
HETATM    7  H   UNL     1      -9.341   6.654  68.605  1.00  0.00     0.000 HD 
BRANCH   6   8
HETATM    8  C   UNL     1      -7.971   8.177  67.959  1.00  0.00    -0.127 C  
HETATM    9  C   UNL     1      -7.595   8.458  66.500  1.00  0.00    -0.088 C  
HETATM   10  C   UNL     1      -8.821   8.486  65.585  1.00  0.00    -0.214 C  
HETATM   11  C   UNL     1      -9.915   9.454  66.072  1.00  0.00    -0.352 C  
HETATM   12  C   UNL     1      -9.026   9.172  68.455  1.00  0.00    -0.133 C  
HETATM   13  C   UNL     1     -10.258   9.213  67.552  1.00  0.00    -0.304 C  
BRANCH  11  14
HETATM   14  C   UNL     1      -9.541  10.933  65.847  1.00  0.00    -0.257 C  
BRANCH  14  15
HETATM   15  C   UNL     1     -10.741  11.885  65.772  1.00  0.00    -0.284 C  
BRANCH  15  16
HETATM   16  N   UNL     1     -10.999  12.643  67.009  1.00  0.00    -0.257 NA 
HETATM   17  C   UNL     1      -9.824  13.424  67.464  1.00  0.00    -0.227 C  
HETATM   18  C   UNL     1      -9.421  14.591  66.532  1.00  0.00    -0.289 C  
HETATM   19  N   UNL     1     -10.582  15.472  66.285  1.00  0.00    -0.301 NA 
HETATM   20  C   UNL     1     -12.119  13.603  66.801  1.00  0.00    -0.399 C  
HETATM   21  C   UNL     1     -11.780  14.753  65.818  1.00  0.00    -0.252 C  
BRANCH  19  22
HETATM   22  C   UNL     1     -10.519  16.833  66.549  1.00  0.00    -0.258 A  
HETATM   23  C   UNL     1     -10.309  17.435  67.821  1.00  0.00    -0.358 A  
HETATM   24  C   UNL     1     -10.300  18.842  67.961  1.00  0.00    -0.389 A  
HETATM   25 CL   UNL     1      -9.914  16.496  69.238  1.00  0.00    -0.262 Cl 
HETATM   26  C   UNL     1     -10.434  19.673  66.848  1.00  0.00    -0.606 A  
HETATM   27 CL   UNL     1     -10.116  19.634  69.493  1.00  0.00    -0.278 Cl 
HETATM   28  C   UNL     1     -10.601  19.114  65.594  1.00  0.00    -0.303 A  
HETATM   29  C   UNL     1     -10.666  17.727  65.459  1.00  0.00    -0.009 A  
ENDBRANCH  19  22
ENDBRANCH  15  16
ENDBRANCH  14  15
ENDBRANCH  11  14
ENDBRANCH   6   8
ENDBRANCH   4   6
ENDBRANCH   2   4
TORSDOF 7
ENDMDL
MODEL       92
REMARK 921   NORMALIZED FREE ENERGY PREDICTED BY IDOCK:   -4.57 KCAL/MOL
REMARK 922        TOTAL FREE ENERGY PREDICTED BY IDOCK:   -7.22 KCAL/MOL
REMARK 923 INTER-LIGAND FREE ENERGY PREDICTED BY IDOCK:   -6.38 KCAL/MOL
REMARK 924 INTRA-LIGAND FREE ENERGY PREDICTED BY IDOCK:   -0.84 KCAL/MOL
REMARK 927      BINDING AFFINITY PREDICTED BY RF-SCORE:    0.00 PKD
ROOT
HETATM    1  C   UNL     1     -10.467  12.912  64.218  1.00  0.00    -0.407 C  
HETATM    2  N   UNL     1     -11.127  13.986  64.935  1.00  0.00    -0.356 N  
HETATM    3  C   UNL     1     -12.280  14.621  64.316  1.00  0.00    -0.408 C  
ENDROOT
BRANCH   2   4
HETATM    4  C   UNL     1     -10.658  14.264  66.212  1.00  0.00    -0.291 C  
HETATM    5  O   UNL     1      -9.741  15.057  66.420  1.00  0.00    -0.251 OA 
BRANCH   4   6
HETATM    6  N   UNL     1     -11.261  13.563  67.216  1.00  0.00    -0.289 N  
HETATM    7  H   UNL     1     -12.223  13.247  67.088  1.00  0.00     0.000 HD 
BRANCH   6   8
HETATM    8  C   UNL     1     -10.576  13.251  68.466  1.00  0.00    -0.256 C  
HETATM    9  C   UNL     1     -11.584  12.977  69.589  1.00  0.00    -0.322 C  
HETATM   10  C   UNL     1     -12.361  11.679  69.360  1.00  0.00    -0.131 C  
HETATM   11  C   UNL     1     -11.447  10.462  69.126  1.00  0.00    -0.261 C  
HETATM   12  C   UNL     1      -9.637  12.056  68.268  1.00  0.00    -0.204 C  
HETATM   13  C   UNL     1     -10.398  10.751  68.038  1.00  0.00    -0.211 C  
BRANCH  11  14
HETATM   14  C   UNL     1     -10.755   9.984  70.418  1.00  0.00    -0.369 C  
BRANCH  14  15
HETATM   15  C   UNL     1      -9.713   8.878  70.206  1.00  0.00    -0.185 C  
BRANCH  15  16
HETATM   16  N   UNL     1     -10.041   7.595  70.852  1.00  0.00    -0.191 NA 
HETATM   17  C   UNL     1     -11.075   6.827  70.118  1.00  0.00    -0.315 C  
HETATM   18  C   UNL     1     -10.633   6.306  68.730  1.00  0.00    -0.262 C  
HETATM   19  N   UNL     1      -9.380   5.531  68.852  1.00  0.00    -0.122 NA 
HETATM   20  C   UNL     1      -8.826   6.737  70.939  1.00  0.00    -0.146 C  
HETATM   21  C   UNL     1      -8.308   6.248  69.562  1.00  0.00    -0.118 C  
BRANCH  19  22
HETATM   22  C   UNL     1      -9.295   4.227  68.382  1.00  0.00    -0.153 A  
HETATM   23  C   UNL     1      -9.205   3.827  67.020  1.00  0.00    -0.181 A  
HETATM   24  C   UNL     1      -9.158   2.457  66.672  1.00  0.00    -0.088 A  
HETATM   25 CL   UNL     1      -9.005   4.981  65.726  1.00  0.00    -0.141 Cl 
HETATM   26  C   UNL     1      -9.137   1.469  67.655  1.00  0.00    -0.174 A  
HETATM   27 CL   UNL     1      -9.115   1.906  65.027  1.00  0.00    -0.127 Cl 
HETATM   28  C   UNL     1      -9.185   1.831  68.989  1.00  0.00    -0.193 A  
HETATM   29  C   UNL     1      -9.287   3.179  69.336  1.00  0.00    -0.225 A  
ENDBRANCH  19  22
ENDBRANCH  15  16
ENDBRANCH  14  15
ENDBRANCH  11  14
ENDBRANCH   6   8
ENDBRANCH   4   6
ENDBRANCH   2   4
TORSDOF 7
ENDMDL
MODEL       93
REMARK 921   NORMALIZED FREE ENERGY PREDICTED BY IDOCK:   -4.53 KCAL/MOL
REMARK 922        TOTAL FREE ENERGY PREDICTED BY IDOCK:   -7.16 KCAL/MOL
REMARK 923 INTER-LIGAND FREE ENERGY PREDICTED BY IDOCK:   -6.76 KCAL/MOL
REMARK 924 INTRA-LIGAND FREE ENERGY PREDICTED BY IDOCK:   -0.39 KCAL/MOL
REMARK 927      BINDING AFFINITY PREDICTED BY RF-SCORE:    0.00 PKD
ROOT
HETATM    1  C   UNL     1     -12.752  15.669  71.006  1.00  0.00    -0.460 C  
HETATM    2  N   UNL     1     -12.160  14.604  70.219  1.00  0.00    -0.299 N  
HETATM    3  C   UNL     1     -12.338  13.234  70.672  1.00  0.00    -0.339 C  
ENDROOT
BRANCH   2   4
HETATM    4  C   UNL     1     -11.541  14.974  69.032  1.00  0.00    -0.319 C  
HETATM    5  O   UNL     1     -11.899  15.952  68.379  1.00  0.00    -0.322 OA 
BRANCH   4   6
HETATM    6  N   UNL     1     -10.534  14.150  68.623  1.00  0.00    -0.246 N  
HETATM    7  H   UNL     1      -9.792  13.912  69.282  1.00  0.00     0.000 HD 
BRANCH   6   8
HETATM    8  C   UNL     1     -10.482  13.596  67.273  1.00  0.00    -0.260 C  
HETATM    9  C   UNL     1      -9.080  13.064  66.953  1.00  0.00    -0.227 C  
HETATM   10  C   UNL     1      -8.732  11.825  67.781  1.00  0.00    -0.155 C  
HETATM   11  C   UNL     1      -9.788  10.709  67.670  1.00  0.00    -0.191 C  
HETATM   12  C   UNL     1     -11.536  12.495  67.115  1.00  0.00    -0.437 C  
HETATM   13  C   UNL     1     -11.203  11.249  67.936  1.00  0.00    -0.353 C  
BRANCH  11  14
HETATM   14  C   UNL     1      -9.743   9.984  66.310  1.00  0.00    -0.272 C  
BRANCH  14  15
HETATM   15  C   UNL     1      -9.678   8.455  66.410  1.00  0.00    -0.242 C  
BRANCH  15  16
HETATM   16  N   UNL     1     -10.624   7.864  67.373  1.00  0.00    -0.285 NA 
HETATM   17  C   UNL     1     -11.159   6.555  66.927  1.00  0.00    -0.272 C  
HETATM   18  C   UNL     1     -10.116   5.415  66.865  1.00  0.00    -0.209 C  
HETATM   19  N   UNL     1      -9.419   5.291  68.162  1.00  0.00    -0.118 NA 
HETATM   20  C   UNL     1      -9.955   7.648  68.687  1.00  0.00    -0.174 C  
HETATM   21  C   UNL     1      -8.853   6.559  68.653  1.00  0.00    -0.121 C  
BRANCH  19  22
HETATM   22  C   UNL     1      -9.386   4.083  68.846  1.00  0.00    -0.164 A  
HETATM   23  C   UNL     1      -9.680   3.888  70.224  1.00  0.00    -0.175 A  
HETATM   24  C   UNL     1      -9.575   2.605  70.810  1.00  0.00    -0.111 A  
HETATM   25 CL   UNL     1     -10.315   5.168  71.228  1.00  0.00    -0.289 Cl 
HETATM   26  C   UNL     1      -9.243   1.492  70.040  1.00  0.00    -0.161 A  
HETATM   27 CL   UNL     1      -9.856   2.316  72.497  1.00  0.00    -0.185 Cl 
HETATM   28  C   UNL     1      -8.990   1.646  68.689  1.00  0.00    -0.152 A  
HETATM   29  C   UNL     1      -9.037   2.918  68.118  1.00  0.00    -0.226 A  
ENDBRANCH  19  22
ENDBRANCH  15  16
ENDBRANCH  14  15
ENDBRANCH  11  14
ENDBRANCH   6   8
ENDBRANCH   4   6
ENDBRANCH   2   4
TORSDOF 7
ENDMDL
MODEL       94
REMARK 921   NORMALIZED FREE ENERGY PREDICTED BY IDOCK:   -4.51 KCAL/MOL
REMARK 922        TOTAL FREE ENERGY PREDICTED BY IDOCK:   -7.13 KCAL/MOL
REMARK 923 INTER-LIGAND FREE ENERGY PREDICTED BY IDOCK:   -6.47 KCAL/MOL
REMARK 924 INTRA-LIGAND FREE ENERGY PREDICTED BY IDOCK:   -0.67 KCAL/MOL
REMARK 927      BINDING AFFINITY PREDICTED BY RF-SCORE:    0.00 PKD
ROOT
HETATM    1  C   UNL     1     -14.311   8.139  71.700  1.00  0.00    -0.469 C  
HETATM    2  N   UNL     1     -13.067   8.877  71.809  1.00  0.00    -0.351 N  
HETATM    3  C   UNL     1     -13.119  10.328  71.738  1.00  0.00    -0.465 C  
ENDROOT
BRANCH   2   4
HETATM    4  C   UNL     1     -11.922   8.136  72.069  1.00  0.00    -0.340 C  
HETATM    5  O   UNL     1     -11.421   8.066  73.190  1.00  0.00    -0.299 OA 
BRANCH   4   6
HETATM    6  N   UNL     1     -11.370   7.523  70.982  1.00  0.00    -0.268 N  
HETATM    7  H   UNL     1     -11.436   6.508  70.901  1.00  0.00     0.000 HD 
BRANCH   6   8
HETATM    8  C   UNL     1     -10.687   8.271  69.931  1.00  0.00    -0.234 C  
HETATM    9  C   UNL     1      -9.626   9.205  70.526  1.00  0.00    -0.293 C  
HETATM   10  C   UNL     1      -8.453   8.432  71.131  1.00  0.00    -0.178 C  
HETATM   11  C   UNL     1      -7.820   7.429  70.149  1.00  0.00    -0.099 C  
HETATM   12  C   UNL     1     -10.062   7.305  68.919  1.00  0.00    -0.180 C  
HETATM   13  C   UNL     1      -8.887   6.525  69.508  1.00  0.00    -0.138 C  
BRANCH  11  14
HETATM   14  C   UNL     1      -6.982   8.119  69.055  1.00  0.00    -0.061 C  
BRANCH  14  15
HETATM   15  C   UNL     1      -6.683   9.598  69.327  1.00  0.00    -0.049 C  
BRANCH  15  16
HETATM   16  N   UNL     1      -6.332  10.383  68.130  1.00  0.00    -0.052 NA 
HETATM   17  C   UNL     1      -7.312  10.224  67.028  1.00  0.00    -0.092 C  
HETATM   18  C   UNL     1      -8.712  10.815  67.316  1.00  0.00    -0.130 C  
HETATM   19  N   UNL     1      -8.595  12.230  67.724  1.00  0.00    -0.160 NA 
HETATM   20  C   UNL     1      -6.268  11.833  68.464  1.00  0.00    -0.051 C  
HETATM   21  C   UNL     1      -7.643  12.451  68.826  1.00  0.00    -0.033 C  
BRANCH  19  22
HETATM   22  C   UNL     1      -9.288  13.230  67.055  1.00  0.00    -0.242 A  
HETATM   23  C   UNL     1     -10.646  13.176  66.635  1.00  0.00    -0.279 A  
HETATM   24  C   UNL     1     -11.226  14.254  65.928  1.00  0.00    -0.319 A  
HETATM   25 CL   UNL     1     -11.704  11.862  67.084  1.00  0.00    -0.358 Cl 
HETATM   26  C   UNL     1     -10.502  15.419  65.678  1.00  0.00    -0.391 A  
HETATM   27 CL   UNL     1     -12.856  14.220  65.333  1.00  0.00    -0.420 Cl 
HETATM   28  C   UNL     1      -9.190  15.514  66.109  1.00  0.00    -0.379 A  
HETATM   29  C   UNL     1      -8.597  14.431  66.758  1.00  0.00    -0.139 A  
ENDBRANCH  19  22
ENDBRANCH  15  16
ENDBRANCH  14  15
ENDBRANCH  11  14
ENDBRANCH   6   8
ENDBRANCH   4   6
ENDBRANCH   2   4
TORSDOF 7
ENDMDL
MODEL       95
REMARK 921   NORMALIZED FREE ENERGY PREDICTED BY IDOCK:   -4.48 KCAL/MOL
REMARK 922        TOTAL FREE ENERGY PREDICTED BY IDOCK:   -7.08 KCAL/MOL
REMARK 923 INTER-LIGAND FREE ENERGY PREDICTED BY IDOCK:   -6.30 KCAL/MOL
REMARK 924 INTRA-LIGAND FREE ENERGY PREDICTED BY IDOCK:   -0.77 KCAL/MOL
REMARK 927      BINDING AFFINITY PREDICTED BY RF-SCORE:    0.00 PKD
ROOT
HETATM    1  C   UNL     1      -8.968   6.165  72.657  1.00  0.00    -0.130 C  
HETATM    2  N   UNL     1     -10.049   5.833  71.749  1.00  0.00    -0.183 N  
HETATM    3  C   UNL     1     -11.301   6.561  71.873  1.00  0.00    -0.285 C  
ENDROOT
BRANCH   2   4
HETATM    4  C   UNL     1      -9.769   4.899  70.760  1.00  0.00    -0.198 C  
HETATM    5  O   UNL     1     -10.153   3.733  70.825  1.00  0.00    -0.086 OA 
BRANCH   4   6
HETATM    6  N   UNL     1      -9.000   5.359  69.730  1.00  0.00    -0.122 N  
HETATM    7  H   UNL     1      -8.026   5.602  69.913  1.00  0.00     0.000 HD 
BRANCH   6   8
HETATM    8  C   UNL     1      -9.525   5.516  68.377  1.00  0.00    -0.118 C  
HETATM    9  C   UNL     1     -10.599   6.610  68.331  1.00  0.00    -0.289 C  
HETATM   10  C   UNL     1     -10.013   8.002  68.570  1.00  0.00    -0.206 C  
HETATM   11  C   UNL     1      -8.841   8.334  67.626  1.00  0.00    -0.137 C  
HETATM   12  C   UNL     1      -8.384   5.826  67.403  1.00  0.00    -0.104 C  
HETATM   13  C   UNL     1      -7.787   7.214  67.628  1.00  0.00    -0.113 C  
BRANCH  11  14
HETATM   14  C   UNL     1      -9.305   8.625  66.186  1.00  0.00    -0.291 C  
BRANCH  14  15
HETATM   15  C   UNL     1     -10.302   9.784  66.064  1.00  0.00    -0.114 C  
BRANCH  15  16
HETATM   16  N   UNL     1      -9.683  11.106  65.863  1.00  0.00    -0.219 NA 
HETATM   17  C   UNL     1     -10.674  12.168  65.564  1.00  0.00    -0.283 C  
HETATM   18  C   UNL     1     -11.630  12.511  66.732  1.00  0.00    -0.382 C  
HETATM   19  N   UNL     1     -10.853  12.834  67.947  1.00  0.00    -0.214 NA 
HETATM   20  C   UNL     1      -8.942  11.520  67.088  1.00  0.00    -0.166 C  
HETATM   21  C   UNL     1      -9.859  11.808  68.304  1.00  0.00    -0.198 C  
BRANCH  19  22
HETATM   22  C   UNL     1     -11.036  14.036  68.617  1.00  0.00    -0.264 A  
HETATM   23  C   UNL     1     -11.759  14.224  69.828  1.00  0.00    -0.309 A  
HETATM   24  C   UNL     1     -11.901  15.513  70.391  1.00  0.00    -0.351 A  
HETATM   25 CL   UNL     1     -12.382  12.882  70.754  1.00  0.00    -0.441 Cl 
HETATM   26  C   UNL     1     -11.285  16.620  69.809  1.00  0.00    -0.039 A  
HETATM   27 CL   UNL     1     -12.824  15.815  71.828  1.00  0.00    -0.512 Cl 
HETATM   28  C   UNL     1     -10.544  16.460  68.652  1.00  0.00    -0.305 A  
HETATM   29  C   UNL     1     -10.448  15.200  68.062  1.00  0.00    -0.247 A  
ENDBRANCH  19  22
ENDBRANCH  15  16
ENDBRANCH  14  15
ENDBRANCH  11  14
ENDBRANCH   6   8
ENDBRANCH   4   6
ENDBRANCH   2   4
TORSDOF 7
ENDMDL
MODEL       96
REMARK 921   NORMALIZED FREE ENERGY PREDICTED BY IDOCK:   -4.47 KCAL/MOL
REMARK 922        TOTAL FREE ENERGY PREDICTED BY IDOCK:   -7.07 KCAL/MOL
REMARK 923 INTER-LIGAND FREE ENERGY PREDICTED BY IDOCK:   -6.24 KCAL/MOL
REMARK 924 INTRA-LIGAND FREE ENERGY PREDICTED BY IDOCK:   -0.84 KCAL/MOL
REMARK 927      BINDING AFFINITY PREDICTED BY RF-SCORE:    0.00 PKD
ROOT
HETATM    1  C   UNL     1     -12.250  13.078  63.309  1.00  0.00    -0.382 C  
HETATM    2  N   UNL     1     -11.938  13.164  64.723  1.00  0.00    -0.367 N  
HETATM    3  C   UNL     1     -12.783  13.994  65.566  1.00  0.00    -0.486 C  
ENDROOT
BRANCH   2   4
HETATM    4  C   UNL     1     -10.898  12.365  65.182  1.00  0.00    -0.297 C  
HETATM    5  O   UNL     1      -9.832  12.258  64.579  1.00  0.00    -0.203 OA 
BRANCH   4   6
HETATM    6  N   UNL     1     -11.162  11.675  66.329  1.00  0.00    -0.301 N  
HETATM    7  H   UNL     1     -11.962  11.041  66.351  1.00  0.00     0.000 HD 
BRANCH   6   8
HETATM    8  C   UNL     1     -10.338  11.812  67.526  1.00  0.00    -0.196 C  
HETATM    9  C   UNL     1     -11.179  12.287  68.717  1.00  0.00    -0.312 C  
HETATM   10  C   UNL     1     -12.175  11.222  69.180  1.00  0.00    -0.251 C  
HETATM   11  C   UNL     1     -11.512   9.863  69.475  1.00  0.00    -0.120 C  
HETATM   12  C   UNL     1      -9.642  10.483  67.841  1.00  0.00    -0.164 C  
HETATM   13  C   UNL     1     -10.624   9.408  68.305  1.00  0.00    -0.256 C  
BRANCH  11  14
HETATM   14  C   UNL     1     -10.701   9.873  70.786  1.00  0.00    -0.350 C  
BRANCH  14  15
HETATM   15  C   UNL     1     -11.184   8.864  71.836  1.00  0.00    -0.377 C  
BRANCH  15  16
HETATM   16  N   UNL     1     -10.119   8.318  72.695  1.00  0.00    -0.301 NA 
HETATM   17  C   UNL     1     -10.590   7.213  73.566  1.00  0.00    -0.374 C  
HETATM   18  C   UNL     1     -10.996   5.923  72.815  1.00  0.00    -0.265 C  
HETATM   19  N   UNL     1      -9.894   5.476  71.936  1.00  0.00    -0.165 NA 
HETATM   20  C   UNL     1      -9.006   7.784  71.861  1.00  0.00    -0.128 C  
HETATM   21  C   UNL     1      -9.391   6.528  71.037  1.00  0.00    -0.160 C  
BRANCH  19  22
HETATM   22  C   UNL     1      -9.373   4.194  72.036  1.00  0.00    -0.130 A  
HETATM   23  C   UNL     1      -8.399   3.751  72.973  1.00  0.00    -0.091 A  
HETATM   24  C   UNL     1      -7.924   2.419  72.947  1.00  0.00    -0.054 A  
HETATM   25 CL   UNL     1      -7.844   4.764  74.282  1.00  0.00    -0.096 Cl 
HETATM   26  C   UNL     1      -8.443   1.492  72.043  1.00  0.00    -0.053 A  
HETATM   27 CL   UNL     1      -6.690   1.839  74.019  1.00  0.00    -0.020 Cl 
HETATM   28  C   UNL     1      -9.419   1.886  71.145  1.00  0.00    -0.206 A  
HETATM   29  C   UNL     1      -9.850   3.213  71.131  1.00  0.00    -0.131 A  
ENDBRANCH  19  22
ENDBRANCH  15  16
ENDBRANCH  14  15
ENDBRANCH  11  14
ENDBRANCH   6   8
ENDBRANCH   4   6
ENDBRANCH   2   4
TORSDOF 7
ENDMDL
MODEL       97
REMARK 921   NORMALIZED FREE ENERGY PREDICTED BY IDOCK:   -4.47 KCAL/MOL
REMARK 922        TOTAL FREE ENERGY PREDICTED BY IDOCK:   -7.07 KCAL/MOL
REMARK 923 INTER-LIGAND FREE ENERGY PREDICTED BY IDOCK:   -6.55 KCAL/MOL
REMARK 924 INTRA-LIGAND FREE ENERGY PREDICTED BY IDOCK:   -0.52 KCAL/MOL
REMARK 927      BINDING AFFINITY PREDICTED BY RF-SCORE:    0.00 PKD
ROOT
HETATM    1  C   UNL     1      -5.608  10.442  68.579  1.00  0.00    -0.037 C  
HETATM    2  N   UNL     1      -6.018  10.663  69.952  1.00  0.00    -0.064 N  
HETATM    3  C   UNL     1      -6.749   9.607  70.632  1.00  0.00    -0.116 C  
ENDROOT
BRANCH   2   4
HETATM    4  C   UNL     1      -5.594  11.845  70.547  1.00  0.00    -0.162 C  
HETATM    5  O   UNL     1      -5.197  11.893  71.709  1.00  0.00    -0.336 OA 
BRANCH   4   6
HETATM    6  N   UNL     1      -5.690  12.956  69.760  1.00  0.00    -0.102 N  
HETATM    7  H   UNL     1      -4.919  13.183  69.132  1.00  0.00     0.000 HD 
BRANCH   6   8
HETATM    8  C   UNL     1      -6.858  13.830  69.788  1.00  0.00     0.100 C  
HETATM    9  C   UNL     1      -6.443  15.302  69.668  1.00  0.00    -0.162 C  
HETATM   10  C   UNL     1      -5.878  15.629  68.285  1.00  0.00    -0.118 C  
HETATM   11  C   UNL     1      -6.821  15.223  67.136  1.00  0.00     0.025 C  
HETATM   12  C   UNL     1      -7.833  13.442  68.672  1.00  0.00    -0.073 C  
HETATM   13  C   UNL     1      -7.283  13.763  67.282  1.00  0.00     0.016 C  
BRANCH  11  14
HETATM   14  C   UNL     1      -8.040  16.157  67.012  1.00  0.00    -0.245 C  
BRANCH  14  15
HETATM   15  C   UNL     1      -9.267  15.513  66.356  1.00  0.00    -0.305 C  
BRANCH  15  16
HETATM   16  N   UNL     1     -10.561  16.008  66.857  1.00  0.00    -0.314 NA 
HETATM   17  C   UNL     1     -11.635  14.987  66.791  1.00  0.00    -0.204 C  
HETATM   18  C   UNL     1     -11.442  13.780  67.739  1.00  0.00    -0.322 C  
HETATM   19  N   UNL     1     -11.238  14.249  69.126  1.00  0.00    -0.260 NA 
HETATM   20  C   UNL     1     -10.435  16.431  68.280  1.00  0.00    -0.302 C  
HETATM   21  C   UNL     1     -10.173  15.257  69.258  1.00  0.00    -0.250 C  
BRANCH  19  22
HETATM   22  C   UNL     1     -12.046  13.800  70.161  1.00  0.00    -0.359 A  
HETATM   23  C   UNL     1     -12.203  12.449  70.580  1.00  0.00    -0.278 A  
HETATM   24  C   UNL     1     -13.089  12.119  71.632  1.00  0.00    -0.310 A  
HETATM   25 CL   UNL     1     -11.224  11.157  69.933  1.00  0.00    -0.317 Cl 
HETATM   26  C   UNL     1     -13.782  13.112  72.323  1.00  0.00    -0.647 A  
HETATM   27 CL   UNL     1     -13.373  10.486  72.144  1.00  0.00    -0.472 Cl 
HETATM   28  C   UNL     1     -13.618  14.437  71.961  1.00  0.00    -0.514 A  
HETATM   29  C   UNL     1     -12.788  14.763  70.888  1.00  0.00    -0.423 A  
ENDBRANCH  19  22
ENDBRANCH  15  16
ENDBRANCH  14  15
ENDBRANCH  11  14
ENDBRANCH   6   8
ENDBRANCH   4   6
ENDBRANCH   2   4
TORSDOF 7
ENDMDL
MODEL       98
REMARK 921   NORMALIZED FREE ENERGY PREDICTED BY IDOCK:   -4.46 KCAL/MOL
REMARK 922        TOTAL FREE ENERGY PREDICTED BY IDOCK:   -7.06 KCAL/MOL
REMARK 923 INTER-LIGAND FREE ENERGY PREDICTED BY IDOCK:   -6.33 KCAL/MOL
REMARK 924 INTRA-LIGAND FREE ENERGY PREDICTED BY IDOCK:   -0.73 KCAL/MOL
REMARK 927      BINDING AFFINITY PREDICTED BY RF-SCORE:    0.00 PKD
ROOT
HETATM    1  C   UNL     1      -6.693   4.936  65.499  1.00  0.00    -0.056 C  
HETATM    2  N   UNL     1      -8.006   5.268  64.981  1.00  0.00    -0.098 N  
HETATM    3  C   UNL     1      -8.154   5.455  63.547  1.00  0.00    -0.113 C  
ENDROOT
BRANCH   2   4
HETATM    4  C   UNL     1      -9.051   5.291  65.896  1.00  0.00    -0.155 C  
HETATM    5  O   UNL     1      -9.523   4.266  66.385  1.00  0.00    -0.154 OA 
BRANCH   4   6
HETATM    6  N   UNL     1      -9.542   6.531  66.183  1.00  0.00    -0.376 N  
HETATM    7  H   UNL     1     -10.545   6.698  66.090  1.00  0.00     0.000 HD 
BRANCH   6   8
HETATM    8  C   UNL     1      -8.682   7.627  66.619  1.00  0.00    -0.141 C  
HETATM    9  C   UNL     1      -9.163   8.963  66.039  1.00  0.00    -0.287 C  
HETATM   10  C   UNL     1     -10.502   9.400  66.636  1.00  0.00    -0.238 C  
HETATM   11  C   UNL     1     -10.495   9.434  68.176  1.00  0.00    -0.267 C  
HETATM   12  C   UNL     1      -8.631   7.680  68.149  1.00  0.00    -0.123 C  
HETATM   13  C   UNL     1      -9.962   8.115  68.761  1.00  0.00    -0.198 C  
BRANCH  11  14
HETATM   14  C   UNL     1      -9.697  10.627  68.738  1.00  0.00    -0.193 C  
BRANCH  14  15
HETATM   15  C   UNL     1     -10.062  11.981  68.117  1.00  0.00    -0.200 C  
BRANCH  15  16
HETATM   16  N   UNL     1      -9.114  12.462  67.096  1.00  0.00    -0.192 NA 
HETATM   17  C   UNL     1      -9.740  13.381  66.115  1.00  0.00    -0.250 C  
HETATM   18  C   UNL     1     -10.195  14.739  66.697  1.00  0.00    -0.269 C  
HETATM   19  N   UNL     1      -9.072  15.395  67.400  1.00  0.00    -0.193 NA 
HETATM   20  C   UNL     1      -7.990  13.197  67.742  1.00  0.00    -0.162 C  
HETATM   21  C   UNL     1      -8.417  14.535  68.399  1.00  0.00    -0.163 C  
BRANCH  19  22
HETATM   22  C   UNL     1      -8.670  16.681  67.065  1.00  0.00    -0.200 A  
HETATM   23  C   UNL     1      -9.395  17.880  67.308  1.00  0.00    -0.258 A  
HETATM   24  C   UNL     1      -8.887  19.130  66.884  1.00  0.00    -0.305 A  
HETATM   25 CL   UNL     1     -10.862  17.902  68.256  1.00  0.00    -0.232 Cl 
HETATM   26  C   UNL     1      -7.638  19.224  66.273  1.00  0.00    -0.289 A  
HETATM   27 CL   UNL     1      -9.755  20.618  67.093  1.00  0.00    -0.587 Cl 
HETATM   28  C   UNL     1      -6.893  18.078  66.059  1.00  0.00    -0.332 A  
HETATM   29  C   UNL     1      -7.415  16.837  66.425  1.00  0.00    -0.302 A  
ENDBRANCH  19  22
ENDBRANCH  15  16
ENDBRANCH  14  15
ENDBRANCH  11  14
ENDBRANCH   6   8
ENDBRANCH   4   6
ENDBRANCH   2   4
TORSDOF 7
ENDMDL
MODEL       99
REMARK 921   NORMALIZED FREE ENERGY PREDICTED BY IDOCK:   -4.45 KCAL/MOL
REMARK 922        TOTAL FREE ENERGY PREDICTED BY IDOCK:   -7.05 KCAL/MOL
REMARK 923 INTER-LIGAND FREE ENERGY PREDICTED BY IDOCK:   -6.43 KCAL/MOL
REMARK 924 INTRA-LIGAND FREE ENERGY PREDICTED BY IDOCK:   -0.62 KCAL/MOL
REMARK 927      BINDING AFFINITY PREDICTED BY RF-SCORE:    0.00 PKD
ROOT
HETATM    1  C   UNL     1     -10.513  17.301  67.155  1.00  0.00    -0.297 C  
HETATM    2  N   UNL     1     -10.790  15.877  67.144  1.00  0.00    -0.302 N  
HETATM    3  C   UNL     1     -11.441  15.293  68.305  1.00  0.00    -0.347 C  
ENDROOT
BRANCH   2   4
HETATM    4  C   UNL     1     -10.490  15.192  65.973  1.00  0.00    -0.319 C  
HETATM    5  O   UNL     1     -10.814  15.609  64.863  1.00  0.00    -0.426 OA 
BRANCH   4   6
HETATM    6  N   UNL     1      -9.846  14.001  66.148  1.00  0.00    -0.301 N  
HETATM    7  H   UNL     1      -9.060  13.956  66.796  1.00  0.00     0.000 HD 
BRANCH   6   8
HETATM    8  C   UNL     1     -10.245  12.790  65.437  1.00  0.00    -0.283 C  
HETATM    9  C   UNL     1      -9.172  11.702  65.566  1.00  0.00    -0.111 C  
HETATM   10  C   UNL     1      -9.064  11.168  66.996  1.00  0.00    -0.158 C  
HETATM   11  C   UNL     1     -10.413  10.689  67.564  1.00  0.00    -0.272 C  
HETATM   12  C   UNL     1     -11.597  12.293  65.959  1.00  0.00    -0.451 C  
HETATM   13  C   UNL     1     -11.506  11.756  67.388  1.00  0.00    -0.375 C  
BRANCH  11  14
HETATM   14  C   UNL     1     -10.872   9.351  66.951  1.00  0.00    -0.055 C  
BRANCH  14  15
HETATM   15  C   UNL     1     -10.907   8.180  67.941  1.00  0.00     0.032 C  
BRANCH  15  16
HETATM   16  N   UNL     1     -10.430   8.509  69.296  1.00  0.00    -0.222 NA 
HETATM   17  C   UNL     1     -11.426   8.198  70.350  1.00  0.00    -0.125 C  
HETATM   18  C   UNL     1     -11.717   6.691  70.543  1.00  0.00    -0.394 C  
HETATM   19  N   UNL     1     -10.456   5.953  70.768  1.00  0.00    -0.234 NA 
HETATM   20  C   UNL     1      -9.194   7.739  69.610  1.00  0.00    -0.153 C  
HETATM   21  C   UNL     1      -9.429   6.212  69.744  1.00  0.00    -0.150 C  
BRANCH  19  22
HETATM   22  C   UNL     1     -10.282   5.156  71.891  1.00  0.00    -0.209 A  
HETATM   23  C   UNL     1      -9.643   3.886  71.930  1.00  0.00    -0.149 A  
HETATM   24  C   UNL     1      -9.561   3.156  73.139  1.00  0.00    -0.099 A  
HETATM   25 CL   UNL     1      -8.808   3.224  70.547  1.00  0.00    -0.132 Cl 
HETATM   26  C   UNL     1     -10.049   3.689  74.331  1.00  0.00    -0.211 A  
HETATM   27 CL   UNL     1      -8.854   1.575  73.237  1.00  0.00    -0.061 Cl 
HETATM   28  C   UNL     1     -10.641   4.939  74.329  1.00  0.00    -0.321 A  
HETATM   29  C   UNL     1     -10.774   5.639  73.129  1.00  0.00    -0.301 A  
ENDBRANCH  19  22
ENDBRANCH  15  16
ENDBRANCH  14  15
ENDBRANCH  11  14
ENDBRANCH   6   8
ENDBRANCH   4   6
ENDBRANCH   2   4
TORSDOF 7
ENDMDL
MODEL      100
REMARK 921   NORMALIZED FREE ENERGY PREDICTED BY IDOCK:   -4.41 KCAL/MOL
REMARK 922        TOTAL FREE ENERGY PREDICTED BY IDOCK:   -6.99 KCAL/MOL
REMARK 923 INTER-LIGAND FREE ENERGY PREDICTED BY IDOCK:   -6.35 KCAL/MOL
REMARK 924 INTRA-LIGAND FREE ENERGY PREDICTED BY IDOCK:   -0.64 KCAL/MOL
REMARK 927      BINDING AFFINITY PREDICTED BY RF-SCORE:    0.00 PKD
ROOT
HETATM    1  C   UNL     1      -9.783  19.030  68.460  1.00  0.00    -0.400 C  
HETATM    2  N   UNL     1      -9.444  19.080  67.050  1.00  0.00    -0.308 N  
HETATM    3  C   UNL     1      -8.426  20.024  66.620  1.00  0.00    -0.317 C  
ENDROOT
BRANCH   2   4
HETATM    4  C   UNL     1     -10.060  18.146  66.227  1.00  0.00    -0.371 C  
HETATM    5  O   UNL     1     -10.818  18.469  65.315  1.00  0.00    -0.606 OA 
BRANCH   4   6
HETATM    6  N   UNL     1      -9.797  16.842  66.532  1.00  0.00    -0.281 N  
HETATM    7  H   UNL     1      -8.837  16.503  66.458  1.00  0.00     0.000 HD 
BRANCH   6   8
HETATM    8  C   UNL     1     -10.841  15.917  66.960  1.00  0.00    -0.252 C  
HETATM    9  C   UNL     1     -11.207  14.945  65.831  1.00  0.00    -0.328 C  
HETATM   10  C   UNL     1     -10.071  13.967  65.524  1.00  0.00    -0.319 C  
HETATM   11  C   UNL     1      -9.573  13.210  66.769  1.00  0.00    -0.249 C  
HETATM   12  C   UNL     1     -10.392  15.158  68.213  1.00  0.00    -0.231 C  
HETATM   13  C   UNL     1      -9.257  14.176  67.923  1.00  0.00    -0.196 C  
BRANCH  11  14
HETATM   14  C   UNL     1     -10.564  12.127  67.239  1.00  0.00    -0.255 C  
BRANCH  14  15
HETATM   15  C   UNL     1      -9.903  10.887  67.854  1.00  0.00    -0.172 C  
BRANCH  15  16
HETATM   16  N   UNL     1     -10.787   9.715  67.971  1.00  0.00    -0.228 NA 
HETATM   17  C   UNL     1     -10.420   8.621  67.039  1.00  0.00    -0.284 C  
HETATM   18  C   UNL     1      -9.062   7.943  67.337  1.00  0.00    -0.133 C  
HETATM   19  N   UNL     1      -9.018   7.484  68.742  1.00  0.00    -0.130 NA 
HETATM   20  C   UNL     1     -10.731   9.161  69.353  1.00  0.00    -0.198 C  
HETATM   21  C   UNL     1      -9.362   8.533  69.717  1.00  0.00    -0.161 C  
BRANCH  19  22
HETATM   22  C   UNL     1      -8.740   6.161  69.055  1.00  0.00    -0.124 A  
HETATM   23  C   UNL     1      -7.481   5.512  68.925  1.00  0.00    -0.082 A  
HETATM   24  C   UNL     1      -7.337   4.143  69.248  1.00  0.00    -0.054 A  
HETATM   25 CL   UNL     1      -6.028   6.383  68.502  1.00  0.00    -0.020 Cl 
HETATM   26  C   UNL     1      -8.408   3.412  69.760  1.00  0.00    -0.081 A  
HETATM   27 CL   UNL     1      -5.845   3.281  69.047  1.00  0.00    -0.022 Cl 
HETATM   28  C   UNL     1      -9.635   4.028  69.934  1.00  0.00    -0.281 A  
HETATM   29  C   UNL     1      -9.795   5.364  69.564  1.00  0.00    -0.264 A  
ENDBRANCH  19  22
ENDBRANCH  15  16
ENDBRANCH  14  15
ENDBRANCH  11  14
ENDBRANCH   6   8
ENDBRANCH   4   6
ENDBRANCH   2   4
TORSDOF 7
ENDMDL
MODEL      101
REMARK 921   NORMALIZED FREE ENERGY PREDICTED BY IDOCK:   -4.40 KCAL/MOL
REMARK 922        TOTAL FREE ENERGY PREDICTED BY IDOCK:   -6.97 KCAL/MOL
REMARK 923 INTER-LIGAND FREE ENERGY PREDICTED BY IDOCK:   -6.18 KCAL/MOL
REMARK 924 INTRA-LIGAND FREE ENERGY PREDICTED BY IDOCK:   -0.79 KCAL/MOL
REMARK 927      BINDING AFFINITY PREDICTED BY RF-SCORE:    0.00 PKD
ROOT
HETATM    1  C   UNL     1      -9.345   3.038  70.643  1.00  0.00    -0.151 C  
HETATM    2  N   UNL     1      -9.215   4.328  71.292  1.00  0.00    -0.127 N  
HETATM    3  C   UNL     1      -8.032   4.577  72.099  1.00  0.00    -0.100 C  
ENDROOT
BRANCH   2   4
HETATM    4  C   UNL     1     -10.199   5.269  71.013  1.00  0.00    -0.229 C  
HETATM    5  O   UNL     1     -10.978   5.683  71.869  1.00  0.00    -0.250 OA 
BRANCH   4   6
HETATM    6  N   UNL     1     -10.264   5.669  69.710  1.00  0.00    -0.226 N  
HETATM    7  H   UNL     1     -11.054   5.365  69.140  1.00  0.00     0.000 HD 
BRANCH   6   8
HETATM    8  C   UNL     1      -9.242   6.517  69.104  1.00  0.00    -0.135 C  
HETATM    9  C   UNL     1      -9.543   6.762  67.621  1.00  0.00    -0.139 C  
HETATM   10  C   UNL     1     -10.785   7.632  67.423  1.00  0.00    -0.318 C  
HETATM   11  C   UNL     1     -10.724   8.959  68.204  1.00  0.00    -0.148 C  
HETATM   12  C   UNL     1      -9.134   7.840  69.869  1.00  0.00    -0.147 C  
HETATM   13  C   UNL     1     -10.368   8.722  69.681  1.00  0.00    -0.213 C  
BRANCH  11  14
HETATM   14  C   UNL     1      -9.745   9.970  67.576  1.00  0.00    -0.189 C  
BRANCH  14  15
HETATM   15  C   UNL     1     -10.417  11.067  66.741  1.00  0.00    -0.251 C  
BRANCH  15  16
HETATM   16  N   UNL     1      -9.484  11.917  65.981  1.00  0.00    -0.234 NA 
HETATM   17  C   UNL     1     -10.164  13.023  65.264  1.00  0.00    -0.279 C  
HETATM   18  C   UNL     1     -10.796  14.098  66.179  1.00  0.00    -0.296 C  
HETATM   19  N   UNL     1      -9.788  14.618  67.127  1.00  0.00    -0.234 NA 
HETATM   20  C   UNL     1      -8.481  12.529  66.897  1.00  0.00    -0.130 C  
HETATM   21  C   UNL     1      -9.086  13.564  67.880  1.00  0.00    -0.204 C  
BRANCH  19  22
HETATM   22  C   UNL     1      -9.518  15.976  67.212  1.00  0.00    -0.215 A  
HETATM   23  C   UNL     1      -9.909  16.848  68.266  1.00  0.00    -0.266 A  
HETATM   24  C   UNL     1      -9.599  18.226  68.216  1.00  0.00    -0.318 A  
HETATM   25 CL   UNL     1     -10.657  16.257  69.729  1.00  0.00    -0.322 Cl 
HETATM   26  C   UNL     1      -8.850  18.754  67.165  1.00  0.00    -0.288 A  
HETATM   27 CL   UNL     1     -10.106  19.350  69.437  1.00  0.00    -0.290 Cl 
HETATM   28  C   UNL     1      -8.423  17.922  66.145  1.00  0.00    -0.147 A  
HETATM   29  C   UNL     1      -8.775  16.572  66.163  1.00  0.00    -0.335 A  
ENDBRANCH  19  22
ENDBRANCH  15  16
ENDBRANCH  14  15
ENDBRANCH  11  14
ENDBRANCH   6   8
ENDBRANCH   4   6
ENDBRANCH   2   4
TORSDOF 7
ENDMDL
MODEL      102
REMARK 921   NORMALIZED FREE ENERGY PREDICTED BY IDOCK:   -4.37 KCAL/MOL
REMARK 922        TOTAL FREE ENERGY PREDICTED BY IDOCK:   -6.93 KCAL/MOL
REMARK 923 INTER-LIGAND FREE ENERGY PREDICTED BY IDOCK:   -6.30 KCAL/MOL
REMARK 924 INTRA-LIGAND FREE ENERGY PREDICTED BY IDOCK:   -0.63 KCAL/MOL
REMARK 927      BINDING AFFINITY PREDICTED BY RF-SCORE:    0.00 PKD
ROOT
HETATM    1  C   UNL     1      -5.130   6.562  68.556  1.00  0.00    -0.007 C  
HETATM    2  N   UNL     1      -6.551   6.271  68.594  1.00  0.00    -0.053 N  
HETATM    3  C   UNL     1      -7.052   5.425  69.664  1.00  0.00    -0.063 C  
ENDROOT
BRANCH   2   4
HETATM    4  C   UNL     1      -7.344   6.908  67.648  1.00  0.00    -0.096 C  
HETATM    5  O   UNL     1      -7.372   6.560  66.469  1.00  0.00    -0.075 OA 
BRANCH   4   6
HETATM    6  N   UNL     1      -8.058   7.974  68.113  1.00  0.00    -0.127 N  
HETATM    7  H   UNL     1      -8.044   8.179  69.112  1.00  0.00     0.000 HD 
BRANCH   6   8
HETATM    8  C   UNL     1      -8.840   8.831  67.228  1.00  0.00    -0.132 C  
HETATM    9  C   UNL     1     -10.342   8.661  67.490  1.00  0.00    -0.336 C  
HETATM   10  C   UNL     1     -10.754   9.213  68.856  1.00  0.00    -0.167 C  
HETATM   11  C   UNL     1     -10.314  10.673  69.075  1.00  0.00    -0.237 C  
HETATM   12  C   UNL     1      -8.416  10.293  67.400  1.00  0.00    -0.125 C  
HETATM   13  C   UNL     1      -8.820  10.860  68.761  1.00  0.00    -0.162 C  
BRANCH  11  14
HETATM   14  C   UNL     1     -11.158  11.674  68.261  1.00  0.00    -0.287 C  
BRANCH  14  15
HETATM   15  C   UNL     1     -11.758  12.817  69.090  1.00  0.00    -0.322 C  
BRANCH  15  16
HETATM   16  N   UNL     1     -11.941  14.078  68.351  1.00  0.00    -0.357 NA 
HETATM   17  C   UNL     1     -11.905  15.272  69.230  1.00  0.00    -0.329 C  
HETATM   18  C   UNL     1     -10.531  15.558  69.881  1.00  0.00    -0.313 C  
HETATM   19  N   UNL     1      -9.480  15.628  68.844  1.00  0.00    -0.212 NA 
HETATM   20  C   UNL     1     -10.865  14.241  67.334  1.00  0.00    -0.285 C  
HETATM   21  C   UNL     1      -9.457  14.462  67.945  1.00  0.00    -0.214 C  
BRANCH  19  22
HETATM   22  C   UNL     1      -8.661  16.743  68.728  1.00  0.00    -0.255 A  
HETATM   23  C   UNL     1      -9.013  17.989  68.141  1.00  0.00    -0.283 A  
HETATM   24  C   UNL     1      -8.070  19.039  68.054  1.00  0.00    -0.295 A  
HETATM   25 CL   UNL     1     -10.644  18.346  67.629  1.00  0.00    -0.442 Cl 
HETATM   26  C   UNL     1      -6.793  18.900  68.596  1.00  0.00    -0.302 A  
HETATM   27 CL   UNL     1      -8.420  20.557  67.291  1.00  0.00    -0.402 Cl 
HETATM   28  C   UNL     1      -6.436  17.712  69.207  1.00  0.00    -0.240 A  
HETATM   29  C   UNL     1      -7.345  16.654  69.245  1.00  0.00    -0.184 A  
ENDBRANCH  19  22
ENDBRANCH  15  16
ENDBRANCH  14  15
ENDBRANCH  11  14
ENDBRANCH   6   8
ENDBRANCH   4   6
ENDBRANCH   2   4
TORSDOF 7
ENDMDL
MODEL      103
REMARK 921   NORMALIZED FREE ENERGY PREDICTED BY IDOCK:   -4.35 KCAL/MOL
REMARK 922        TOTAL FREE ENERGY PREDICTED BY IDOCK:   -6.90 KCAL/MOL
REMARK 923 INTER-LIGAND FREE ENERGY PREDICTED BY IDOCK:   -6.42 KCAL/MOL
REMARK 924 INTRA-LIGAND FREE ENERGY PREDICTED BY IDOCK:   -0.48 KCAL/MOL
REMARK 927      BINDING AFFINITY PREDICTED BY RF-SCORE:    0.00 PKD
ROOT
HETATM    1  C   UNL     1      -5.727   7.869  69.161  1.00  0.00    -0.030 C  
HETATM    2  N   UNL     1      -6.235   8.881  70.067  1.00  0.00    -0.036 N  
HETATM    3  C   UNL     1      -6.304   8.565  71.484  1.00  0.00    -0.057 C  
ENDROOT
BRANCH   2   4
HETATM    4  C   UNL     1      -6.533  10.120  69.514  1.00  0.00    -0.055 C  
HETATM    5  O   UNL     1      -6.563  11.151  70.183  1.00  0.00    -0.149 OA 
BRANCH   4   6
HETATM    6  N   UNL     1      -6.831  10.104  68.183  1.00  0.00    -0.066 N  
HETATM    7  H   UNL     1      -6.646   9.255  67.647  1.00  0.00     0.000 HD 
BRANCH   6   8
HETATM    8  C   UNL     1      -7.404  11.259  67.499  1.00  0.00    -0.105 C  
HETATM    9  C   UNL     1      -7.344  11.079  65.978  1.00  0.00    -0.025 C  
HETATM   10  C   UNL     1      -8.280   9.971  65.492  1.00  0.00    -0.146 C  
HETATM   11  C   UNL     1      -9.732  10.152  65.973  1.00  0.00    -0.285 C  
HETATM   12  C   UNL     1      -8.845  11.487  67.969  1.00  0.00    -0.158 C  
HETATM   13  C   UNL     1      -9.793  10.387  67.492  1.00  0.00    -0.202 C  
BRANCH  11  14
HETATM   14  C   UNL     1     -10.464  11.287  65.230  1.00  0.00    -0.341 C  
BRANCH  14  15
HETATM   15  C   UNL     1     -11.239  12.245  66.144  1.00  0.00    -0.328 C  
BRANCH  15  16
HETATM   16  N   UNL     1     -11.646  13.507  65.503  1.00  0.00    -0.313 NA 
HETATM   17  C   UNL     1     -12.313  14.442  66.441  1.00  0.00    -0.271 C  
HETATM   18  C   UNL     1     -11.398  15.007  67.554  1.00  0.00    -0.333 C  
HETATM   19  N   UNL     1     -10.191  15.620  66.959  1.00  0.00    -0.268 NA 
HETATM   20  C   UNL     1     -10.456  14.210  64.944  1.00  0.00    -0.438 C  
HETATM   21  C   UNL     1      -9.477  14.733  66.026  1.00  0.00    -0.264 C  
BRANCH  19  22
HETATM   22  C   UNL     1      -9.844  16.935  67.236  1.00  0.00    -0.265 A  
HETATM   23  C   UNL     1      -8.732  17.367  68.011  1.00  0.00    -0.241 A  
HETATM   24  C   UNL     1      -8.508  18.742  68.249  1.00  0.00    -0.327 A  
HETATM   25 CL   UNL     1      -7.516  16.255  68.588  1.00  0.00    -0.173 Cl 
HETATM   26  C   UNL     1      -9.334  19.711  67.679  1.00  0.00    -0.430 A  
HETATM   27 CL   UNL     1      -7.210  19.327  69.239  1.00  0.00    -0.351 Cl 
HETATM   28  C   UNL     1     -10.401  19.320  66.889  1.00  0.00    -0.524 A  
HETATM   29  C   UNL     1     -10.658  17.962  66.698  1.00  0.00    -0.243 A  
ENDBRANCH  19  22
ENDBRANCH  15  16
ENDBRANCH  14  15
ENDBRANCH  11  14
ENDBRANCH   6   8
ENDBRANCH   4   6
ENDBRANCH   2   4
TORSDOF 7
ENDMDL
MODEL      104
REMARK 921   NORMALIZED FREE ENERGY PREDICTED BY IDOCK:   -4.34 KCAL/MOL
REMARK 922        TOTAL FREE ENERGY PREDICTED BY IDOCK:   -6.89 KCAL/MOL
REMARK 923 INTER-LIGAND FREE ENERGY PREDICTED BY IDOCK:   -6.27 KCAL/MOL
REMARK 924 INTRA-LIGAND FREE ENERGY PREDICTED BY IDOCK:   -0.62 KCAL/MOL
REMARK 927      BINDING AFFINITY PREDICTED BY RF-SCORE:    0.00 PKD
ROOT
HETATM    1  C   UNL     1     -12.391  15.312  64.063  1.00  0.00     0.071 C  
HETATM    2  N   UNL     1     -11.619  14.186  64.553  1.00  0.00    -0.391 N  
HETATM    3  C   UNL     1     -12.068  12.845  64.217  1.00  0.00    -0.419 C  
ENDROOT
BRANCH   2   4
HETATM    4  C   UNL     1     -10.446  14.483  65.234  1.00  0.00    -0.390 C  
HETATM    5  O   UNL     1     -10.039  15.634  65.378  1.00  0.00    -0.355 OA 
BRANCH   4   6
HETATM    6  N   UNL     1      -9.755  13.401  65.698  1.00  0.00    -0.481 N  
HETATM    7  H   UNL     1      -9.483  12.671  65.039  1.00  0.00     0.000 HD 
BRANCH   6   8
HETATM    8  C   UNL     1      -9.394  13.253  67.104  1.00  0.00    -0.240 C  
HETATM    9  C   UNL     1     -10.636  13.332  67.999  1.00  0.00    -0.249 C  
HETATM   10  C   UNL     1     -11.556  12.123  67.815  1.00  0.00    -0.410 C  
HETATM   11  C   UNL     1     -10.828  10.778  67.993  1.00  0.00    -0.302 C  
HETATM   12  C   UNL     1      -8.645  11.933  67.319  1.00  0.00    -0.170 C  
HETATM   13  C   UNL     1      -9.551  10.715  67.138  1.00  0.00    -0.189 C  
BRANCH  11  14
HETATM   14  C   UNL     1     -10.496  10.475  69.468  1.00  0.00    -0.265 C  
BRANCH  14  15
HETATM   15  C   UNL     1     -10.987   9.108  69.959  1.00  0.00    -0.220 C  
BRANCH  15  16
HETATM   16  N   UNL     1     -10.414   7.957  69.240  1.00  0.00    -0.221 NA 
HETATM   17  C   UNL     1      -9.026   7.648  69.659  1.00  0.00    -0.140 C  
HETATM   18  C   UNL     1      -8.884   7.134  71.111  1.00  0.00    -0.144 C  
HETATM   19  N   UNL     1      -9.777   5.977  71.332  1.00  0.00    -0.164 NA 
HETATM   20  C   UNL     1     -11.235   6.737  69.483  1.00  0.00    -0.266 C  
HETATM   21  C   UNL     1     -11.176   6.227  70.946  1.00  0.00    -0.324 C  
BRANCH  19  22
HETATM   22  C   UNL     1      -9.281   4.768  71.798  1.00  0.00    -0.138 A  
HETATM   23  C   UNL     1      -9.890   3.926  72.769  1.00  0.00    -0.145 A  
HETATM   24  C   UNL     1      -9.261   2.730  73.186  1.00  0.00    -0.089 A  
HETATM   25 CL   UNL     1     -11.492   4.236  73.392  1.00  0.00    -0.336 Cl 
HETATM   26  C   UNL     1      -8.060   2.316  72.610  1.00  0.00    -0.054 A  
HETATM   27 CL   UNL     1      -9.922   1.697  74.413  1.00  0.00    -0.117 Cl 
HETATM   28  C   UNL     1      -7.464   3.095  71.636  1.00  0.00    -0.047 A  
HETATM   29  C   UNL     1      -8.053   4.304  71.262  1.00  0.00    -0.081 A  
ENDBRANCH  19  22
ENDBRANCH  15  16
ENDBRANCH  14  15
ENDBRANCH  11  14
ENDBRANCH   6   8
ENDBRANCH   4   6
ENDBRANCH   2   4
TORSDOF 7
ENDMDL
MODEL      105
REMARK 921   NORMALIZED FREE ENERGY PREDICTED BY IDOCK:   -4.32 KCAL/MOL
REMARK 922        TOTAL FREE ENERGY PREDICTED BY IDOCK:   -6.86 KCAL/MOL
REMARK 923 INTER-LIGAND FREE ENERGY PREDICTED BY IDOCK:   -5.97 KCAL/MOL
REMARK 924 INTRA-LIGAND FREE ENERGY PREDICTED BY IDOCK:   -0.89 KCAL/MOL
REMARK 927      BINDING AFFINITY PREDICTED BY RF-SCORE:    0.00 PKD
ROOT
HETATM    1  C   UNL     1     -12.722  14.005  65.654  1.00  0.00    -0.481 C  
HETATM    2  N   UNL     1     -11.312  14.031  65.994  1.00  0.00    -0.322 N  
HETATM    3  C   UNL     1     -10.805  15.171  66.740  1.00  0.00    -0.322 C  
ENDROOT
BRANCH   2   4
HETATM    4  C   UNL     1     -10.568  12.908  65.656  1.00  0.00    -0.277 C  
HETATM    5  O   UNL     1     -10.346  12.589  64.490  1.00  0.00    -0.313 OA 
BRANCH   4   6
HETATM    6  N   UNL     1     -10.137  12.160  66.713  1.00  0.00    -0.199 N  
HETATM    7  H   UNL     1      -9.397  12.531  67.310  1.00  0.00     0.000 HD 
BRANCH   6   8
HETATM    8  C   UNL     1     -10.698  10.848  67.019  1.00  0.00    -0.271 C  
HETATM    9  C   UNL     1      -9.704  10.002  67.825  1.00  0.00    -0.174 C  
HETATM   10  C   UNL     1      -9.492  10.554  69.236  1.00  0.00    -0.191 C  
HETATM   11  C   UNL     1     -10.808  10.753  70.010  1.00  0.00    -0.218 C  
HETATM   12  C   UNL     1     -12.023  11.004  67.771  1.00  0.00     0.211 C  
HETATM   13  C   UNL     1     -11.828  11.554  69.184  1.00  0.00    -0.406 C  
BRANCH  11  14
HETATM   14  C   UNL     1     -11.429   9.421  70.475  1.00  0.00    -0.317 C  
BRANCH  14  15
HETATM   15  C   UNL     1     -10.461   8.501  71.230  1.00  0.00    -0.225 C  
BRANCH  15  16
HETATM   16  N   UNL     1     -10.853   7.081  71.247  1.00  0.00    -0.232 NA 
HETATM   17  C   UNL     1     -11.641   6.686  70.055  1.00  0.00    -0.362 C  
HETATM   18  C   UNL     1     -10.860   6.717  68.720  1.00  0.00    -0.267 C  
HETATM   19  N   UNL     1      -9.625   5.911  68.834  1.00  0.00    -0.129 NA 
HETATM   20  C   UNL     1      -9.643   6.213  71.289  1.00  0.00    -0.171 C  
HETATM   21  C   UNL     1      -8.792   6.267  69.995  1.00  0.00    -0.142 C  
BRANCH  19  22
HETATM   22  C   UNL     1      -9.356   4.882  67.942  1.00  0.00    -0.128 A  
HETATM   23  C   UNL     1      -8.945   5.027  66.588  1.00  0.00    -0.114 A  
HETATM   24  C   UNL     1      -8.736   3.892  65.771  1.00  0.00    -0.114 A  
HETATM   25 CL   UNL     1      -8.540   6.581  65.903  1.00  0.00    -0.147 Cl 
HETATM   26  C   UNL     1      -8.867   2.604  66.289  1.00  0.00    -0.136 A  
HETATM   27 CL   UNL     1      -8.298   4.006  64.096  1.00  0.00    -0.091 Cl 
HETATM   28  C   UNL     1      -9.229   2.433  67.613  1.00  0.00    -0.218 A  
HETATM   29  C   UNL     1      -9.491   3.550  68.407  1.00  0.00    -0.209 A  
ENDBRANCH  19  22
ENDBRANCH  15  16
ENDBRANCH  14  15
ENDBRANCH  11  14
ENDBRANCH   6   8
ENDBRANCH   4   6
ENDBRANCH   2   4
TORSDOF 7
ENDMDL
MODEL      106
REMARK 921   NORMALIZED FREE ENERGY PREDICTED BY IDOCK:   -4.32 KCAL/MOL
REMARK 922        TOTAL FREE ENERGY PREDICTED BY IDOCK:   -6.86 KCAL/MOL
REMARK 923 INTER-LIGAND FREE ENERGY PREDICTED BY IDOCK:   -6.16 KCAL/MOL
REMARK 924 INTRA-LIGAND FREE ENERGY PREDICTED BY IDOCK:   -0.69 KCAL/MOL
REMARK 927      BINDING AFFINITY PREDICTED BY RF-SCORE:    0.00 PKD
ROOT
HETATM    1  C   UNL     1      -7.198   6.280  70.473  1.00  0.00    -0.080 C  
HETATM    2  N   UNL     1      -8.511   6.666  69.992  1.00  0.00    -0.138 N  
HETATM    3  C   UNL     1      -9.552   6.933  70.970  1.00  0.00    -0.170 C  
ENDROOT
BRANCH   2   4
HETATM    4  C   UNL     1      -8.645   6.842  68.621  1.00  0.00    -0.123 C  
HETATM    5  O   UNL     1      -9.142   5.987  67.891  1.00  0.00    -0.119 OA 
BRANCH   4   6
HETATM    6  N   UNL     1      -8.148   8.017  68.136  1.00  0.00    -0.127 N  
HETATM    7  H   UNL     1      -7.275   8.379  68.521  1.00  0.00     0.000 HD 
BRANCH   6   8
HETATM    8  C   UNL     1      -8.822   8.773  67.086  1.00  0.00    -0.127 C  
HETATM    9  C   UNL     1     -10.185   9.285  67.569  1.00  0.00    -0.300 C  
HETATM   10  C   UNL     1     -10.045  10.361  68.647  1.00  0.00    -0.188 C  
HETATM   11  C   UNL     1      -9.133  11.527  68.222  1.00  0.00    -0.185 C  
HETATM   12  C   UNL     1      -7.935   9.932  66.619  1.00  0.00    -0.113 C  
HETATM   13  C   UNL     1      -7.786  11.016  67.685  1.00  0.00    -0.112 C  
BRANCH  11  14
HETATM   14  C   UNL     1      -9.801  12.454  67.187  1.00  0.00    -0.206 C  
BRANCH  14  15
HETATM   15  C   UNL     1     -10.638  13.585  67.798  1.00  0.00    -0.246 C  
BRANCH  15  16
HETATM   16  N   UNL     1     -10.857  14.736  66.904  1.00  0.00    -0.309 NA 
HETATM   17  C   UNL     1     -11.272  15.960  67.630  1.00  0.00    -0.219 C  
HETATM   18  C   UNL     1     -10.190  16.563  68.558  1.00  0.00    -0.266 C  
HETATM   19  N   UNL     1      -8.940  16.790  67.802  1.00  0.00    -0.214 NA 
HETATM   20  C   UNL     1      -9.605  15.060  66.164  1.00  0.00    -0.314 C  
HETATM   21  C   UNL     1      -8.469  15.603  67.068  1.00  0.00    -0.226 C  
BRANCH  19  22
HETATM   22  C   UNL     1      -8.341  18.042  67.766  1.00  0.00    -0.249 A  
HETATM   23  C   UNL     1      -7.257  18.480  68.576  1.00  0.00    -0.288 A  
HETATM   24  C   UNL     1      -6.759  19.799  68.465  1.00  0.00    -0.295 A  
HETATM   25 CL   UNL     1      -6.394  17.395  69.638  1.00  0.00    -0.236 Cl 
HETATM   26  C   UNL     1      -7.277  20.681  67.517  1.00  0.00    -0.382 A  
HETATM   27 CL   UNL     1      -5.485  20.412  69.470  1.00  0.00    -0.320 Cl 
HETATM   28  C   UNL     1      -8.306  20.269  66.689  1.00  0.00    -0.295 A  
HETATM   29  C   UNL     1      -8.837  18.987  66.834  1.00  0.00    -0.314 A  
ENDBRANCH  19  22
ENDBRANCH  15  16
ENDBRANCH  14  15
ENDBRANCH  11  14
ENDBRANCH   6   8
ENDBRANCH   4   6
ENDBRANCH   2   4
TORSDOF 7
ENDMDL
MODEL      107
REMARK 921   NORMALIZED FREE ENERGY PREDICTED BY IDOCK:   -4.32 KCAL/MOL
REMARK 922        TOTAL FREE ENERGY PREDICTED BY IDOCK:   -6.86 KCAL/MOL
REMARK 923 INTER-LIGAND FREE ENERGY PREDICTED BY IDOCK:   -6.64 KCAL/MOL
REMARK 924 INTRA-LIGAND FREE ENERGY PREDICTED BY IDOCK:   -0.22 KCAL/MOL
REMARK 927      BINDING AFFINITY PREDICTED BY RF-SCORE:    0.00 PKD
ROOT
HETATM    1  C   UNL     1      -9.611   4.548  68.417  1.00  0.00    -0.145 C  
HETATM    2  N   UNL     1      -8.960   4.858  69.676  1.00  0.00    -0.096 N  
HETATM    3  C   UNL     1      -8.519   3.755  70.513  1.00  0.00    -0.068 C  
ENDROOT
BRANCH   2   4
HETATM    4  C   UNL     1      -8.726   6.201  69.943  1.00  0.00    -0.136 C  
HETATM    5  O   UNL     1      -7.699   6.775  69.586  1.00  0.00    -0.105 OA 
BRANCH   4   6
HETATM    6  N   UNL     1      -9.699   6.826  70.666  1.00  0.00    -0.172 N  
HETATM    7  H   UNL     1      -9.567   6.946  71.671  1.00  0.00     0.000 HD 
BRANCH   6   8
HETATM    8  C   UNL     1     -10.924   7.329  70.051  1.00  0.00    -0.253 C  
HETATM    9  C   UNL     1     -11.710   8.205  71.034  1.00  0.00    -0.295 C  
HETATM   10  C   UNL     1     -10.987   9.518  71.339  1.00  0.00    -0.415 C  
HETATM   11  C   UNL     1     -10.608  10.308  70.072  1.00  0.00    -0.321 C  
HETATM   12  C   UNL     1     -10.590   8.104  68.771  1.00  0.00    -0.149 C  
HETATM   13  C   UNL     1      -9.867   9.419  69.060  1.00  0.00    -0.171 C  
BRANCH  11  14
HETATM   14  C   UNL     1     -11.827  10.974  69.404  1.00  0.00    -0.407 C  
BRANCH  14  15
HETATM   15  C   UNL     1     -11.614  12.443  69.018  1.00  0.00    -0.311 C  
BRANCH  15  16
HETATM   16  N   UNL     1     -10.955  12.644  67.715  1.00  0.00    -0.225 NA 
HETATM   17  C   UNL     1     -11.439  13.853  67.005  1.00  0.00    -0.346 C  
HETATM   18  C   UNL     1     -11.073  15.194  67.684  1.00  0.00    -0.318 C  
HETATM   19  N   UNL     1      -9.616  15.264  67.922  1.00  0.00    -0.199 NA 
HETATM   20  C   UNL     1      -9.484  12.794  67.898  1.00  0.00    -0.208 C  
HETATM   21  C   UNL     1      -9.077  14.095  68.637  1.00  0.00    -0.138 C  
BRANCH  19  22
HETATM   22  C   UNL     1      -8.860  16.323  67.438  1.00  0.00    -0.186 A  
HETATM   23  C   UNL     1      -9.225  17.698  67.464  1.00  0.00    -0.243 A  
HETATM   24  C   UNL     1      -8.376  18.680  66.903  1.00  0.00    -0.264 A  
HETATM   25 CL   UNL     1     -10.648  18.265  68.300  1.00  0.00    -0.313 Cl 
HETATM   26  C   UNL     1      -7.135  18.333  66.369  1.00  0.00    -0.271 A  
HETATM   27 CL   UNL     1      -8.794  20.363  66.845  1.00  0.00    -0.388 Cl 
HETATM   28  C   UNL     1      -6.739  17.008  66.366  1.00  0.00    -0.222 A  
HETATM   29  C   UNL     1      -7.597  16.029  66.867  1.00  0.00    -0.268 A  
ENDBRANCH  19  22
ENDBRANCH  15  16
ENDBRANCH  14  15
ENDBRANCH  11  14
ENDBRANCH   6   8
ENDBRANCH   4   6
ENDBRANCH   2   4
TORSDOF 7
ENDMDL
MODEL      108
REMARK 921   NORMALIZED FREE ENERGY PREDICTED BY IDOCK:   -4.31 KCAL/MOL
REMARK 922        TOTAL FREE ENERGY PREDICTED BY IDOCK:   -6.85 KCAL/MOL
REMARK 923 INTER-LIGAND FREE ENERGY PREDICTED BY IDOCK:   -5.93 KCAL/MOL
REMARK 924 INTRA-LIGAND FREE ENERGY PREDICTED BY IDOCK:   -0.92 KCAL/MOL
REMARK 927      BINDING AFFINITY PREDICTED BY RF-SCORE:    0.00 PKD
ROOT
HETATM    1  C   UNL     1     -11.895  14.268  66.730  1.00  0.00    -0.426 C  
HETATM    2  N   UNL     1     -10.721  14.299  67.582  1.00  0.00    -0.256 N  
HETATM    3  C   UNL     1     -10.442  15.516  68.327  1.00  0.00    -0.242 C  
ENDROOT
BRANCH   2   4
HETATM    4  C   UNL     1      -9.998  13.118  67.691  1.00  0.00    -0.219 C  
HETATM    5  O   UNL     1      -9.138  12.793  66.875  1.00  0.00    -0.213 OA 
BRANCH   4   6
HETATM    6  N   UNL     1     -10.342  12.324  68.747  1.00  0.00    -0.373 N  
HETATM    7  H   UNL     1     -10.184  12.668  69.694  1.00  0.00     0.000 HD 
BRANCH   6   8
HETATM    8  C   UNL     1     -10.928  11.000  68.566  1.00  0.00    -0.228 C  
HETATM    9  C   UNL     1      -9.876   9.904  68.771  1.00  0.00    -0.177 C  
HETATM   10  C   UNL     1      -9.417   9.813  70.228  1.00  0.00    -0.250 C  
HETATM   11  C   UNL     1     -10.584   9.655  71.220  1.00  0.00    -0.269 C  
HETATM   12  C   UNL     1     -12.110  10.812  69.522  1.00  0.00    -0.344 C  
HETATM   13  C   UNL     1     -11.669  10.720  70.982  1.00  0.00    -0.242 C  
BRANCH  11  14
HETATM   14  C   UNL     1     -11.206   8.245  71.183  1.00  0.00    -0.296 C  
BRANCH  14  15
HETATM   15  C   UNL     1     -10.183   7.104  71.119  1.00  0.00    -0.191 C  
BRANCH  15  16
HETATM   16  N   UNL     1     -10.689   5.862  70.509  1.00  0.00    -0.275 NA 
HETATM   17  C   UNL     1     -11.377   6.093  69.216  1.00  0.00    -0.291 C  
HETATM   18  C   UNL     1     -10.459   6.582  68.071  1.00  0.00    -0.216 C  
HETATM   19  N   UNL     1      -9.313   5.662  67.908  1.00  0.00    -0.106 NA 
HETATM   20  C   UNL     1      -9.564   4.918  70.254  1.00  0.00    -0.195 C  
HETATM   21  C   UNL     1      -8.580   5.403  69.159  1.00  0.00    -0.102 C  
BRANCH  19  22
HETATM   22  C   UNL     1      -9.036   5.072  66.682  1.00  0.00    -0.114 A  
HETATM   23  C   UNL     1      -8.522   5.727  65.529  1.00  0.00    -0.150 A  
HETATM   24  C   UNL     1      -8.316   5.015  64.325  1.00  0.00    -0.136 A  
HETATM   25 CL   UNL     1      -7.989   7.389  65.567  1.00  0.00    -0.115 Cl 
HETATM   26  C   UNL     1      -8.551   3.642  64.257  1.00  0.00    -0.094 A  
HETATM   27 CL   UNL     1      -7.755   5.771  62.868  1.00  0.00    -0.081 Cl 
HETATM   28  C   UNL     1      -9.014   2.971  65.375  1.00  0.00    -0.143 A  
HETATM   29  C   UNL     1      -9.273   3.681  66.548  1.00  0.00    -0.183 A  
ENDBRANCH  19  22
ENDBRANCH  15  16
ENDBRANCH  14  15
ENDBRANCH  11  14
ENDBRANCH   6   8
ENDBRANCH   4   6
ENDBRANCH   2   4
TORSDOF 7
ENDMDL
MODEL      109
REMARK 921   NORMALIZED FREE ENERGY PREDICTED BY IDOCK:   -4.29 KCAL/MOL
REMARK 922        TOTAL FREE ENERGY PREDICTED BY IDOCK:   -6.82 KCAL/MOL
REMARK 923 INTER-LIGAND FREE ENERGY PREDICTED BY IDOCK:   -6.50 KCAL/MOL
REMARK 924 INTRA-LIGAND FREE ENERGY PREDICTED BY IDOCK:   -0.33 KCAL/MOL
REMARK 927      BINDING AFFINITY PREDICTED BY RF-SCORE:    0.00 PKD
ROOT
HETATM    1  C   UNL     1      -8.922   2.484  72.445  1.00  0.00    -0.078 C  
HETATM    2  N   UNL     1     -10.177   2.663  73.151  1.00  0.00    -0.123 N  
HETATM    3  C   UNL     1     -10.879   1.479  73.618  1.00  0.00    -0.125 C  
ENDROOT
BRANCH   2   4
HETATM    4  C   UNL     1     -10.566   3.971  73.409  1.00  0.00    -0.195 C  
HETATM    5  O   UNL     1     -10.815   4.374  74.543  1.00  0.00    -0.291 OA 
BRANCH   4   6
HETATM    6  N   UNL     1     -10.694   4.766  72.306  1.00  0.00    -0.161 N  
HETATM    7  H   UNL     1     -11.381   4.515  71.595  1.00  0.00     0.000 HD 
BRANCH   6   8
HETATM    8  C   UNL     1      -9.880   5.961  72.111  1.00  0.00    -0.162 C  
HETATM    9  C   UNL     1      -9.685   6.253  70.619  1.00  0.00    -0.199 C  
HETATM   10  C   UNL     1     -10.987   6.684  69.942  1.00  0.00    -0.373 C  
HETATM   11  C   UNL     1     -11.675   7.865  70.653  1.00  0.00    -0.169 C  
HETATM   12  C   UNL     1     -10.520   7.156  72.825  1.00  0.00    -0.278 C  
HETATM   13  C   UNL     1     -11.823   7.600  72.161  1.00  0.00    -0.352 C  
BRANCH  11  14
HETATM   14  C   UNL     1     -10.947   9.203  70.417  1.00  0.00    -0.290 C  
BRANCH  14  15
HETATM   15  C   UNL     1      -9.991   9.200  69.217  1.00  0.00    -0.187 C  
BRANCH  15  16
HETATM   16  N   UNL     1     -10.573   9.726  67.970  1.00  0.00    -0.230 NA 
HETATM   17  C   UNL     1     -11.598  10.771  68.207  1.00  0.00    -0.221 C  
HETATM   18  C   UNL     1     -11.054  12.089  68.808  1.00  0.00    -0.249 C  
HETATM   19  N   UNL     1      -9.947  12.608  67.978  1.00  0.00    -0.214 NA 
HETATM   20  C   UNL     1      -9.510  10.330  67.119  1.00  0.00    -0.158 C  
HETATM   21  C   UNL     1      -8.888  11.617  67.718  1.00  0.00    -0.159 C  
BRANCH  19  22
HETATM   22  C   UNL     1      -9.980  13.896  67.461  1.00  0.00    -0.240 A  
HETATM   23  C   UNL     1     -10.727  14.330  66.331  1.00  0.00    -0.297 A  
HETATM   24  C   UNL     1     -10.647  15.669  65.884  1.00  0.00    -0.343 A  
HETATM   25 CL   UNL     1     -11.878  13.294  65.525  1.00  0.00    -0.379 Cl 
HETATM   26  C   UNL     1      -9.885  16.610  66.576  1.00  0.00    -0.295 A  
HETATM   27 CL   UNL     1     -11.480  16.242  64.474  1.00  0.00    -0.338 Cl 
HETATM   28  C   UNL     1      -9.179  16.224  67.701  1.00  0.00    -0.206 A  
HETATM   29  C   UNL     1      -9.211  14.892  68.113  1.00  0.00    -0.186 A  
ENDBRANCH  19  22
ENDBRANCH  15  16
ENDBRANCH  14  15
ENDBRANCH  11  14
ENDBRANCH   6   8
ENDBRANCH   4   6
ENDBRANCH   2   4
TORSDOF 7
ENDMDL
MODEL      110
REMARK 921   NORMALIZED FREE ENERGY PREDICTED BY IDOCK:   -4.28 KCAL/MOL
REMARK 922        TOTAL FREE ENERGY PREDICTED BY IDOCK:   -6.81 KCAL/MOL
REMARK 923 INTER-LIGAND FREE ENERGY PREDICTED BY IDOCK:   -6.27 KCAL/MOL
REMARK 924 INTRA-LIGAND FREE ENERGY PREDICTED BY IDOCK:   -0.53 KCAL/MOL
REMARK 927      BINDING AFFINITY PREDICTED BY RF-SCORE:    0.00 PKD
ROOT
HETATM    1  C   UNL     1     -12.852  14.135  65.112  1.00  0.00    -0.294 C  
HETATM    2  N   UNL     1     -11.730  14.205  66.028  1.00  0.00    -0.368 N  
HETATM    3  C   UNL     1     -11.980  13.980  67.442  1.00  0.00    -0.404 C  
ENDROOT
BRANCH   2   4
HETATM    4  C   UNL     1     -10.475  14.394  65.464  1.00  0.00    -0.350 C  
HETATM    5  O   UNL     1      -9.979  15.509  65.316  1.00  0.00    -0.320 OA 
BRANCH   4   6
HETATM    6  N   UNL     1      -9.850  13.255  65.047  1.00  0.00    -0.559 N  
HETATM    7  H   UNL     1      -9.012  13.335  64.471  1.00  0.00     0.000 HD 
BRANCH   6   8
HETATM    8  C   UNL     1     -10.342  11.926  65.396  1.00  0.00    -0.267 C  
HETATM    9  C   UNL     1     -10.469  11.044  64.149  1.00  0.00    -0.434 C  
HETATM   10  C   UNL     1      -9.106  10.693  63.550  1.00  0.00    -0.252 C  
HETATM   11  C   UNL     1      -8.140  10.069  64.575  1.00  0.00    -0.156 C  
HETATM   12  C   UNL     1      -9.417  11.279  66.433  1.00  0.00    -0.221 C  
HETATM   13  C   UNL     1      -8.050  10.922  65.851  1.00  0.00    -0.120 C  
BRANCH  11  14
HETATM   14  C   UNL     1      -8.513   8.616  64.931  1.00  0.00    -0.180 C  
BRANCH  14  15
HETATM   15  C   UNL     1      -7.636   7.987  66.021  1.00  0.00    -0.085 C  
BRANCH  15  16
HETATM   16  N   UNL     1      -7.978   6.593  66.353  1.00  0.00    -0.104 NA 
HETATM   17  C   UNL     1      -7.079   6.007  67.377  1.00  0.00    -0.074 C  
HETATM   18  C   UNL     1      -7.199   6.639  68.784  1.00  0.00    -0.085 C  
HETATM   19  N   UNL     1      -8.607   6.615  69.235  1.00  0.00    -0.131 NA 
HETATM   20  C   UNL     1      -9.368   6.515  66.883  1.00  0.00    -0.146 C  
HETATM   21  C   UNL     1      -9.548   7.197  68.264  1.00  0.00    -0.136 C  
BRANCH  19  22
HETATM   22  C   UNL     1      -8.964   6.028  70.441  1.00  0.00    -0.149 A  
HETATM   23  C   UNL     1      -9.305   6.711  71.641  1.00  0.00    -0.149 A  
HETATM   24  C   UNL     1      -9.618   5.991  72.817  1.00  0.00    -0.155 A  
HETATM   25 CL   UNL     1      -9.496   8.445  71.700  1.00  0.00    -0.254 Cl 
HETATM   26  C   UNL     1      -9.660   4.597  72.813  1.00  0.00    -0.164 A  
HETATM   27 CL   UNL     1      -9.978   6.766  74.327  1.00  0.00    -0.361 Cl 
HETATM   28  C   UNL     1      -9.370   3.908  71.650  1.00  0.00    -0.202 A  
HETATM   29  C   UNL     1      -9.006   4.613  70.502  1.00  0.00    -0.155 A  
ENDBRANCH  19  22
ENDBRANCH  15  16
ENDBRANCH  14  15
ENDBRANCH  11  14
ENDBRANCH   6   8
ENDBRANCH   4   6
ENDBRANCH   2   4
TORSDOF 7
ENDMDL
MODEL      111
REMARK 921   NORMALIZED FREE ENERGY PREDICTED BY IDOCK:   -4.28 KCAL/MOL
REMARK 922        TOTAL FREE ENERGY PREDICTED BY IDOCK:   -6.81 KCAL/MOL
REMARK 923 INTER-LIGAND FREE ENERGY PREDICTED BY IDOCK:   -6.25 KCAL/MOL
REMARK 924 INTRA-LIGAND FREE ENERGY PREDICTED BY IDOCK:   -0.56 KCAL/MOL
REMARK 927      BINDING AFFINITY PREDICTED BY RF-SCORE:    0.00 PKD
ROOT
HETATM    1  C   UNL     1      -8.122   5.704  65.829  1.00  0.00    -0.114 C  
HETATM    2  N   UNL     1      -8.830   6.006  67.058  1.00  0.00    -0.113 N  
HETATM    3  C   UNL     1     -10.268   5.790  67.095  1.00  0.00    -0.207 C  
ENDROOT
BRANCH   2   4
HETATM    4  C   UNL     1      -8.058   6.394  68.145  1.00  0.00    -0.113 C  
HETATM    5  O   UNL     1      -6.838   6.246  68.174  1.00  0.00    -0.065 OA 
BRANCH   4   6
HETATM    6  N   UNL     1      -8.756   6.913  69.196  1.00  0.00    -0.135 N  
HETATM    7  H   UNL     1      -9.397   6.308  69.710  1.00  0.00     0.000 HD 
BRANCH   6   8
HETATM    8  C   UNL     1      -8.617   8.306  69.610  1.00  0.00    -0.129 C  
HETATM    9  C   UNL     1      -8.487   9.228  68.393  1.00  0.00    -0.120 C  
HETATM   10  C   UNL     1      -9.784   9.302  67.585  1.00  0.00    -0.195 C  
HETATM   11  C   UNL     1     -11.007   9.682  68.441  1.00  0.00    -0.161 C  
HETATM   12  C   UNL     1      -9.806   8.716  70.485  1.00  0.00    -0.210 C  
HETATM   13  C   UNL     1     -11.111   8.794  69.693  1.00  0.00    -0.038 C  
BRANCH  11  14
HETATM   14  C   UNL     1     -11.009  11.170  68.843  1.00  0.00    -0.276 C  
BRANCH  14  15
HETATM   15  C   UNL     1     -10.161  12.071  67.936  1.00  0.00    -0.196 C  
BRANCH  15  16
HETATM   16  N   UNL     1     -10.939  12.950  67.045  1.00  0.00    -0.257 NA 
HETATM   17  C   UNL     1     -11.810  13.896  67.784  1.00  0.00    -0.380 C  
HETATM   18  C   UNL     1     -11.054  14.969  68.602  1.00  0.00    -0.264 C  
HETATM   19  N   UNL     1     -10.098  15.691  67.736  1.00  0.00    -0.225 NA 
HETATM   20  C   UNL     1     -10.024  13.760  66.192  1.00  0.00    -0.308 C  
HETATM   21  C   UNL     1      -9.195  14.804  66.984  1.00  0.00    -0.233 C  
BRANCH  19  22
HETATM   22  C   UNL     1     -10.134  17.074  67.626  1.00  0.00    -0.298 A  
HETATM   23  C   UNL     1     -10.522  17.818  66.477  1.00  0.00    -0.297 A  
HETATM   24  C   UNL     1     -10.481  19.231  66.484  1.00  0.00    -0.462 A  
HETATM   25 CL   UNL     1     -11.197  17.052  65.061  1.00  0.00    -0.013 Cl 
HETATM   26  C   UNL     1     -10.119  19.931  67.635  1.00  0.00    -0.564 A  
HETATM   27 CL   UNL     1     -10.877  20.191  65.094  1.00  0.00    -0.054 Cl 
HETATM   28  C   UNL     1      -9.775  19.234  68.779  1.00  0.00    -0.510 A  
HETATM   29  C   UNL     1      -9.760  17.839  68.759  1.00  0.00    -0.314 A  
ENDBRANCH  19  22
ENDBRANCH  15  16
ENDBRANCH  14  15
ENDBRANCH  11  14
ENDBRANCH   6   8
ENDBRANCH   4   6
ENDBRANCH   2   4
TORSDOF 7
ENDMDL
MODEL      112
REMARK 921   NORMALIZED FREE ENERGY PREDICTED BY IDOCK:   -4.28 KCAL/MOL
REMARK 922        TOTAL FREE ENERGY PREDICTED BY IDOCK:   -6.80 KCAL/MOL
REMARK 923 INTER-LIGAND FREE ENERGY PREDICTED BY IDOCK:   -6.33 KCAL/MOL
REMARK 924 INTRA-LIGAND FREE ENERGY PREDICTED BY IDOCK:   -0.47 KCAL/MOL
REMARK 927      BINDING AFFINITY PREDICTED BY RF-SCORE:    0.00 PKD
ROOT
HETATM    1  C   UNL     1     -10.365  16.505  65.832  1.00  0.00    -0.350 C  
HETATM    2  N   UNL     1     -11.039  15.831  66.925  1.00  0.00    -0.204 N  
HETATM    3  C   UNL     1     -11.279  16.576  68.150  1.00  0.00    -0.241 C  
ENDROOT
BRANCH   2   4
HETATM    4  C   UNL     1     -11.489  14.540  66.680  1.00  0.00    -0.366 C  
HETATM    5  O   UNL     1     -12.652  14.295  66.368  1.00  0.00    -0.396 OA 
BRANCH   4   6
HETATM    6  N   UNL     1     -10.556  13.559  66.852  1.00  0.00    -0.269 N  
HETATM    7  H   UNL     1     -10.223  13.047  66.035  1.00  0.00     0.000 HD 
BRANCH   6   8
HETATM    8  C   UNL     1     -10.019  13.218  68.166  1.00  0.00    -0.234 C  
HETATM    9  C   UNL     1     -11.149  12.923  69.159  1.00  0.00    -0.245 C  
HETATM   10  C   UNL     1     -11.894  11.632  68.815  1.00  0.00    -0.387 C  
HETATM   11  C   UNL     1     -10.959  10.418  68.661  1.00  0.00    -0.288 C  
HETATM   12  C   UNL     1      -9.063  12.025  68.051  1.00  0.00    -0.188 C  
HETATM   13  C   UNL     1      -9.793  10.727  67.707  1.00  0.00    -0.186 C  
BRANCH  11  14
HETATM   14  C   UNL     1     -10.420   9.910  70.013  1.00  0.00    -0.331 C  
BRANCH  14  15
HETATM   15  C   UNL     1     -11.501   9.393  70.970  1.00  0.00    -0.334 C  
BRANCH  15  16
HETATM   16  N   UNL     1     -11.789   7.953  70.850  1.00  0.00    -0.267 NA 
HETATM   17  C   UNL     1     -10.664   7.187  70.260  1.00  0.00    -0.238 C  
HETATM   18  C   UNL     1      -9.394   7.119  71.140  1.00  0.00    -0.157 C  
HETATM   19  N   UNL     1      -9.733   6.613  72.487  1.00  0.00    -0.158 NA 
HETATM   20  C   UNL     1     -12.070   7.369  72.191  1.00  0.00    -0.252 C  
HETATM   21  C   UNL     1     -10.838   7.344  73.131  1.00  0.00    -0.386 C  
BRANCH  19  22
HETATM   22  C   UNL     1      -9.086   5.508  73.022  1.00  0.00    -0.125 A  
HETATM   23  C   UNL     1      -9.696   4.285  73.416  1.00  0.00    -0.121 A  
HETATM   24  C   UNL     1      -8.926   3.243  73.982  1.00  0.00    -0.083 A  
HETATM   25 CL   UNL     1     -11.379   3.943  73.100  1.00  0.00    -0.198 Cl 
HETATM   26  C   UNL     1      -7.543   3.365  74.111  1.00  0.00    -0.065 A  
HETATM   27 CL   UNL     1      -9.621   1.756  74.543  1.00  0.00    -0.097 Cl 
HETATM   28  C   UNL     1      -6.918   4.529  73.700  1.00  0.00    -0.066 A  
HETATM   29  C   UNL     1      -7.681   5.580  73.192  1.00  0.00    -0.100 A  
ENDBRANCH  19  22
ENDBRANCH  15  16
ENDBRANCH  14  15
ENDBRANCH  11  14
ENDBRANCH   6   8
ENDBRANCH   4   6
ENDBRANCH   2   4
TORSDOF 7
ENDMDL
MODEL      113
REMARK 921   NORMALIZED FREE ENERGY PREDICTED BY IDOCK:   -4.23 KCAL/MOL
REMARK 922        TOTAL FREE ENERGY PREDICTED BY IDOCK:   -6.74 KCAL/MOL
REMARK 923 INTER-LIGAND FREE ENERGY PREDICTED BY IDOCK:   -6.37 KCAL/MOL
REMARK 924 INTRA-LIGAND FREE ENERGY PREDICTED BY IDOCK:   -0.37 KCAL/MOL
REMARK 927      BINDING AFFINITY PREDICTED BY RF-SCORE:    0.00 PKD
ROOT
HETATM    1  C   UNL     1      -8.267  11.021  62.341  1.00  0.00    -0.187 C  
HETATM    2  N   UNL     1      -8.966  10.758  63.584  1.00  0.00    -0.184 N  
HETATM    3  C   UNL     1     -10.225  11.443  63.825  1.00  0.00    -0.382 C  
ENDROOT
BRANCH   2   4
HETATM    4  C   UNL     1      -8.416   9.791  64.416  1.00  0.00    -0.179 C  
HETATM    5  O   UNL     1      -7.234   9.459  64.351  1.00  0.00    -0.099 OA 
BRANCH   4   6
HETATM    6  N   UNL     1      -9.293   9.207  65.283  1.00  0.00    -0.418 N  
HETATM    7  H   UNL     1     -10.240   9.002  64.963  1.00  0.00     0.000 HD 
BRANCH   6   8
HETATM    8  C   UNL     1      -8.922   8.865  66.653  1.00  0.00    -0.136 C  
HETATM    9  C   UNL     1      -8.262  10.057  67.354  1.00  0.00    -0.118 C  
HETATM   10  C   UNL     1      -9.251  11.197  67.606  1.00  0.00    -0.151 C  
HETATM   11  C   UNL     1     -10.517  10.742  68.357  1.00  0.00    -0.207 C  
HETATM   12  C   UNL     1     -10.154   8.385  67.428  1.00  0.00    -0.301 C  
HETATM   13  C   UNL     1     -11.153   9.512  67.687  1.00  0.00    -0.009 C  
BRANCH  11  14
HETATM   14  C   UNL     1     -10.251  10.458  69.848  1.00  0.00    -0.190 C  
BRANCH  14  15
HETATM   15  C   UNL     1     -11.498  10.061  70.649  1.00  0.00    -0.345 C  
BRANCH  15  16
HETATM   16  N   UNL     1     -11.225   9.230  71.834  1.00  0.00    -0.344 NA 
HETATM   17  C   UNL     1     -12.131   8.060  71.940  1.00  0.00    -0.317 C  
HETATM   18  C   UNL     1     -11.944   6.994  70.835  1.00  0.00    -0.364 C  
HETATM   19  N   UNL     1     -10.530   6.568  70.771  1.00  0.00    -0.214 NA 
HETATM   20  C   UNL     1      -9.829   8.711  71.790  1.00  0.00    -0.295 C  
HETATM   21  C   UNL     1      -9.581   7.688  70.652  1.00  0.00    -0.163 C  
BRANCH  19  22
HETATM   22  C   UNL     1     -10.178   5.230  70.883  1.00  0.00    -0.234 A  
HETATM   23  C   UNL     1     -10.220   4.446  72.069  1.00  0.00    -0.163 A  
HETATM   24  C   UNL     1      -9.799   3.096  72.057  1.00  0.00    -0.171 A  
HETATM   25 CL   UNL     1     -10.914   5.045  73.554  1.00  0.00    -0.368 Cl 
HETATM   26  C   UNL     1      -9.393   2.484  70.871  1.00  0.00    -0.215 A  
HETATM   27 CL   UNL     1      -9.764   2.108  73.483  1.00  0.00    -0.111 Cl 
HETATM   28  C   UNL     1      -9.380   3.212  69.696  1.00  0.00    -0.222 A  
HETATM   29  C   UNL     1      -9.740   4.560  69.714  1.00  0.00    -0.285 A  
ENDBRANCH  19  22
ENDBRANCH  15  16
ENDBRANCH  14  15
ENDBRANCH  11  14
ENDBRANCH   6   8
ENDBRANCH   4   6
ENDBRANCH   2   4
TORSDOF 7
ENDMDL
MODEL      114
REMARK 921   NORMALIZED FREE ENERGY PREDICTED BY IDOCK:   -4.20 KCAL/MOL
REMARK 922        TOTAL FREE ENERGY PREDICTED BY IDOCK:   -6.68 KCAL/MOL
REMARK 923 INTER-LIGAND FREE ENERGY PREDICTED BY IDOCK:   -6.11 KCAL/MOL
REMARK 924 INTRA-LIGAND FREE ENERGY PREDICTED BY IDOCK:   -0.58 KCAL/MOL
REMARK 927      BINDING AFFINITY PREDICTED BY RF-SCORE:    0.00 PKD
ROOT
HETATM    1  C   UNL     1     -10.074  18.467  68.345  1.00  0.00    -0.388 C  
HETATM    2  N   UNL     1     -10.583  17.399  67.505  1.00  0.00    -0.352 N  
HETATM    3  C   UNL     1     -10.614  17.609  66.067  1.00  0.00    -0.220 C  
ENDROOT
BRANCH   2   4
HETATM    4  C   UNL     1     -10.918  16.211  68.142  1.00  0.00    -0.341 C  
HETATM    5  O   UNL     1     -11.692  16.169  69.096  1.00  0.00    -0.327 OA 
BRANCH   4   6
HETATM    6  N   UNL     1     -10.293  15.099  67.658  1.00  0.00    -0.246 N  
HETATM    7  H   UNL     1      -9.305  14.956  67.871  1.00  0.00     0.000 HD 
BRANCH   6   8
HETATM    8  C   UNL     1     -10.990  14.106  66.847  1.00  0.00    -0.300 C  
HETATM    9  C   UNL     1     -10.008  13.353  65.941  1.00  0.00    -0.287 C  
HETATM   10  C   UNL     1      -9.063  12.453  66.739  1.00  0.00    -0.212 C  
HETATM   11  C   UNL     1      -9.803  11.485  67.680  1.00  0.00    -0.192 C  
HETATM   12  C   UNL     1     -11.759  13.134  67.749  1.00  0.00    -0.401 C  
HETATM   13  C   UNL     1     -10.828  12.227  68.554  1.00  0.00    -0.267 C  
BRANCH  11  14
HETATM   14  C   UNL     1     -10.487  10.330  66.923  1.00  0.00    -0.291 C  
BRANCH  14  15
HETATM   15  C   UNL     1     -10.345   8.959  67.596  1.00  0.00    -0.251 C  
BRANCH  15  16
HETATM   16  N   UNL     1     -10.207   7.828  66.662  1.00  0.00    -0.255 NA 
HETATM   17  C   UNL     1      -8.830   7.281  66.617  1.00  0.00    -0.139 C  
HETATM   18  C   UNL     1      -8.363   6.590  67.920  1.00  0.00    -0.115 C  
HETATM   19  N   UNL     1      -9.336   5.552  68.323  1.00  0.00    -0.109 NA 
HETATM   20  C   UNL     1     -11.116   6.717  67.060  1.00  0.00    -0.325 C  
HETATM   21  C   UNL     1     -10.723   6.040  68.399  1.00  0.00    -0.280 C  
BRANCH  19  22
HETATM   22  C   UNL     1      -8.937   4.240  68.535  1.00  0.00    -0.114 A  
HETATM   23  C   UNL     1      -8.209   3.751  69.655  1.00  0.00    -0.053 A  
HETATM   24  C   UNL     1      -7.833   2.390  69.734  1.00  0.00    -0.042 A  
HETATM   25 CL   UNL     1      -7.864   4.750  71.045  1.00  0.00    -0.080 Cl 
HETATM   26  C   UNL     1      -8.219   1.483  68.748  1.00  0.00    -0.068 A  
HETATM   27 CL   UNL     1      -6.888   1.750  71.040  1.00  0.00    -0.031 Cl 
HETATM   28  C   UNL     1      -8.961   1.923  67.667  1.00  0.00    -0.170 A  
HETATM   29  C   UNL     1      -9.286   3.276  67.557  1.00  0.00    -0.250 A  
ENDBRANCH  19  22
ENDBRANCH  15  16
ENDBRANCH  14  15
ENDBRANCH  11  14
ENDBRANCH   6   8
ENDBRANCH   4   6
ENDBRANCH   2   4
TORSDOF 7
ENDMDL
MODEL      115
REMARK 921   NORMALIZED FREE ENERGY PREDICTED BY IDOCK:   -4.19 KCAL/MOL
REMARK 922        TOTAL FREE ENERGY PREDICTED BY IDOCK:   -6.68 KCAL/MOL
REMARK 923 INTER-LIGAND FREE ENERGY PREDICTED BY IDOCK:   -6.15 KCAL/MOL
REMARK 924 INTRA-LIGAND FREE ENERGY PREDICTED BY IDOCK:   -0.53 KCAL/MOL
REMARK 927      BINDING AFFINITY PREDICTED BY RF-SCORE:    0.00 PKD
ROOT
HETATM    1  C   UNL     1     -13.267  13.441  71.708  1.00  0.00    -0.407 C  
HETATM    2  N   UNL     1     -12.758  14.794  71.832  1.00  0.00    -0.315 N  
HETATM    3  C   UNL     1     -13.168  15.581  72.983  1.00  0.00    -0.543 C  
ENDROOT
BRANCH   2   4
HETATM    4  C   UNL     1     -11.834  15.202  70.879  1.00  0.00    -0.325 C  
HETATM    5  O   UNL     1     -11.310  16.314  70.901  1.00  0.00    -0.389 OA 
BRANCH   4   6
HETATM    6  N   UNL     1     -11.581  14.294  69.891  1.00  0.00    -0.284 N  
HETATM    7  H   UNL     1     -11.803  13.312  70.056  1.00  0.00     0.000 HD 
BRANCH   6   8
HETATM    8  C   UNL     1     -11.005  14.682  68.608  1.00  0.00    -0.256 C  
HETATM    9  C   UNL     1      -9.555  14.196  68.490  1.00  0.00    -0.214 C  
HETATM   10  C   UNL     1      -9.465  12.672  68.392  1.00  0.00    -0.163 C  
HETATM   11  C   UNL     1     -10.339  12.087  67.267  1.00  0.00    -0.232 C  
HETATM   12  C   UNL     1     -11.861  14.136  67.460  1.00  0.00    -0.437 C  
HETATM   13  C   UNL     1     -11.782  12.614  67.348  1.00  0.00    -0.432 C  
BRANCH  11  14
HETATM   14  C   UNL     1      -9.755  12.351  65.865  1.00  0.00    -0.237 C  
BRANCH  14  15
HETATM   15  C   UNL     1      -9.396  11.083  65.081  1.00  0.00    -0.220 C  
BRANCH  15  16
HETATM   16  N   UNL     1      -8.060  10.536  65.379  1.00  0.00    -0.156 NA 
HETATM   17  C   UNL     1      -8.004   9.829  66.682  1.00  0.00    -0.112 C  
HETATM   18  C   UNL     1      -8.833   8.525  66.750  1.00  0.00    -0.139 C  
HETATM   19  N   UNL     1      -8.458   7.624  65.639  1.00  0.00    -0.146 NA 
HETATM   20  C   UNL     1      -7.655   9.562  64.327  1.00  0.00    -0.122 C  
HETATM   21  C   UNL     1      -8.507   8.267  64.315  1.00  0.00     0.017 C  
BRANCH  19  22
HETATM   22  C   UNL     1      -8.041   6.323  65.882  1.00  0.00    -0.123 A  
HETATM   23  C   UNL     1      -8.830   5.275  66.431  1.00  0.00    -0.123 A  
HETATM   24  C   UNL     1      -8.272   3.996  66.661  1.00  0.00    -0.101 A  
HETATM   25 CL   UNL     1     -10.542   5.455  66.718  1.00  0.00    -0.342 Cl 
HETATM   26  C   UNL     1      -6.956   3.713  66.298  1.00  0.00    -0.062 A  
HETATM   27 CL   UNL     1      -9.164   2.697  67.389  1.00  0.00    -0.205 Cl 
HETATM   28  C   UNL     1      -6.177   4.703  65.726  1.00  0.00    -0.031 A  
HETATM   29  C   UNL     1      -6.706   5.982  65.549  1.00  0.00    -0.048 A  
ENDBRANCH  19  22
ENDBRANCH  15  16
ENDBRANCH  14  15
ENDBRANCH  11  14
ENDBRANCH   6   8
ENDBRANCH   4   6
ENDBRANCH   2   4
TORSDOF 7
ENDMDL
MODEL      116
REMARK 921   NORMALIZED FREE ENERGY PREDICTED BY IDOCK:   -4.17 KCAL/MOL
REMARK 922        TOTAL FREE ENERGY PREDICTED BY IDOCK:   -6.64 KCAL/MOL
REMARK 923 INTER-LIGAND FREE ENERGY PREDICTED BY IDOCK:   -5.64 KCAL/MOL
REMARK 924 INTRA-LIGAND FREE ENERGY PREDICTED BY IDOCK:   -1.00 KCAL/MOL
REMARK 927      BINDING AFFINITY PREDICTED BY RF-SCORE:    0.00 PKD
ROOT
HETATM    1  C   UNL     1      -5.876   5.824  73.558  1.00  0.00    -0.047 C  
HETATM    2  N   UNL     1      -6.906   5.286  72.690  1.00  0.00    -0.073 N  
HETATM    3  C   UNL     1      -6.803   3.896  72.277  1.00  0.00    -0.044 C  
ENDROOT
BRANCH   2   4
HETATM    4  C   UNL     1      -7.972   6.125  72.393  1.00  0.00    -0.105 C  
HETATM    5  O   UNL     1      -8.490   6.858  73.233  1.00  0.00    -0.116 OA 
BRANCH   4   6
HETATM    6  N   UNL     1      -8.430   6.047  71.110  1.00  0.00    -0.124 N  
HETATM    7  H   UNL     1      -9.158   5.368  70.886  1.00  0.00     0.000 HD 
BRANCH   6   8
HETATM    8  C   UNL     1      -7.914   6.903  70.046  1.00  0.00    -0.116 C  
HETATM    9  C   UNL     1      -7.875   6.152  68.710  1.00  0.00    -0.101 C  
HETATM   10  C   UNL     1      -9.277   5.853  68.177  1.00  0.00    -0.116 C  
HETATM   11  C   UNL     1     -10.167   7.107  68.083  1.00  0.00    -0.220 C  
HETATM   12  C   UNL     1      -8.761   8.175  69.936  1.00  0.00    -0.138 C  
HETATM   13  C   UNL     1     -10.166   7.894  69.404  1.00  0.00    -0.206 C  
BRANCH  11  14
HETATM   14  C   UNL     1      -9.768   8.029  66.914  1.00  0.00    -0.291 C  
BRANCH  14  15
HETATM   15  C   UNL     1     -10.647   9.277  66.765  1.00  0.00    -0.137 C  
BRANCH  15  16
HETATM   16  N   UNL     1      -9.914  10.503  66.402  1.00  0.00    -0.210 NA 
HETATM   17  C   UNL     1     -10.807  11.596  65.946  1.00  0.00    -0.287 C  
HETATM   18  C   UNL     1     -11.738  12.172  67.038  1.00  0.00    -0.303 C  
HETATM   19  N   UNL     1     -10.947  12.588  68.216  1.00  0.00    -0.227 NA 
HETATM   20  C   UNL     1      -9.150  11.013  67.576  1.00  0.00    -0.137 C  
HETATM   21  C   UNL     1     -10.048  11.538  68.725  1.00  0.00    -0.179 C  
BRANCH  19  22
HETATM   22  C   UNL     1     -11.031  13.880  68.716  1.00  0.00    -0.263 A  
HETATM   23  C   UNL     1     -11.665  14.275  69.926  1.00  0.00    -0.311 A  
HETATM   24  C   UNL     1     -11.710  15.636  70.307  1.00  0.00    -0.357 A  
HETATM   25 CL   UNL     1     -12.291  13.112  71.068  1.00  0.00    -0.419 Cl 
HETATM   26  C   UNL     1     -11.081  16.615  69.539  1.00  0.00    -0.158 A  
HETATM   27 CL   UNL     1     -12.525  16.186  71.736  1.00  0.00    -0.426 Cl 
HETATM   28  C   UNL     1     -10.424  16.254  68.376  1.00  0.00    -0.282 A  
HETATM   29  C   UNL     1     -10.425  14.920  67.968  1.00  0.00    -0.246 A  
ENDBRANCH  19  22
ENDBRANCH  15  16
ENDBRANCH  14  15
ENDBRANCH  11  14
ENDBRANCH   6   8
ENDBRANCH   4   6
ENDBRANCH   2   4
TORSDOF 7
ENDMDL
MODEL      117
REMARK 921   NORMALIZED FREE ENERGY PREDICTED BY IDOCK:   -4.12 KCAL/MOL
REMARK 922        TOTAL FREE ENERGY PREDICTED BY IDOCK:   -6.58 KCAL/MOL
REMARK 923 INTER-LIGAND FREE ENERGY PREDICTED BY IDOCK:   -6.36 KCAL/MOL
REMARK 924 INTRA-LIGAND FREE ENERGY PREDICTED BY IDOCK:   -0.22 KCAL/MOL
REMARK 927      BINDING AFFINITY PREDICTED BY RF-SCORE:    0.00 PKD
ROOT
HETATM    1  C   UNL     1      -9.107   3.264  68.468  1.00  0.00    -0.155 C  
HETATM    2  N   UNL     1      -9.533   3.792  69.750  1.00  0.00    -0.177 N  
HETATM    3  C   UNL     1      -9.541   2.896  70.895  1.00  0.00    -0.138 C  
ENDROOT
BRANCH   2   4
HETATM    4  C   UNL     1      -9.815   5.151  69.803  1.00  0.00    -0.212 C  
HETATM    5  O   UNL     1     -10.963   5.585  69.859  1.00  0.00    -0.309 OA 
BRANCH   4   6
HETATM    6  N   UNL     1      -8.725   5.971  69.747  1.00  0.00    -0.129 N  
HETATM    7  H   UNL     1      -7.794   5.556  69.789  1.00  0.00     0.000 HD 
BRANCH   6   8
HETATM    8  C   UNL     1      -8.848   7.420  69.628  1.00  0.00    -0.141 C  
HETATM    9  C   UNL     1      -7.475   8.070  69.422  1.00  0.00    -0.096 C  
HETATM   10  C   UNL     1      -6.874   7.725  68.058  1.00  0.00    -0.072 C  
HETATM   11  C   UNL     1      -7.820   8.041  66.884  1.00  0.00    -0.103 C  
HETATM   12  C   UNL     1      -9.801   7.776  68.482  1.00  0.00    -0.181 C  
HETATM   13  C   UNL     1      -9.216   7.437  67.112  1.00  0.00    -0.159 C  
BRANCH  11  14
HETATM   14  C   UNL     1      -7.933   9.553  66.606  1.00  0.00    -0.108 C  
BRANCH  14  15
HETATM   15  C   UNL     1      -9.316  10.004  66.118  1.00  0.00    -0.173 C  
BRANCH  15  16
HETATM   16  N   UNL     1      -9.614  11.428  66.353  1.00  0.00    -0.200 NA 
HETATM   17  C   UNL     1     -11.068  11.709  66.428  1.00  0.00    -0.291 C  
HETATM   18  C   UNL     1     -11.785  11.095  67.654  1.00  0.00    -0.083 C  
HETATM   19  N   UNL     1     -11.100  11.498  68.900  1.00  0.00    -0.215 NA 
HETATM   20  C   UNL     1      -9.006  11.877  67.638  1.00  0.00    -0.169 C  
HETATM   21  C   UNL     1      -9.652  11.232  68.891  1.00  0.00    -0.105 C  
BRANCH  19  22
HETATM   22  C   UNL     1     -11.791  12.126  69.927  1.00  0.00    -0.319 A  
HETATM   23  C   UNL     1     -12.126  13.507  69.995  1.00  0.00    -0.341 A  
HETATM   24  C   UNL     1     -12.807  14.031  71.118  1.00  0.00    -0.357 A  
HETATM   25 CL   UNL     1     -11.853  14.595  68.657  1.00  0.00    -0.356 Cl 
HETATM   26  C   UNL     1     -13.219  13.197  72.157  1.00  0.00    -0.561 A  
HETATM   27 CL   UNL     1     -13.184  15.715  71.289  1.00  0.00    -0.557 Cl 
HETATM   28  C   UNL     1     -12.941  11.843  72.099  1.00  0.00    -0.237 A  
HETATM   29  C   UNL     1     -12.221  11.332  71.019  1.00  0.00    -0.417 A  
ENDBRANCH  19  22
ENDBRANCH  15  16
ENDBRANCH  14  15
ENDBRANCH  11  14
ENDBRANCH   6   8
ENDBRANCH   4   6
ENDBRANCH   2   4
TORSDOF 7
ENDMDL
MODEL      118
REMARK 921   NORMALIZED FREE ENERGY PREDICTED BY IDOCK:   -4.11 KCAL/MOL
REMARK 922        TOTAL FREE ENERGY PREDICTED BY IDOCK:   -6.56 KCAL/MOL
REMARK 923 INTER-LIGAND FREE ENERGY PREDICTED BY IDOCK:   -6.26 KCAL/MOL
REMARK 924 INTRA-LIGAND FREE ENERGY PREDICTED BY IDOCK:   -0.30 KCAL/MOL
REMARK 927      BINDING AFFINITY PREDICTED BY RF-SCORE:    0.00 PKD
ROOT
HETATM    1  C   UNL     1     -10.686   3.864  64.636  1.00  0.00    -0.117 C  
HETATM    2  N   UNL     1      -9.239   3.956  64.638  1.00  0.00    -0.139 N  
HETATM    3  C   UNL     1      -8.494   3.124  63.708  1.00  0.00    -0.090 C  
ENDROOT
BRANCH   2   4
HETATM    4  C   UNL     1      -8.676   4.912  65.474  1.00  0.00    -0.139 C  
HETATM    5  O   UNL     1      -8.092   5.904  65.044  1.00  0.00    -0.120 OA 
BRANCH   4   6
HETATM    6  N   UNL     1      -8.783   4.648  66.809  1.00  0.00    -0.111 N  
HETATM    7  H   UNL     1      -9.085   3.720  67.105  1.00  0.00     0.000 HD 
BRANCH   6   8
HETATM    8  C   UNL     1      -8.480   5.650  67.826  1.00  0.00    -0.102 C  
HETATM    9  C   UNL     1      -9.564   6.734  67.867  1.00  0.00    -0.125 C  
HETATM   10  C   UNL     1     -10.897   6.195  68.388  1.00  0.00    -0.382 C  
HETATM   11  C   UNL     1     -10.770   5.486  69.750  1.00  0.00    -0.355 C  
HETATM   12  C   UNL     1      -8.323   4.979  69.195  1.00  0.00    -0.086 C  
HETATM   13  C   UNL     1      -9.647   4.435  69.731  1.00  0.00    -0.276 C  
BRANCH  11  14
HETATM   14  C   UNL     1     -10.555   6.473  70.914  1.00  0.00    -0.275 C  
BRANCH  14  15
HETATM   15  C   UNL     1     -11.512   7.672  70.911  1.00  0.00    -0.282 C  
BRANCH  15  16
HETATM   16  N   UNL     1     -10.970   8.889  71.540  1.00  0.00    -0.300 NA 
HETATM   17  C   UNL     1      -9.781   9.424  70.834  1.00  0.00    -0.250 C  
HETATM   18  C   UNL     1     -10.062   9.976  69.416  1.00  0.00    -0.219 C  
HETATM   19  N   UNL     1     -11.148  10.978  69.465  1.00  0.00    -0.254 NA 
HETATM   20  C   UNL     1     -12.001   9.965  71.555  1.00  0.00    -0.390 C  
HETATM   21  C   UNL     1     -12.364  10.500  70.145  1.00  0.00    -0.265 C  
BRANCH  19  22
HETATM   22  C   UNL     1     -10.965  12.258  68.962  1.00  0.00    -0.201 A  
HETATM   23  C   UNL     1      -9.908  12.685  68.111  1.00  0.00    -0.226 A  
HETATM   24  C   UNL     1      -9.816  14.034  67.694  1.00  0.00    -0.233 A  
HETATM   25 CL   UNL     1      -8.760  11.564  67.423  1.00  0.00    -0.144 Cl 
HETATM   26  C   UNL     1     -10.791  14.962  68.056  1.00  0.00    -0.263 A  
HETATM   27 CL   UNL     1      -8.515  14.628  66.712  1.00  0.00    -0.206 Cl 
HETATM   28  C   UNL     1     -11.851  14.566  68.851  1.00  0.00    -0.359 A  
HETATM   29  C   UNL     1     -11.916  13.250  69.311  1.00  0.00    -0.354 A  
ENDBRANCH  19  22
ENDBRANCH  15  16
ENDBRANCH  14  15
ENDBRANCH  11  14
ENDBRANCH   6   8
ENDBRANCH   4   6
ENDBRANCH   2   4
TORSDOF 7
ENDMDL
MODEL      119
REMARK 921   NORMALIZED FREE ENERGY PREDICTED BY IDOCK:   -4.09 KCAL/MOL
REMARK 922        TOTAL FREE ENERGY PREDICTED BY IDOCK:   -6.53 KCAL/MOL
REMARK 923 INTER-LIGAND FREE ENERGY PREDICTED BY IDOCK:   -5.75 KCAL/MOL
REMARK 924 INTRA-LIGAND FREE ENERGY PREDICTED BY IDOCK:   -0.78 KCAL/MOL
REMARK 927      BINDING AFFINITY PREDICTED BY RF-SCORE:    0.00 PKD
ROOT
HETATM    1  C   UNL     1     -11.113  16.104  67.726  1.00  0.00    -0.254 C  
HETATM    2  N   UNL     1     -10.800  15.169  66.662  1.00  0.00    -0.316 N  
HETATM    3  C   UNL     1      -9.634  15.434  65.834  1.00  0.00    -0.351 C  
ENDROOT
BRANCH   2   4
HETATM    4  C   UNL     1     -11.594  14.033  66.575  1.00  0.00    -0.374 C  
HETATM    5  O   UNL     1     -12.755  14.068  66.172  1.00  0.00    -0.450 OA 
BRANCH   4   6
HETATM    6  N   UNL     1     -11.005  12.881  67.009  1.00  0.00    -0.257 N  
HETATM    7  H   UNL     1     -11.046  12.052  66.415  1.00  0.00     0.000 HD 
BRANCH   6   8
HETATM    8  C   UNL     1     -10.321  12.794  68.295  1.00  0.00    -0.243 C  
HETATM    9  C   UNL     1     -11.329  12.718  69.448  1.00  0.00    -0.267 C  
HETATM   10  C   UNL     1     -12.102  11.398  69.449  1.00  0.00    -0.358 C  
HETATM   11  C   UNL     1     -11.184  10.161  69.432  1.00  0.00    -0.265 C  
HETATM   12  C   UNL     1      -9.378  11.586  68.309  1.00  0.00    -0.190 C  
HETATM   13  C   UNL     1     -10.136  10.258  68.311  1.00  0.00    -0.176 C  
BRANCH  11  14
HETATM   14  C   UNL     1     -10.492   9.918  70.788  1.00  0.00    -0.253 C  
BRANCH  14  15
HETATM   15  C   UNL     1     -10.840   8.575  71.444  1.00  0.00    -0.260 C  
BRANCH  15  16
HETATM   16  N   UNL     1      -9.674   7.769  71.843  1.00  0.00    -0.164 NA 
HETATM   17  C   UNL     1     -10.026   6.364  72.162  1.00  0.00    -0.165 C  
HETATM   18  C   UNL     1     -10.511   5.526  70.955  1.00  0.00    -0.249 C  
HETATM   19  N   UNL     1      -9.522   5.592  69.858  1.00  0.00    -0.151 NA 
HETATM   20  C   UNL     1      -8.668   7.738  70.745  1.00  0.00    -0.134 C  
HETATM   21  C   UNL     1      -9.142   6.965  69.487  1.00  0.00    -0.142 C  
BRANCH  19  22
HETATM   22  C   UNL     1      -8.983   4.437  69.309  1.00  0.00    -0.099 A  
HETATM   23  C   UNL     1      -7.972   3.622  69.888  1.00  0.00    -0.050 A  
HETATM   24  C   UNL     1      -7.483   2.484  69.206  1.00  0.00    -0.044 A  
HETATM   25 CL   UNL     1      -7.382   3.887  71.510  1.00  0.00    -0.046 Cl 
HETATM   26  C   UNL     1      -8.022   2.098  67.980  1.00  0.00    -0.062 A  
HETATM   27 CL   UNL     1      -6.205   1.490  69.830  1.00  0.00    -0.023 Cl 
HETATM   28  C   UNL     1      -9.034   2.850  67.411  1.00  0.00    -0.189 A  
HETATM   29  C   UNL     1      -9.481   4.005  68.054  1.00  0.00    -0.220 A  
ENDBRANCH  19  22
ENDBRANCH  15  16
ENDBRANCH  14  15
ENDBRANCH  11  14
ENDBRANCH   6   8
ENDBRANCH   4   6
ENDBRANCH   2   4
TORSDOF 7
ENDMDL
MODEL      120
REMARK 921   NORMALIZED FREE ENERGY PREDICTED BY IDOCK:   -4.08 KCAL/MOL
REMARK 922        TOTAL FREE ENERGY PREDICTED BY IDOCK:   -6.52 KCAL/MOL
REMARK 923 INTER-LIGAND FREE ENERGY PREDICTED BY IDOCK:   -5.74 KCAL/MOL
REMARK 924 INTRA-LIGAND FREE ENERGY PREDICTED BY IDOCK:   -0.78 KCAL/MOL
REMARK 927      BINDING AFFINITY PREDICTED BY RF-SCORE:    0.00 PKD
ROOT
HETATM    1  C   UNL     1     -12.660  14.217  64.939  1.00  0.00    -0.342 C  
HETATM    2  N   UNL     1     -11.228  14.359  65.121  1.00  0.00    -0.341 N  
HETATM    3  C   UNL     1     -10.700  15.680  65.419  1.00  0.00    -0.408 C  
ENDROOT
BRANCH   2   4
HETATM    4  C   UNL     1     -10.475  13.192  65.088  1.00  0.00    -0.324 C  
HETATM    5  O   UNL     1     -10.837  12.191  64.474  1.00  0.00    -0.282 OA 
BRANCH   4   6
HETATM    6  N   UNL     1      -9.324  13.224  65.821  1.00  0.00    -0.462 N  
HETATM    7  H   UNL     1      -8.515  13.719  65.446  1.00  0.00     0.000 HD 
BRANCH   6   8
HETATM    8  C   UNL     1      -9.213  12.574  67.123  1.00  0.00    -0.205 C  
HETATM    9  C   UNL     1      -9.009  11.063  66.964  1.00  0.00    -0.151 C  
HETATM   10  C   UNL     1      -7.644  10.726  66.361  1.00  0.00    -0.141 C  
HETATM   11  C   UNL     1      -6.472  11.366  67.129  1.00  0.00    -0.109 C  
HETATM   12  C   UNL     1      -8.069  13.200  67.927  1.00  0.00    -0.159 C  
HETATM   13  C   UNL     1      -6.697  12.873  67.338  1.00  0.00    -0.131 C  
BRANCH  11  14
HETATM   14  C   UNL     1      -6.201  10.675  68.480  1.00  0.00    -0.049 C  
BRANCH  14  15
HETATM   15  C   UNL     1      -6.172   9.143  68.412  1.00  0.00    -0.053 C  
BRANCH  15  16
HETATM   16  N   UNL     1      -6.190   8.472  69.724  1.00  0.00    -0.035 NA 
HETATM   17  C   UNL     1      -7.063   9.155  70.710  1.00  0.00    -0.102 C  
HETATM   18  C   UNL     1      -8.574   9.108  70.381  1.00  0.00    -0.209 C  
HETATM   19  N   UNL     1      -9.005   7.710  70.165  1.00  0.00    -0.146 NA 
HETATM   20  C   UNL     1      -6.687   7.075  69.581  1.00  0.00    -0.049 C  
HETATM   21  C   UNL     1      -8.182   6.982  69.184  1.00  0.00    -0.122 C  
BRANCH  19  22
HETATM   22  C   UNL     1     -10.052   7.163  70.893  1.00  0.00    -0.193 A  
HETATM   23  C   UNL     1      -9.943   6.179  71.915  1.00  0.00    -0.164 A  
HETATM   24  C   UNL     1     -11.097   5.677  72.560  1.00  0.00    -0.276 A  
HETATM   25 CL   UNL     1      -8.398   5.645  72.527  1.00  0.00    -0.114 Cl 
HETATM   26  C   UNL     1     -12.362   6.177  72.254  1.00  0.00    -0.106 A  
HETATM   27 CL   UNL     1     -11.034   4.431  73.766  1.00  0.00    -0.358 Cl 
HETATM   28  C   UNL     1     -12.494   7.161  71.291  1.00  0.00    -0.425 A  
HETATM   29  C   UNL     1     -11.364   7.620  70.613  1.00  0.00    -0.288 A  
ENDBRANCH  19  22
ENDBRANCH  15  16
ENDBRANCH  14  15
ENDBRANCH  11  14
ENDBRANCH   6   8
ENDBRANCH   4   6
ENDBRANCH   2   4
TORSDOF 7
ENDMDL
MODEL      121
REMARK 921   NORMALIZED FREE ENERGY PREDICTED BY IDOCK:   -4.07 KCAL/MOL
REMARK 922        TOTAL FREE ENERGY PREDICTED BY IDOCK:   -6.51 KCAL/MOL
REMARK 923 INTER-LIGAND FREE ENERGY PREDICTED BY IDOCK:   -5.94 KCAL/MOL
REMARK 924 INTRA-LIGAND FREE ENERGY PREDICTED BY IDOCK:   -0.57 KCAL/MOL
REMARK 927      BINDING AFFINITY PREDICTED BY RF-SCORE:    0.00 PKD
ROOT
HETATM    1  C   UNL     1      -8.471   3.967  71.589  1.00  0.00    -0.085 C  
HETATM    2  N   UNL     1      -9.328   4.356  72.693  1.00  0.00    -0.128 N  
HETATM    3  C   UNL     1      -9.229   3.611  73.937  1.00  0.00    -0.089 C  
ENDROOT
BRANCH   2   4
HETATM    4  C   UNL     1     -10.119   5.482  72.502  1.00  0.00    -0.177 C  
HETATM    5  O   UNL     1     -10.772   5.992  73.410  1.00  0.00    -0.250 OA 
BRANCH   4   6
HETATM    6  N   UNL     1     -10.151   5.956  71.223  1.00  0.00    -0.190 N  
HETATM    7  H   UNL     1     -10.347   5.306  70.461  1.00  0.00     0.000 HD 
BRANCH   6   8
HETATM    8  C   UNL     1      -9.916   7.362  70.908  1.00  0.00    -0.184 C  
HETATM    9  C   UNL     1      -8.483   7.577  70.407  1.00  0.00    -0.141 C  
HETATM   10  C   UNL     1      -8.251   6.938  69.036  1.00  0.00    -0.125 C  
HETATM   11  C   UNL     1      -9.281   7.382  67.981  1.00  0.00    -0.132 C  
HETATM   12  C   UNL     1     -10.938   7.848  69.875  1.00  0.00    -0.179 C  
HETATM   13  C   UNL     1     -10.720   7.219  68.500  1.00  0.00    -0.165 C  
BRANCH  11  14
HETATM   14  C   UNL     1      -9.050   8.828  67.500  1.00  0.00    -0.146 C  
BRANCH  14  15
HETATM   15  C   UNL     1     -10.220   9.426  66.708  1.00  0.00    -0.250 C  
BRANCH  15  16
HETATM   16  N   UNL     1      -9.820  10.299  65.590  1.00  0.00    -0.249 NA 
HETATM   17  C   UNL     1     -10.945  11.106  65.058  1.00  0.00    -0.104 C  
HETATM   18  C   UNL     1     -11.494  12.176  66.030  1.00  0.00    -0.370 C  
HETATM   19  N   UNL     1     -10.396  13.043  66.507  1.00  0.00    -0.269 NA 
HETATM   20  C   UNL     1      -8.760  11.249  66.031  1.00  0.00    -0.164 C  
HETATM   21  C   UNL     1      -9.252  12.298  67.061  1.00  0.00    -0.205 C  
BRANCH  19  22
HETATM   22  C   UNL     1     -10.457  14.422  66.363  1.00  0.00    -0.295 A  
HETATM   23  C   UNL     1     -10.269  15.385  67.392  1.00  0.00    -0.249 A  
HETATM   24  C   UNL     1     -10.392  16.767  67.119  1.00  0.00    -0.297 A  
HETATM   25 CL   UNL     1      -9.742  14.939  68.996  1.00  0.00    -0.221 Cl 
HETATM   26  C   UNL     1     -10.639  17.222  65.824  1.00  0.00    -0.198 A  
HETATM   27 CL   UNL     1     -10.239  17.986  68.345  1.00  0.00    -0.385 Cl 
HETATM   28  C   UNL     1     -10.788  16.308  64.796  1.00  0.00    -0.245 A  
HETATM   29  C   UNL     1     -10.723  14.942  65.072  1.00  0.00    -0.451 A  
ENDBRANCH  19  22
ENDBRANCH  15  16
ENDBRANCH  14  15
ENDBRANCH  11  14
ENDBRANCH   6   8
ENDBRANCH   4   6
ENDBRANCH   2   4
TORSDOF 7
ENDMDL
MODEL      122
REMARK 921   NORMALIZED FREE ENERGY PREDICTED BY IDOCK:   -4.03 KCAL/MOL
REMARK 922        TOTAL FREE ENERGY PREDICTED BY IDOCK:   -6.45 KCAL/MOL
REMARK 923 INTER-LIGAND FREE ENERGY PREDICTED BY IDOCK:   -5.61 KCAL/MOL
REMARK 924 INTRA-LIGAND FREE ENERGY PREDICTED BY IDOCK:   -0.84 KCAL/MOL
REMARK 927      BINDING AFFINITY PREDICTED BY RF-SCORE:    0.00 PKD
ROOT
HETATM    1  C   UNL     1     -13.508   7.127  71.247  1.00  0.00    -0.222 C  
HETATM    2  N   UNL     1     -12.518   7.924  71.947  1.00  0.00    -0.313 N  
HETATM    3  C   UNL     1     -12.800   9.332  72.169  1.00  0.00    -0.408 C  
ENDROOT
BRANCH   2   4
HETATM    4  C   UNL     1     -11.407   7.249  72.436  1.00  0.00    -0.284 C  
HETATM    5  O   UNL     1     -10.892   7.524  73.518  1.00  0.00    -0.369 OA 
BRANCH   4   6
HETATM    6  N   UNL     1     -10.902   6.288  71.610  1.00  0.00    -0.242 N  
HETATM    7  H   UNL     1     -11.162   5.314  71.770  1.00  0.00     0.000 HD 
BRANCH   6   8
HETATM    8  C   UNL     1     -10.004   6.606  70.504  1.00  0.00    -0.179 C  
HETATM    9  C   UNL     1      -8.549   6.673  70.984  1.00  0.00    -0.137 C  
HETATM   10  C   UNL     1      -8.015   5.300  71.396  1.00  0.00    -0.114 C  
HETATM   11  C   UNL     1      -8.190   4.230  70.301  1.00  0.00    -0.069 C  
HETATM   12  C   UNL     1     -10.164   5.575  69.382  1.00  0.00    -0.329 C  
HETATM   13  C   UNL     1      -9.636   4.196  69.778  1.00  0.00    -0.281 C  
BRANCH  11  14
HETATM   14  C   UNL     1      -7.205   4.416  69.130  1.00  0.00    -0.052 C  
BRANCH  14  15
HETATM   15  C   UNL     1      -7.768   4.016  67.761  1.00  0.00    -0.068 C  
BRANCH  15  16
HETATM   16  N   UNL     1      -7.101   4.658  66.614  1.00  0.00    -0.070 NA 
HETATM   17  C   UNL     1      -8.004   4.844  65.452  1.00  0.00    -0.100 C  
HETATM   18  C   UNL     1      -9.150   5.858  65.677  1.00  0.00    -0.042 C  
HETATM   19  N   UNL     1      -8.604   7.151  66.140  1.00  0.00    -0.141 NA 
HETATM   20  C   UNL     1      -6.589   6.002  67.001  1.00  0.00    -0.056 C  
HETATM   21  C   UNL     1      -7.708   7.032  67.303  1.00  0.00    -0.109 C  
BRANCH  19  22
HETATM   22  C   UNL     1      -8.887   8.331  65.466  1.00  0.00    -0.110 A  
HETATM   23  C   UNL     1      -9.792   9.344  65.886  1.00  0.00    -0.291 A  
HETATM   24  C   UNL     1     -10.017  10.489  65.087  1.00  0.00    -0.309 A  
HETATM   25 CL   UNL     1     -10.560   9.310  67.454  1.00  0.00    -0.344 Cl 
HETATM   26  C   UNL     1      -9.312  10.681  63.899  1.00  0.00    -0.302 A  
HETATM   27 CL   UNL     1     -11.156  11.725  65.513  1.00  0.00    -0.354 Cl 
HETATM   28  C   UNL     1      -8.397   9.730  63.485  1.00  0.00    -0.168 A  
HETATM   29  C   UNL     1      -8.213   8.573  64.243  1.00  0.00    -0.147 A  
ENDBRANCH  19  22
ENDBRANCH  15  16
ENDBRANCH  14  15
ENDBRANCH  11  14
ENDBRANCH   6   8
ENDBRANCH   4   6
ENDBRANCH   2   4
TORSDOF 7
ENDMDL
MODEL      123
REMARK 921   NORMALIZED FREE ENERGY PREDICTED BY IDOCK:   -4.01 KCAL/MOL
REMARK 922        TOTAL FREE ENERGY PREDICTED BY IDOCK:   -6.43 KCAL/MOL
REMARK 923 INTER-LIGAND FREE ENERGY PREDICTED BY IDOCK:   -5.67 KCAL/MOL
REMARK 924 INTRA-LIGAND FREE ENERGY PREDICTED BY IDOCK:   -0.76 KCAL/MOL
REMARK 927      BINDING AFFINITY PREDICTED BY RF-SCORE:    0.00 PKD
ROOT
HETATM    1  C   UNL     1      -8.802   5.878  72.687  1.00  0.00    -0.121 C  
HETATM    2  N   UNL     1      -8.239   4.985  71.692  1.00  0.00    -0.113 N  
HETATM    3  C   UNL     1      -6.902   4.459  71.916  1.00  0.00    -0.034 C  
ENDROOT
BRANCH   2   4
HETATM    4  C   UNL     1      -9.067   4.625  70.637  1.00  0.00    -0.128 C  
HETATM    5  O   UNL     1     -10.216   4.223  70.807  1.00  0.00    -0.142 OA 
BRANCH   4   6
HETATM    6  N   UNL     1      -8.498   4.711  69.399  1.00  0.00    -0.081 N  
HETATM    7  H   UNL     1      -8.397   3.861  68.843  1.00  0.00     0.000 HD 
BRANCH   6   8
HETATM    8  C   UNL     1      -8.030   5.977  68.845  1.00  0.00    -0.100 C  
HETATM    9  C   UNL     1      -7.709   5.835  67.352  1.00  0.00    -0.097 C  
HETATM   10  C   UNL     1      -8.967   5.607  66.512  1.00  0.00    -0.126 C  
HETATM   11  C   UNL     1     -10.052   6.675  66.748  1.00  0.00    -0.240 C  
HETATM   12  C   UNL     1      -9.074   7.073  69.080  1.00  0.00    -0.135 C  
HETATM   13  C   UNL     1     -10.339   6.860  68.248  1.00  0.00    -0.220 C  
BRANCH  11  14
HETATM   14  C   UNL     1      -9.699   8.030  66.103  1.00  0.00    -0.116 C  
BRANCH  14  15
HETATM   15  C   UNL     1     -10.427   9.232  66.717  1.00  0.00    -0.193 C  
BRANCH  15  16
HETATM   16  N   UNL     1      -9.673  10.497  66.666  1.00  0.00    -0.183 NA 
HETATM   17  C   UNL     1     -10.500  11.645  66.225  1.00  0.00    -0.246 C  
HETATM   18  C   UNL     1     -11.618  12.057  67.211  1.00  0.00    -0.313 C  
HETATM   19  N   UNL     1     -11.050  12.296  68.555  1.00  0.00    -0.232 NA 
HETATM   20  C   UNL     1      -9.132  10.829  68.014  1.00  0.00    -0.150 C  
HETATM   21  C   UNL     1     -10.226  11.182  69.055  1.00  0.00    -0.176 C  
BRANCH  19  22
HETATM   22  C   UNL     1     -11.248  13.501  69.213  1.00  0.00    -0.231 A  
HETATM   23  C   UNL     1     -10.674  14.755  68.865  1.00  0.00    -0.252 A  
HETATM   24  C   UNL     1     -10.931  15.908  69.643  1.00  0.00    -0.319 A  
HETATM   25 CL   UNL     1      -9.749  14.978  67.401  1.00  0.00    -0.215 Cl 
HETATM   26  C   UNL     1     -11.800  15.858  70.732  1.00  0.00    -0.423 A  
HETATM   27 CL   UNL     1     -10.208  17.449  69.308  1.00  0.00    -0.266 Cl 
HETATM   28  C   UNL     1     -12.403  14.659  71.070  1.00  0.00    -0.403 A  
HETATM   29  C   UNL     1     -12.109  13.508  70.339  1.00  0.00    -0.415 A  
ENDBRANCH  19  22
ENDBRANCH  15  16
ENDBRANCH  14  15
ENDBRANCH  11  14
ENDBRANCH   6   8
ENDBRANCH   4   6
ENDBRANCH   2   4
TORSDOF 7
ENDMDL
MODEL      124
REMARK 921   NORMALIZED FREE ENERGY PREDICTED BY IDOCK:   -4.01 KCAL/MOL
REMARK 922        TOTAL FREE ENERGY PREDICTED BY IDOCK:   -6.42 KCAL/MOL
REMARK 923 INTER-LIGAND FREE ENERGY PREDICTED BY IDOCK:   -5.75 KCAL/MOL
REMARK 924 INTRA-LIGAND FREE ENERGY PREDICTED BY IDOCK:   -0.67 KCAL/MOL
REMARK 927      BINDING AFFINITY PREDICTED BY RF-SCORE:    0.00 PKD
ROOT
HETATM    1  C   UNL     1      -7.358  20.434  65.911  1.00  0.00    -0.142 C  
HETATM    2  N   UNL     1      -8.006  19.782  67.034  1.00  0.00    -0.278 N  
HETATM    3  C   UNL     1      -9.389  20.124  67.324  1.00  0.00    -0.391 C  
ENDROOT
BRANCH   2   4
HETATM    4  C   UNL     1      -7.274  18.804  67.694  1.00  0.00    -0.216 C  
HETATM    5  O   UNL     1      -6.045  18.800  67.715  1.00  0.00    -0.190 OA 
BRANCH   4   6
HETATM    6  N   UNL     1      -8.018  17.823  68.283  1.00  0.00    -0.272 N  
HETATM    7  H   UNL     1      -8.909  18.071  68.714  1.00  0.00     0.000 HD 
BRANCH   6   8
HETATM    8  C   UNL     1      -7.582  16.431  68.317  1.00  0.00    -0.163 C  
HETATM    9  C   UNL     1      -8.290  15.663  69.441  1.00  0.00    -0.238 C  
HETATM   10  C   UNL     1      -9.783  15.485  69.163  1.00  0.00    -0.252 C  
HETATM   11  C   UNL     1     -10.070  14.848  67.790  1.00  0.00    -0.234 C  
HETATM   12  C   UNL     1      -7.830  15.767  66.959  1.00  0.00    -0.271 C  
HETATM   13  C   UNL     1      -9.319  15.581  66.666  1.00  0.00    -0.291 C  
BRANCH  11  14
HETATM   14  C   UNL     1      -9.742  13.343  67.755  1.00  0.00    -0.216 C  
BRANCH  14  15
HETATM   15  C   UNL     1      -9.701  12.736  66.347  1.00  0.00    -0.261 C  
BRANCH  15  16
HETATM   16  N   UNL     1      -8.558  11.840  66.099  1.00  0.00    -0.071 NA 
HETATM   17  C   UNL     1      -8.180  11.044  67.292  1.00  0.00    -0.125 C  
HETATM   18  C   UNL     1      -9.230   9.999  67.736  1.00  0.00    -0.134 C  
HETATM   19  N   UNL     1      -9.585   9.120  66.601  1.00  0.00    -0.185 NA 
HETATM   20  C   UNL     1      -8.884  10.878  65.008  1.00  0.00    -0.139 C  
HETATM   21  C   UNL     1      -9.984   9.854  65.388  1.00  0.00    -0.279 C  
BRANCH  19  22
HETATM   22  C   UNL     1      -9.473   7.741  66.700  1.00  0.00    -0.205 A  
HETATM   23  C   UNL     1      -8.265   6.990  66.668  1.00  0.00    -0.112 A  
HETATM   24  C   UNL     1      -8.290   5.578  66.745  1.00  0.00    -0.108 A  
HETATM   25 CL   UNL     1      -6.696   7.756  66.677  1.00  0.00    -0.064 Cl 
HETATM   26  C   UNL     1      -9.492   4.892  66.916  1.00  0.00    -0.156 A  
HETATM   27 CL   UNL     1      -6.858   4.605  66.644  1.00  0.00    -0.051 Cl 
HETATM   28  C   UNL     1     -10.679   5.599  66.989  1.00  0.00    -0.332 A  
HETATM   29  C   UNL     1     -10.664   6.988  66.858  1.00  0.00    -0.376 A  
ENDBRANCH  19  22
ENDBRANCH  15  16
ENDBRANCH  14  15
ENDBRANCH  11  14
ENDBRANCH   6   8
ENDBRANCH   4   6
ENDBRANCH   2   4
TORSDOF 7
ENDMDL
MODEL      125
REMARK 921   NORMALIZED FREE ENERGY PREDICTED BY IDOCK:   -4.00 KCAL/MOL
REMARK 922        TOTAL FREE ENERGY PREDICTED BY IDOCK:   -6.40 KCAL/MOL
REMARK 923 INTER-LIGAND FREE ENERGY PREDICTED BY IDOCK:   -6.03 KCAL/MOL
REMARK 924 INTRA-LIGAND FREE ENERGY PREDICTED BY IDOCK:   -0.37 KCAL/MOL
REMARK 927      BINDING AFFINITY PREDICTED BY RF-SCORE:    0.00 PKD
ROOT
HETATM    1  C   UNL     1      -9.341  19.474  68.040  1.00  0.00    -0.336 C  
HETATM    2  N   UNL     1      -9.961  18.322  67.414  1.00  0.00    -0.320 N  
HETATM    3  C   UNL     1     -10.122  18.327  65.969  1.00  0.00    -0.271 C  
ENDROOT
BRANCH   2   4
HETATM    4  C   UNL     1     -10.272  17.253  68.244  1.00  0.00    -0.348 C  
HETATM    5  O   UNL     1     -10.450  17.385  69.453  1.00  0.00    -0.303 OA 
BRANCH   4   6
HETATM    6  N   UNL     1     -10.323  16.037  67.626  1.00  0.00    -0.277 N  
HETATM    7  H   UNL     1      -9.513  15.720  67.092  1.00  0.00     0.000 HD 
BRANCH   6   8
HETATM    8  C   UNL     1     -11.498  15.174  67.704  1.00  0.00    -0.309 C  
HETATM    9  C   UNL     1     -11.706  14.413  66.389  1.00  0.00    -0.397 C  
HETATM   10  C   UNL     1     -10.608  13.376  66.145  1.00  0.00    -0.294 C  
HETATM   11  C   UNL     1     -10.424  12.403  67.325  1.00  0.00    -0.237 C  
HETATM   12  C   UNL     1     -11.362  14.205  68.883  1.00  0.00    -0.308 C  
HETATM   13  C   UNL     1     -10.269  13.161  68.655  1.00  0.00    -0.177 C  
BRANCH  11  14
HETATM   14  C   UNL     1     -11.566  11.374  67.429  1.00  0.00    -0.266 C  
BRANCH  14  15
HETATM   15  C   UNL     1     -11.321  10.258  68.452  1.00  0.00    -0.178 C  
BRANCH  15  16
HETATM   16  N   UNL     1      -9.942   9.739  68.473  1.00  0.00    -0.156 NA 
HETATM   17  C   UNL     1      -9.411   9.570  69.847  1.00  0.00    -0.223 C  
HETATM   18  C   UNL     1     -10.108   8.470  70.682  1.00  0.00    -0.192 C  
HETATM   19  N   UNL     1     -10.099   7.188  69.946  1.00  0.00    -0.189 NA 
HETATM   20  C   UNL     1      -9.882   8.408  67.805  1.00  0.00    -0.174 C  
HETATM   21  C   UNL     1     -10.628   7.289  68.576  1.00  0.00    -0.175 C  
BRANCH  19  22
HETATM   22  C   UNL     1      -9.567   6.039  70.515  1.00  0.00    -0.169 A  
HETATM   23  C   UNL     1      -8.963   4.956  69.817  1.00  0.00    -0.099 A  
HETATM   24  C   UNL     1      -8.490   3.821  70.516  1.00  0.00    -0.068 A  
HETATM   25 CL   UNL     1      -8.643   5.021  68.102  1.00  0.00    -0.102 Cl 
HETATM   26  C   UNL     1      -8.547   3.763  71.908  1.00  0.00    -0.109 A  
HETATM   27 CL   UNL     1      -7.805   2.443  69.716  1.00  0.00    -0.047 Cl 
HETATM   28  C   UNL     1      -9.094   4.818  72.614  1.00  0.00    -0.139 A  
HETATM   29  C   UNL     1      -9.614   5.915  71.926  1.00  0.00    -0.169 A  
ENDBRANCH  19  22
ENDBRANCH  15  16
ENDBRANCH  14  15
ENDBRANCH  11  14
ENDBRANCH   6   8
ENDBRANCH   4   6
ENDBRANCH   2   4
TORSDOF 7
ENDMDL
MODEL      126
REMARK 921   NORMALIZED FREE ENERGY PREDICTED BY IDOCK:   -3.96 KCAL/MOL
REMARK 922        TOTAL FREE ENERGY PREDICTED BY IDOCK:   -6.35 KCAL/MOL
REMARK 923 INTER-LIGAND FREE ENERGY PREDICTED BY IDOCK:   -5.42 KCAL/MOL
REMARK 924 INTRA-LIGAND FREE ENERGY PREDICTED BY IDOCK:   -0.92 KCAL/MOL
REMARK 927      BINDING AFFINITY PREDICTED BY RF-SCORE:    0.00 PKD
ROOT
HETATM    1  C   UNL     1      -7.054   6.176  65.064  1.00  0.00    -0.061 C  
HETATM    2  N   UNL     1      -7.249   6.240  66.500  1.00  0.00    -0.072 N  
HETATM    3  C   UNL     1      -6.158   5.818  67.363  1.00  0.00    -0.022 C  
ENDROOT
BRANCH   2   4
HETATM    4  C   UNL     1      -8.444   6.792  66.943  1.00  0.00    -0.115 C  
HETATM    5  O   UNL     1      -9.540   6.329  66.634  1.00  0.00    -0.151 OA 
BRANCH   4   6
HETATM    6  N   UNL     1      -8.314   7.911  67.713  1.00  0.00    -0.128 N  
HETATM    7  H   UNL     1      -8.478   7.841  68.718  1.00  0.00     0.000 HD 
BRANCH   6   8
HETATM    8  C   UNL     1      -7.948   9.206  67.147  1.00  0.00    -0.106 C  
HETATM    9  C   UNL     1      -8.925   9.613  66.037  1.00  0.00    -0.195 C  
HETATM   10  C   UNL     1     -10.319   9.926  66.583  1.00  0.00    -0.275 C  
HETATM   11  C   UNL     1     -10.303  10.968  67.717  1.00  0.00    -0.218 C  
HETATM   12  C   UNL     1      -7.899  10.268  68.251  1.00  0.00    -0.101 C  
HETATM   13  C   UNL     1      -9.285  10.593  68.808  1.00  0.00    -0.182 C  
BRANCH  11  14
HETATM   14  C   UNL     1     -10.031  12.396  67.205  1.00  0.00    -0.211 C  
BRANCH  14  15
HETATM   15  C   UNL     1     -10.255  13.497  68.250  1.00  0.00    -0.250 C  
BRANCH  15  16
HETATM   16  N   UNL     1      -9.023  14.149  68.726  1.00  0.00    -0.120 NA 
HETATM   17  C   UNL     1      -8.157  14.624  67.621  1.00  0.00    -0.173 C  
HETATM   18  C   UNL     1      -8.749  15.782  66.784  1.00  0.00    -0.271 C  
HETATM   19  N   UNL     1      -9.144  16.899  67.668  1.00  0.00    -0.222 NA 
HETATM   20  C   UNL     1      -9.359  15.331  69.569  1.00  0.00    -0.195 C  
HETATM   21  C   UNL     1     -10.018  16.492  68.780  1.00  0.00    -0.255 C  
BRANCH  19  22
HETATM   22  C   UNL     1      -8.656  18.183  67.464  1.00  0.00    -0.249 A  
HETATM   23  C   UNL     1      -7.504  18.752  68.073  1.00  0.00    -0.251 A  
HETATM   24  C   UNL     1      -7.131  20.089  67.805  1.00  0.00    -0.281 A  
HETATM   25 CL   UNL     1      -6.415  17.809  69.061  1.00  0.00    -0.223 Cl 
HETATM   26  C   UNL     1      -7.847  20.862  66.891  1.00  0.00    -0.119 A  
HETATM   27 CL   UNL     1      -5.777  20.860  68.568  1.00  0.00    -0.371 Cl 
HETATM   28  C   UNL     1      -8.949  20.321  66.254  1.00  0.00    -0.241 A  
HETATM   29  C   UNL     1      -9.353  19.020  66.558  1.00  0.00    -0.365 A  
ENDBRANCH  19  22
ENDBRANCH  15  16
ENDBRANCH  14  15
ENDBRANCH  11  14
ENDBRANCH   6   8
ENDBRANCH   4   6
ENDBRANCH   2   4
TORSDOF 7
ENDMDL
MODEL      127
REMARK 921   NORMALIZED FREE ENERGY PREDICTED BY IDOCK:   -3.93 KCAL/MOL
REMARK 922        TOTAL FREE ENERGY PREDICTED BY IDOCK:   -6.30 KCAL/MOL
REMARK 923 INTER-LIGAND FREE ENERGY PREDICTED BY IDOCK:   -5.46 KCAL/MOL
REMARK 924 INTRA-LIGAND FREE ENERGY PREDICTED BY IDOCK:   -0.84 KCAL/MOL
REMARK 927      BINDING AFFINITY PREDICTED BY RF-SCORE:    0.00 PKD
ROOT
HETATM    1  C   UNL     1     -10.408   4.150  64.843  1.00  0.00    -0.193 C  
HETATM    2  N   UNL     1      -9.261   3.871  64.000  1.00  0.00    -0.134 N  
HETATM    3  C   UNL     1      -9.213   2.596  63.303  1.00  0.00    -0.095 C  
ENDROOT
BRANCH   2   4
HETATM    4  C   UNL     1      -8.333   4.893  63.851  1.00  0.00    -0.127 C  
HETATM    5  O   UNL     1      -8.092   5.412  62.763  1.00  0.00    -0.087 OA 
BRANCH   4   6
HETATM    6  N   UNL     1      -7.676   5.250  64.992  1.00  0.00    -0.083 N  
HETATM    7  H   UNL     1      -7.201   4.528  65.535  1.00  0.00     0.000 HD 
BRANCH   6   8
HETATM    8  C   UNL     1      -7.632   6.631  65.464  1.00  0.00    -0.088 C  
HETATM    9  C   UNL     1      -8.858   6.955  66.325  1.00  0.00    -0.161 C  
HETATM   10  C   UNL     1      -8.842   6.200  67.656  1.00  0.00    -0.103 C  
HETATM   11  C   UNL     1      -7.537   6.404  68.449  1.00  0.00    -0.100 C  
HETATM   12  C   UNL     1      -6.334   6.880  66.241  1.00  0.00    -0.050 C  
HETATM   13  C   UNL     1      -6.302   6.133  67.574  1.00  0.00    -0.037 C  
BRANCH  11  14
HETATM   14  C   UNL     1      -7.443   7.806  69.083  1.00  0.00    -0.094 C  
BRANCH  14  15
HETATM   15  C   UNL     1      -8.745   8.298  69.727  1.00  0.00    -0.134 C  
BRANCH  15  16
HETATM   16  N   UNL     1      -8.808   9.754  69.945  1.00  0.00    -0.217 NA 
HETATM   17  C   UNL     1      -8.249  10.532  68.813  1.00  0.00    -0.134 C  
HETATM   18  C   UNL     1      -9.059  10.439  67.499  1.00  0.00    -0.134 C  
HETATM   19  N   UNL     1     -10.472  10.796  67.744  1.00  0.00    -0.195 NA 
HETATM   20  C   UNL     1     -10.221  10.188  70.129  1.00  0.00    -0.179 C  
HETATM   21  C   UNL     1     -11.088  10.045  68.851  1.00  0.00    -0.176 C  
BRANCH  19  22
HETATM   22  C   UNL     1     -11.094  11.800  67.016  1.00  0.00    -0.304 A  
HETATM   23  C   UNL     1     -11.169  11.889  65.598  1.00  0.00    -0.306 A  
HETATM   24  C   UNL     1     -11.806  12.987  64.975  1.00  0.00    -0.362 A  
HETATM   25 CL   UNL     1     -10.615  10.601  64.557  1.00  0.00    -0.288 Cl 
HETATM   26  C   UNL     1     -12.430  13.976  65.735  1.00  0.00    -0.523 A  
HETATM   27 CL   UNL     1     -11.871  13.185  63.253  1.00  0.00    -0.503 Cl 
HETATM   28  C   UNL     1     -12.407  13.895  67.115  1.00  0.00    -0.246 A  
HETATM   29  C   UNL     1     -11.731  12.843  67.734  1.00  0.00    -0.412 A  
ENDBRANCH  19  22
ENDBRANCH  15  16
ENDBRANCH  14  15
ENDBRANCH  11  14
ENDBRANCH   6   8
ENDBRANCH   4   6
ENDBRANCH   2   4
TORSDOF 7
ENDMDL
MODEL      128
REMARK 921   NORMALIZED FREE ENERGY PREDICTED BY IDOCK:   -3.92 KCAL/MOL
REMARK 922        TOTAL FREE ENERGY PREDICTED BY IDOCK:   -6.29 KCAL/MOL
REMARK 923 INTER-LIGAND FREE ENERGY PREDICTED BY IDOCK:   -6.70 KCAL/MOL
REMARK 924 INTRA-LIGAND FREE ENERGY PREDICTED BY IDOCK:    0.40 KCAL/MOL
REMARK 927      BINDING AFFINITY PREDICTED BY RF-SCORE:    0.00 PKD
ROOT
HETATM    1  C   UNL     1     -10.158   9.692  65.481  1.00  0.00    -0.095 C  
HETATM    2  N   UNL     1      -9.235  10.290  64.535  1.00  0.00    -0.227 N  
HETATM    3  C   UNL     1      -7.822   9.967  64.654  1.00  0.00    -0.145 C  
ENDROOT
BRANCH   2   4
HETATM    4  C   UNL     1      -9.791  11.060  63.522  1.00  0.00    -0.359 C  
HETATM    5  O   UNL     1      -9.464  10.937  62.344  1.00  0.00    -0.247 OA 
BRANCH   4   6
HETATM    6  N   UNL     1     -10.698  11.993  63.935  1.00  0.00    -0.355 N  
HETATM    7  H   UNL     1     -11.693  11.774  63.874  1.00  0.00     0.000 HD 
BRANCH   6   8
HETATM    8  C   UNL     1     -10.292  13.292  64.463  1.00  0.00    -0.374 C  
HETATM    9  C   UNL     1     -11.471  14.273  64.466  1.00  0.00    -0.363 C  
HETATM   10  C   UNL     1     -12.544  13.878  65.483  1.00  0.00    -0.560 C  
HETATM   11  C   UNL     1     -11.985  13.676  66.904  1.00  0.00    -0.454 C  
HETATM   12  C   UNL     1      -9.708  13.130  65.870  1.00  0.00    -0.190 C  
HETATM   13  C   UNL     1     -10.769  12.736  66.898  1.00  0.00    -0.272 C  
BRANCH  11  14
HETATM   14  C   UNL     1     -11.625  15.007  67.593  1.00  0.00    -0.327 C  
BRANCH  14  15
HETATM   15  C   UNL     1     -11.902  15.034  69.101  1.00  0.00    -0.308 C  
BRANCH  15  16
HETATM   16  N   UNL     1     -10.723  15.328  69.935  1.00  0.00    -0.275 NA 
HETATM   17  C   UNL     1      -9.443  15.132  69.213  1.00  0.00    -0.212 C  
HETATM   18  C   UNL     1      -9.190  16.130  68.058  1.00  0.00    -0.195 C  
HETATM   19  N   UNL     1      -9.319  17.519  68.546  1.00  0.00    -0.281 NA 
HETATM   20  C   UNL     1     -10.761  16.742  70.401  1.00  0.00     0.235 C  
HETATM   21  C   UNL     1     -10.580  17.779  69.262  1.00  0.00     0.173 C  
BRANCH  19  22
HETATM   22  C   UNL     1      -8.292  18.436  68.378  1.00  0.00    -0.308 A  
HETATM   23  C   UNL     1      -8.095  19.284  67.253  1.00  0.00    -0.265 A  
HETATM   24  C   UNL     1      -6.982  20.154  67.190  1.00  0.00    -0.240 A  
HETATM   25 CL   UNL     1      -9.269  19.406  65.967  1.00  0.00    -0.291 Cl 
HETATM   26  C   UNL     1      -6.086  20.248  68.254  1.00  0.00    -0.315 A  
HETATM   27 CL   UNL     1      -6.653  21.162  65.817  1.00  0.00    -0.123 Cl 
HETATM   28  C   UNL     1      -6.275  19.464  69.378  1.00  0.00    -0.332 A  
HETATM   29  C   UNL     1      -7.340  18.563  69.421  1.00  0.00     0.008 A  
ENDBRANCH  19  22
ENDBRANCH  15  16
ENDBRANCH  14  15
ENDBRANCH  11  14
ENDBRANCH   6   8
ENDBRANCH   4   6
ENDBRANCH   2   4
TORSDOF 7
ENDMDL
MODEL      129
REMARK 921   NORMALIZED FREE ENERGY PREDICTED BY IDOCK:   -3.92 KCAL/MOL
REMARK 922        TOTAL FREE ENERGY PREDICTED BY IDOCK:   -6.29 KCAL/MOL
REMARK 923 INTER-LIGAND FREE ENERGY PREDICTED BY IDOCK:   -5.52 KCAL/MOL
REMARK 924 INTRA-LIGAND FREE ENERGY PREDICTED BY IDOCK:   -0.78 KCAL/MOL
REMARK 927      BINDING AFFINITY PREDICTED BY RF-SCORE:    0.00 PKD
ROOT
HETATM    1  C   UNL     1     -12.942  12.636  71.723  1.00  0.00    -0.313 C  
HETATM    2  N   UNL     1     -13.233  14.021  71.404  1.00  0.00    -0.340 N  
HETATM    3  C   UNL     1     -14.379  14.648  72.042  1.00  0.00    -0.558 C  
ENDROOT
BRANCH   2   4
HETATM    4  C   UNL     1     -12.329  14.674  70.577  1.00  0.00    -0.337 C  
HETATM    5  O   UNL     1     -12.379  15.885  70.369  1.00  0.00    -0.366 OA 
BRANCH   4   6
HETATM    6  N   UNL     1     -11.406  13.867  69.977  1.00  0.00    -0.478 N  
HETATM    7  H   UNL     1     -10.640  13.493  70.538  1.00  0.00     0.000 HD 
BRANCH   6   8
HETATM    8  C   UNL     1     -11.477  13.522  68.561  1.00  0.00    -0.310 C  
HETATM    9  C   UNL     1     -10.176  13.896  67.841  1.00  0.00    -0.241 C  
HETATM   10  C   UNL     1      -9.001  13.023  68.285  1.00  0.00    -0.177 C  
HETATM   11  C   UNL     1      -9.290  11.515  68.163  1.00  0.00    -0.185 C  
HETATM   12  C   UNL     1     -11.786  12.031  68.397  1.00  0.00    -0.390 C  
HETATM   13  C   UNL     1     -10.621  11.144  68.837  1.00  0.00    -0.239 C  
BRANCH  11  14
HETATM   14  C   UNL     1      -9.279  11.027  66.701  1.00  0.00    -0.182 C  
BRANCH  14  15
HETATM   15  C   UNL     1      -8.158  10.033  66.374  1.00  0.00    -0.120 C  
BRANCH  15  16
HETATM   16  N   UNL     1      -7.967   8.973  67.379  1.00  0.00    -0.100 NA 
HETATM   17  C   UNL     1      -9.123   8.049  67.469  1.00  0.00    -0.137 C  
HETATM   18  C   UNL     1      -9.353   7.171  66.216  1.00  0.00    -0.104 C  
HETATM   19  N   UNL     1      -8.114   6.442  65.870  1.00  0.00    -0.117 NA 
HETATM   20  C   UNL     1      -6.768   8.154  67.043  1.00  0.00    -0.065 C  
HETATM   21  C   UNL     1      -6.930   7.310  65.753  1.00  0.00    -0.061 C  
BRANCH  19  22
HETATM   22  C   UNL     1      -8.107   5.060  65.744  1.00  0.00    -0.113 A  
HETATM   23  C   UNL     1      -7.537   4.134  66.662  1.00  0.00    -0.089 A  
HETATM   24  C   UNL     1      -7.568   2.745  66.398  1.00  0.00    -0.076 A  
HETATM   25 CL   UNL     1      -6.904   4.632  68.210  1.00  0.00    -0.054 Cl 
HETATM   26  C   UNL     1      -8.210   2.245  65.266  1.00  0.00    -0.086 A  
HETATM   27 CL   UNL     1      -6.833   1.573  67.444  1.00  0.00    -0.031 Cl 
HETATM   28  C   UNL     1      -8.807   3.121  64.376  1.00  0.00    -0.104 A  
HETATM   29  C   UNL     1      -8.730   4.495  64.604  1.00  0.00    -0.147 A  
ENDBRANCH  19  22
ENDBRANCH  15  16
ENDBRANCH  14  15
ENDBRANCH  11  14
ENDBRANCH   6   8
ENDBRANCH   4   6
ENDBRANCH   2   4
TORSDOF 7
ENDMDL
MODEL      130
REMARK 921   NORMALIZED FREE ENERGY PREDICTED BY IDOCK:   -3.86 KCAL/MOL
REMARK 922        TOTAL FREE ENERGY PREDICTED BY IDOCK:   -6.22 KCAL/MOL
REMARK 923 INTER-LIGAND FREE ENERGY PREDICTED BY IDOCK:   -6.23 KCAL/MOL
REMARK 924 INTRA-LIGAND FREE ENERGY PREDICTED BY IDOCK:    0.01 KCAL/MOL
REMARK 927      BINDING AFFINITY PREDICTED BY RF-SCORE:    0.00 PKD
ROOT
HETATM    1  C   UNL     1      -5.514  20.764  69.793  1.00  0.00    -0.371 C  
HETATM    2  N   UNL     1      -6.199  20.290  68.605  1.00  0.00    -0.292 N  
HETATM    3  C   UNL     1      -5.972  20.992  67.353  1.00  0.00    -0.301 C  
ENDROOT
BRANCH   2   4
HETATM    4  C   UNL     1      -6.954  19.132  68.740  1.00  0.00    -0.321 C  
HETATM    5  O   UNL     1      -6.470  18.068  69.120  1.00  0.00    -0.233 OA 
BRANCH   4   6
HETATM    6  N   UNL     1      -8.266  19.251  68.380  1.00  0.00    -0.336 N  
HETATM    7  H   UNL     1      -8.928  19.640  69.052  1.00  0.00     0.000 HD 
BRANCH   6   8
HETATM    8  C   UNL     1      -8.752  18.842  67.067  1.00  0.00    -0.283 C  
HETATM    9  C   UNL     1      -8.319  17.406  66.747  1.00  0.00    -0.276 C  
HETATM   10  C   UNL     1      -9.020  16.381  67.640  1.00  0.00    -0.198 C  
HETATM   11  C   UNL     1     -10.555  16.515  67.623  1.00  0.00    -0.321 C  
HETATM   12  C   UNL     1     -10.276  18.982  67.002  1.00  0.00    -0.460 C  
HETATM   13  C   UNL     1     -10.992  17.965  67.890  1.00  0.00    -0.080 C  
BRANCH  11  14
HETATM   14  C   UNL     1     -11.179  16.004  66.310  1.00  0.00     0.159 C  
BRANCH  14  15
HETATM   15  C   UNL     1     -10.629  14.654  65.832  1.00  0.00    -0.311 C  
BRANCH  15  16
HETATM   16  N   UNL     1     -11.460  13.492  66.193  1.00  0.00    -0.317 NA 
HETATM   17  C   UNL     1     -11.116  12.274  65.420  1.00  0.00    -0.311 C  
HETATM   18  C   UNL     1      -9.716  11.688  65.722  1.00  0.00    -0.236 C  
HETATM   19  N   UNL     1      -9.562  11.459  67.175  1.00  0.00    -0.178 NA 
HETATM   20  C   UNL     1     -11.292  13.166  67.637  1.00  0.00    -0.298 C  
HETATM   21  C   UNL     1      -9.879  12.639  67.996  1.00  0.00    -0.218 C  
BRANCH  19  22
HETATM   22  C   UNL     1      -9.214  10.210  67.670  1.00  0.00    -0.141 A  
HETATM   23  C   UNL     1      -8.496   9.198  66.975  1.00  0.00    -0.123 A  
HETATM   24  C   UNL     1      -8.234   7.949  67.584  1.00  0.00    -0.124 A  
HETATM   25 CL   UNL     1      -7.779   9.480  65.408  1.00  0.00    -0.106 Cl 
HETATM   26  C   UNL     1      -8.619   7.701  68.902  1.00  0.00    -0.129 A  
HETATM   27 CL   UNL     1      -7.421   6.654  66.765  1.00  0.00    -0.078 Cl 
HETATM   28  C   UNL     1      -9.286   8.681  69.615  1.00  0.00    -0.157 A  
HETATM   29  C   UNL     1      -9.595   9.894  68.999  1.00  0.00    -0.188 A  
ENDBRANCH  19  22
ENDBRANCH  15  16
ENDBRANCH  14  15
ENDBRANCH  11  14
ENDBRANCH   6   8
ENDBRANCH   4   6
ENDBRANCH   2   4
TORSDOF 7
ENDMDL
MODEL      131
REMARK 921   NORMALIZED FREE ENERGY PREDICTED BY IDOCK:   -3.84 KCAL/MOL
REMARK 922        TOTAL FREE ENERGY PREDICTED BY IDOCK:   -6.18 KCAL/MOL
REMARK 923 INTER-LIGAND FREE ENERGY PREDICTED BY IDOCK:   -5.64 KCAL/MOL
REMARK 924 INTRA-LIGAND FREE ENERGY PREDICTED BY IDOCK:   -0.55 KCAL/MOL
REMARK 927      BINDING AFFINITY PREDICTED BY RF-SCORE:    0.00 PKD
ROOT
HETATM    1  C   UNL     1     -10.670  14.994  69.316  1.00  0.00    -0.248 C  
HETATM    2  N   UNL     1      -9.905  14.925  68.085  1.00  0.00    -0.215 N  
HETATM    3  C   UNL     1      -8.529  15.392  68.103  1.00  0.00    -0.147 C  
ENDROOT
BRANCH   2   4
HETATM    4  C   UNL     1     -10.527  14.326  66.997  1.00  0.00    -0.271 C  
HETATM    5  O   UNL     1     -11.606  14.716  66.556  1.00  0.00    -0.361 OA 
BRANCH   4   6
HETATM    6  N   UNL     1      -9.873  13.246  66.480  1.00  0.00    -0.275 N  
HETATM    7  H   UNL     1      -9.406  13.338  65.577  1.00  0.00     0.000 HD 
BRANCH   6   8
HETATM    8  C   UNL     1      -9.819  11.963  67.174  1.00  0.00    -0.194 C  
HETATM    9  C   UNL     1     -10.409  10.846  66.305  1.00  0.00    -0.306 C  
HETATM   10  C   UNL     1      -9.537  10.543  65.085  1.00  0.00    -0.316 C  
HETATM   11  C   UNL     1      -8.070  10.247  65.451  1.00  0.00    -0.147 C  
HETATM   12  C   UNL     1      -8.376  11.641  67.576  1.00  0.00    -0.151 C  
HETATM   13  C   UNL     1      -7.490  11.337  66.368  1.00  0.00    -0.064 C  
BRANCH  11  14
HETATM   14  C   UNL     1      -7.891   8.858  66.097  1.00  0.00    -0.102 C  
BRANCH  14  15
HETATM   15  C   UNL     1      -9.002   7.856  65.760  1.00  0.00    -0.080 C  
BRANCH  15  16
HETATM   16  N   UNL     1      -8.641   6.445  65.983  1.00  0.00    -0.143 NA 
HETATM   17  C   UNL     1      -7.690   6.263  67.106  1.00  0.00    -0.097 C  
HETATM   18  C   UNL     1      -8.262   6.601  68.503  1.00  0.00    -0.119 C  
HETATM   19  N   UNL     1      -9.512   5.849  68.737  1.00  0.00    -0.124 NA 
HETATM   20  C   UNL     1      -9.859   5.645  66.296  1.00  0.00    -0.123 C  
HETATM   21  C   UNL     1     -10.505   6.001  67.660  1.00  0.00    -0.235 C  
BRANCH  19  22
HETATM   22  C   UNL     1      -9.662   5.036  69.853  1.00  0.00    -0.196 A  
HETATM   23  C   UNL     1     -10.356   5.368  71.049  1.00  0.00    -0.236 A  
HETATM   24  C   UNL     1     -10.405   4.459  72.131  1.00  0.00    -0.143 A  
HETATM   25 CL   UNL     1     -11.295   6.832  71.201  1.00  0.00    -0.322 Cl 
HETATM   26  C   UNL     1      -9.829   3.193  72.029  1.00  0.00    -0.241 A  
HETATM   27 CL   UNL     1     -11.179   4.832  73.639  1.00  0.00    -0.385 Cl 
HETATM   28  C   UNL     1      -9.181   2.829  70.863  1.00  0.00    -0.206 A  
HETATM   29  C   UNL     1      -9.081   3.744  69.814  1.00  0.00    -0.192 A  
ENDBRANCH  19  22
ENDBRANCH  15  16
ENDBRANCH  14  15
ENDBRANCH  11  14
ENDBRANCH   6   8
ENDBRANCH   4   6
ENDBRANCH   2   4
TORSDOF 7
ENDMDL
MODEL      132
REMARK 921   NORMALIZED FREE ENERGY PREDICTED BY IDOCK:   -3.82 KCAL/MOL
REMARK 922        TOTAL FREE ENERGY PREDICTED BY IDOCK:   -6.16 KCAL/MOL
REMARK 923 INTER-LIGAND FREE ENERGY PREDICTED BY IDOCK:   -5.73 KCAL/MOL
REMARK 924 INTRA-LIGAND FREE ENERGY PREDICTED BY IDOCK:   -0.43 KCAL/MOL
REMARK 927      BINDING AFFINITY PREDICTED BY RF-SCORE:    0.00 PKD
ROOT
HETATM    1  C   UNL     1      -9.405   6.472  73.842  1.00  0.00    -0.166 C  
HETATM    2  N   UNL     1      -9.905   5.239  73.263  1.00  0.00    -0.159 N  
HETATM    3  C   UNL     1     -10.542   4.274  74.144  1.00  0.00    -0.262 C  
ENDROOT
BRANCH   2   4
HETATM    4  C   UNL     1      -9.818   5.118  71.882  1.00  0.00    -0.177 C  
HETATM    5  O   UNL     1     -10.224   4.126  71.280  1.00  0.00    -0.129 OA 
BRANCH   4   6
HETATM    6  N   UNL     1      -9.211   6.162  71.246  1.00  0.00    -0.150 N  
HETATM    7  H   UNL     1      -8.209   6.111  71.061  1.00  0.00     0.000 HD 
BRANCH   6   8
HETATM    8  C   UNL     1      -9.947   7.349  70.823  1.00  0.00    -0.182 C  
HETATM    9  C   UNL     1      -9.026   8.331  70.090  1.00  0.00    -0.142 C  
HETATM   10  C   UNL     1      -8.564   7.787  68.737  1.00  0.00    -0.129 C  
HETATM   11  C   UNL     1      -9.730   7.343  67.835  1.00  0.00    -0.166 C  
HETATM   12  C   UNL     1     -11.132   6.946  69.939  1.00  0.00    -0.333 C  
HETATM   13  C   UNL     1     -10.688   6.400  68.583  1.00  0.00    -0.341 C  
BRANCH  11  14
HETATM   14  C   UNL     1     -10.510   8.535  67.246  1.00  0.00    -0.366 C  
BRANCH  14  15
HETATM   15  C   UNL     1      -9.670   9.468  66.365  1.00  0.00    -0.232 C  
BRANCH  15  16
HETATM   16  N   UNL     1     -10.340  10.725  65.991  1.00  0.00    -0.251 NA 
HETATM   17  C   UNL     1     -10.993  11.396  67.141  1.00  0.00    -0.285 C  
HETATM   18  C   UNL     1     -10.020  11.938  68.214  1.00  0.00    -0.202 C  
HETATM   19  N   UNL     1      -9.009  12.817  67.588  1.00  0.00    -0.181 NA 
HETATM   20  C   UNL     1      -9.354  11.684  65.417  1.00  0.00    -0.127 C  
HETATM   21  C   UNL     1      -8.316  12.200  66.445  1.00  0.00     0.106 C  
BRANCH  19  22
HETATM   22  C   UNL     1      -8.818  14.118  68.032  1.00  0.00    -0.182 A  
HETATM   23  C   UNL     1      -9.663  15.231  67.767  1.00  0.00    -0.215 A  
HETATM   24  C   UNL     1      -9.335  16.519  68.252  1.00  0.00    -0.217 A  
HETATM   25 CL   UNL     1     -11.203  15.056  66.964  1.00  0.00    -0.336 Cl 
HETATM   26  C   UNL     1      -8.211  16.717  69.053  1.00  0.00    -0.190 A  
HETATM   27 CL   UNL     1     -10.290  17.925  67.906  1.00  0.00    -0.375 Cl 
HETATM   28  C   UNL     1      -7.392  15.645  69.358  1.00  0.00    -0.216 A  
HETATM   29  C   UNL     1      -7.681  14.384  68.836  1.00  0.00    -0.128 A  
ENDBRANCH  19  22
ENDBRANCH  15  16
ENDBRANCH  14  15
ENDBRANCH  11  14
ENDBRANCH   6   8
ENDBRANCH   4   6
ENDBRANCH   2   4
TORSDOF 7
ENDMDL
MODEL      133
REMARK 921   NORMALIZED FREE ENERGY PREDICTED BY IDOCK:   -3.81 KCAL/MOL
REMARK 922        TOTAL FREE ENERGY PREDICTED BY IDOCK:   -6.14 KCAL/MOL
REMARK 923 INTER-LIGAND FREE ENERGY PREDICTED BY IDOCK:   -6.09 KCAL/MOL
REMARK 924 INTRA-LIGAND FREE ENERGY PREDICTED BY IDOCK:   -0.05 KCAL/MOL
REMARK 927      BINDING AFFINITY PREDICTED BY RF-SCORE:    0.00 PKD
ROOT
HETATM    1  C   UNL     1      -9.313  20.278  67.506  1.00  0.00    -0.383 C  
HETATM    2  N   UNL     1      -9.919  19.054  67.015  1.00  0.00    -0.324 N  
HETATM    3  C   UNL     1     -10.566  19.081  65.714  1.00  0.00    -0.318 C  
ENDROOT
BRANCH   2   4
HETATM    4  C   UNL     1      -9.749  17.918  67.794  1.00  0.00    -0.283 C  
HETATM    5  O   UNL     1      -9.479  17.973  68.992  1.00  0.00    -0.224 OA 
BRANCH   4   6
HETATM    6  N   UNL     1      -9.864  16.734  67.125  1.00  0.00    -0.252 N  
HETATM    7  H   UNL     1      -9.092  16.426  66.532  1.00  0.00     0.000 HD 
BRANCH   6   8
HETATM    8  C   UNL     1     -11.053  15.894  67.227  1.00  0.00    -0.172 C  
HETATM    9  C   UNL     1     -11.191  14.989  65.997  1.00  0.00    -0.310 C  
HETATM   10  C   UNL     1     -10.096  13.922  65.942  1.00  0.00    -0.331 C  
HETATM   11  C   UNL     1      -9.998  13.091  67.235  1.00  0.00    -0.232 C  
HETATM   12  C   UNL     1     -11.004  15.066  68.515  1.00  0.00    -0.259 C  
HETATM   13  C   UNL     1      -9.914  13.995  68.476  1.00  0.00    -0.230 C  
BRANCH  11  14
HETATM   14  C   UNL     1     -11.160  12.089  67.384  1.00  0.00    -0.337 C  
BRANCH  14  15
HETATM   15  C   UNL     1     -10.895  10.958  68.386  1.00  0.00    -0.222 C  
BRANCH  15  16
HETATM   16  N   UNL     1      -9.540  10.385  68.318  1.00  0.00    -0.141 NA 
HETATM   17  C   UNL     1      -9.421   9.098  69.046  1.00  0.00    -0.152 C  
HETATM   18  C   UNL     1     -10.222   7.927  68.429  1.00  0.00    -0.202 C  
HETATM   19  N   UNL     1      -9.872   7.766  67.001  1.00  0.00    -0.197 NA 
HETATM   20  C   UNL     1      -9.156  10.132  66.901  1.00  0.00    -0.142 C  
HETATM   21  C   UNL     1      -9.984   9.011  66.222  1.00  0.00    -0.281 C  
BRANCH  19  22
HETATM   22  C   UNL     1      -9.422   6.550  66.506  1.00  0.00    -0.154 A  
HETATM   23  C   UNL     1      -8.321   6.355  65.627  1.00  0.00    -0.147 A  
HETATM   24  C   UNL     1      -7.985   5.061  65.166  1.00  0.00    -0.103 A  
HETATM   25 CL   UNL     1      -7.247   7.657  65.182  1.00  0.00    -0.066 Cl 
HETATM   26  C   UNL     1      -8.685   3.940  65.610  1.00  0.00    -0.117 A  
HETATM   27 CL   UNL     1      -6.697   4.767  64.042  1.00  0.00    -0.042 Cl 
HETATM   28  C   UNL     1      -9.736   4.096  66.496  1.00  0.00    -0.228 A  
HETATM   29  C   UNL     1     -10.106   5.377  66.909  1.00  0.00    -0.240 A  
ENDBRANCH  19  22
ENDBRANCH  15  16
ENDBRANCH  14  15
ENDBRANCH  11  14
ENDBRANCH   6   8
ENDBRANCH   4   6
ENDBRANCH   2   4
TORSDOF 7
ENDMDL
MODEL      134
REMARK 921   NORMALIZED FREE ENERGY PREDICTED BY IDOCK:   -3.80 KCAL/MOL
REMARK 922        TOTAL FREE ENERGY PREDICTED BY IDOCK:   -6.13 KCAL/MOL
REMARK 923 INTER-LIGAND FREE ENERGY PREDICTED BY IDOCK:   -5.83 KCAL/MOL
REMARK 924 INTRA-LIGAND FREE ENERGY PREDICTED BY IDOCK:   -0.29 KCAL/MOL
REMARK 927      BINDING AFFINITY PREDICTED BY RF-SCORE:    0.00 PKD
ROOT
HETATM    1  C   UNL     1      -9.087   4.295  72.159  1.00  0.00    -0.117 C  
HETATM    2  N   UNL     1      -9.912   5.145  71.321  1.00  0.00    -0.184 N  
HETATM    3  C   UNL     1      -9.779   5.027  69.878  1.00  0.00    -0.196 C  
ENDROOT
BRANCH   2   4
HETATM    4  C   UNL     1     -10.840   5.949  71.970  1.00  0.00    -0.252 C  
HETATM    5  O   UNL     1     -11.401   5.604  73.008  1.00  0.00    -0.280 OA 
BRANCH   4   6
HETATM    6  N   UNL     1     -11.116   7.132  71.349  1.00  0.00    -0.238 N  
HETATM    7  H   UNL     1     -11.926   7.188  70.731  1.00  0.00     0.000 HD 
BRANCH   6   8
HETATM    8  C   UNL     1     -10.291   8.321  71.539  1.00  0.00    -0.214 C  
HETATM    9  C   UNL     1      -9.056   8.281  70.632  1.00  0.00    -0.164 C  
HETATM   10  C   UNL     1      -9.423   8.425  69.153  1.00  0.00    -0.155 C  
HETATM   11  C   UNL     1     -10.284   9.669  68.864  1.00  0.00    -0.214 C  
HETATM   12  C   UNL     1     -11.120   9.584  71.282  1.00  0.00    -0.449 C  
HETATM   13  C   UNL     1     -11.496   9.743  69.808  1.00  0.00    -0.145 C  
BRANCH  11  14
HETATM   14  C   UNL     1      -9.474  10.978  68.933  1.00  0.00    -0.166 C  
BRANCH  14  15
HETATM   15  C   UNL     1     -10.218  12.211  68.403  1.00  0.00    -0.210 C  
BRANCH  15  16
HETATM   16  N   UNL     1      -9.671  12.764  67.151  1.00  0.00    -0.211 NA 
HETATM   17  C   UNL     1     -10.248  14.085  66.804  1.00  0.00    -0.264 C  
HETATM   18  C   UNL     1      -9.872  15.232  67.772  1.00  0.00    -0.220 C  
HETATM   19  N   UNL     1      -8.404  15.313  67.920  1.00  0.00    -0.144 NA 
HETATM   20  C   UNL     1      -8.196  12.937  67.265  1.00  0.00    -0.176 C  
HETATM   21  C   UNL     1      -7.773  14.031  68.278  1.00  0.00    -0.141 C  
BRANCH  19  22
HETATM   22  C   UNL     1      -7.723  16.496  67.669  1.00  0.00    -0.149 A  
HETATM   23  C   UNL     1      -6.826  17.156  68.554  1.00  0.00    -0.190 A  
HETATM   24  C   UNL     1      -6.221  18.381  68.189  1.00  0.00    -0.187 A  
HETATM   25 CL   UNL     1      -6.315  16.439  70.062  1.00  0.00    -0.126 Cl 
HETATM   26  C   UNL     1      -6.438  18.939  66.929  1.00  0.00    -0.198 A  
HETATM   27 CL   UNL     1      -5.172  19.266  69.250  1.00  0.00    -0.199 Cl 
HETATM   28  C   UNL     1      -7.275  18.298  66.033  1.00  0.00    -0.298 A  
HETATM   29  C   UNL     1      -7.918  17.119  66.411  1.00  0.00    -0.346 A  
ENDBRANCH  19  22
ENDBRANCH  15  16
ENDBRANCH  14  15
ENDBRANCH  11  14
ENDBRANCH   6   8
ENDBRANCH   4   6
ENDBRANCH   2   4
TORSDOF 7
ENDMDL
MODEL      135
REMARK 921   NORMALIZED FREE ENERGY PREDICTED BY IDOCK:   -3.79 KCAL/MOL
REMARK 922        TOTAL FREE ENERGY PREDICTED BY IDOCK:   -6.11 KCAL/MOL
REMARK 923 INTER-LIGAND FREE ENERGY PREDICTED BY IDOCK:   -5.17 KCAL/MOL
REMARK 924 INTRA-LIGAND FREE ENERGY PREDICTED BY IDOCK:   -0.94 KCAL/MOL
REMARK 927      BINDING AFFINITY PREDICTED BY RF-SCORE:    0.00 PKD
ROOT
HETATM    1  C   UNL     1      -6.024  16.879  67.222  1.00  0.00    -0.163 C  
HETATM    2  N   UNL     1      -6.807  17.671  66.293  1.00  0.00    -0.259 N  
HETATM    3  C   UNL     1      -6.203  18.042  65.024  1.00  0.00     0.267 C  
ENDROOT
BRANCH   2   4
HETATM    4  C   UNL     1      -8.121  17.939  66.656  1.00  0.00    -0.253 C  
HETATM    5  O   UNL     1      -8.727  18.930  66.256  1.00  0.00    -0.350 OA 
BRANCH   4   6
HETATM    6  N   UNL     1      -8.677  17.042  67.522  1.00  0.00    -0.208 N  
HETATM    7  H   UNL     1      -8.191  16.833  68.395  1.00  0.00     0.000 HD 
BRANCH   6   8
HETATM    8  C   UNL     1      -9.942  16.371  67.241  1.00  0.00    -0.258 C  
HETATM    9  C   UNL     1      -9.837  15.511  65.976  1.00  0.00    -0.364 C  
HETATM   10  C   UNL     1      -8.916  14.306  66.175  1.00  0.00     0.117 C  
HETATM   11  C   UNL     1      -9.298  13.450  67.398  1.00  0.00    -0.221 C  
HETATM   12  C   UNL     1     -10.368  15.526  68.446  1.00  0.00    -0.230 C  
HETATM   13  C   UNL     1      -9.458  14.317  68.659  1.00  0.00    -0.178 C  
BRANCH  11  14
HETATM   14  C   UNL     1     -10.571  12.615  67.162  1.00  0.00    -0.252 C  
BRANCH  14  15
HETATM   15  C   UNL     1     -10.306  11.163  66.742  1.00  0.00    -0.241 C  
BRANCH  15  16
HETATM   16  N   UNL     1     -11.152  10.166  67.419  1.00  0.00    -0.237 NA 
HETATM   17  C   UNL     1     -10.778   8.770  67.087  1.00  0.00    -0.134 C  
HETATM   18  C   UNL     1      -9.393   8.326  67.614  1.00  0.00    -0.137 C  
HETATM   19  N   UNL     1      -9.300   8.570  69.069  1.00  0.00    -0.146 NA 
HETATM   20  C   UNL     1     -11.044  10.316  68.898  1.00  0.00    -0.231 C  
HETATM   21  C   UNL     1      -9.648   9.946  69.461  1.00  0.00    -0.225 C  
BRANCH  19  22
HETATM   22  C   UNL     1      -8.974   7.547  69.948  1.00  0.00    -0.141 A  
HETATM   23  C   UNL     1      -9.889   6.674  70.601  1.00  0.00    -0.183 A  
HETATM   24  C   UNL     1      -9.429   5.689  71.505  1.00  0.00    -0.150 A  
HETATM   25 CL   UNL     1     -11.594   6.669  70.225  1.00  0.00    -0.449 Cl 
HETATM   26  C   UNL     1      -8.065   5.508  71.732  1.00  0.00    -0.118 A  
HETATM   27 CL   UNL     1     -10.499   4.641  72.380  1.00  0.00    -0.260 Cl 
HETATM   28  C   UNL     1      -7.150   6.317  71.081  1.00  0.00    -0.074 A  
HETATM   29  C   UNL     1      -7.603   7.327  70.231  1.00  0.00    -0.089 A  
ENDBRANCH  19  22
ENDBRANCH  15  16
ENDBRANCH  14  15
ENDBRANCH  11  14
ENDBRANCH   6   8
ENDBRANCH   4   6
ENDBRANCH   2   4
TORSDOF 7
ENDMDL
MODEL      136
REMARK 921   NORMALIZED FREE ENERGY PREDICTED BY IDOCK:   -3.78 KCAL/MOL
REMARK 922        TOTAL FREE ENERGY PREDICTED BY IDOCK:   -6.10 KCAL/MOL
REMARK 923 INTER-LIGAND FREE ENERGY PREDICTED BY IDOCK:   -5.78 KCAL/MOL
REMARK 924 INTRA-LIGAND FREE ENERGY PREDICTED BY IDOCK:   -0.32 KCAL/MOL
REMARK 927      BINDING AFFINITY PREDICTED BY RF-SCORE:    0.00 PKD
ROOT
HETATM    1  C   UNL     1     -13.034   8.080  71.134  1.00  0.00    -0.080 C  
HETATM    2  N   UNL     1     -11.744   7.547  71.529  1.00  0.00    -0.270 N  
HETATM    3  C   UNL     1     -11.356   7.649  72.926  1.00  0.00    -0.341 C  
ENDROOT
BRANCH   2   4
HETATM    4  C   UNL     1     -11.013   6.890  70.548  1.00  0.00    -0.273 C  
HETATM    5  O   UNL     1     -11.514   6.050  69.803  1.00  0.00    -0.395 OA 
BRANCH   4   6
HETATM    6  N   UNL     1      -9.689   7.214  70.498  1.00  0.00    -0.176 N  
HETATM    7  H   UNL     1      -9.013   6.599  70.952  1.00  0.00     0.000 HD 
BRANCH   6   8
HETATM    8  C   UNL     1      -9.206   8.411  69.817  1.00  0.00    -0.157 C  
HETATM    9  C   UNL     1      -7.803   8.790  70.306  1.00  0.00    -0.095 C  
HETATM   10  C   UNL     1      -6.747   7.772  69.870  1.00  0.00    -0.042 C  
HETATM   11  C   UNL     1      -6.755   7.508  68.352  1.00  0.00    -0.054 C  
HETATM   12  C   UNL     1      -9.219   8.196  68.300  1.00  0.00    -0.134 C  
HETATM   13  C   UNL     1      -8.170   7.181  67.848  1.00  0.00    -0.119 C  
BRANCH  11  14
HETATM   14  C   UNL     1      -6.160   8.679  67.545  1.00  0.00    -0.052 C  
BRANCH  14  15
HETATM   15  C   UNL     1      -6.354   8.564  66.028  1.00  0.00    -0.053 C  
BRANCH  15  16
HETATM   16  N   UNL     1      -6.268   9.843  65.301  1.00  0.00    -0.086 NA 
HETATM   17  C   UNL     1      -7.083   9.859  64.062  1.00  0.00    -0.127 C  
HETATM   18  C   UNL     1      -8.612   9.800  64.289  1.00  0.00    -0.188 C  
HETATM   19  N   UNL     1      -9.031  10.872  65.215  1.00  0.00    -0.196 NA 
HETATM   20  C   UNL     1      -6.748  10.960  66.163  1.00  0.00    -0.103 C  
HETATM   21  C   UNL     1      -8.266  10.900  66.473  1.00  0.00    -0.157 C  
BRANCH  19  22
HETATM   22  C   UNL     1     -10.015  11.784  64.858  1.00  0.00    -0.247 A  
HETATM   23  C   UNL     1     -10.216  13.072  65.428  1.00  0.00    -0.288 A  
HETATM   24  C   UNL     1     -11.282  13.895  64.995  1.00  0.00    -0.342 A  
HETATM   25 CL   UNL     1      -9.096  13.765  66.574  1.00  0.00    -0.202 Cl 
HETATM   26  C   UNL     1     -12.122  13.490  63.958  1.00  0.00    -0.494 A  
HETATM   27 CL   UNL     1     -11.618  15.445  65.697  1.00  0.00    -0.052 Cl 
HETATM   28  C   UNL     1     -11.926  12.259  63.360  1.00  0.00    -0.588 A  
HETATM   29  C   UNL     1     -10.910  11.421  63.821  1.00  0.00    -0.468 A  
ENDBRANCH  19  22
ENDBRANCH  15  16
ENDBRANCH  14  15
ENDBRANCH  11  14
ENDBRANCH   6   8
ENDBRANCH   4   6
ENDBRANCH   2   4
TORSDOF 7
ENDMDL
MODEL      137
REMARK 921   NORMALIZED FREE ENERGY PREDICTED BY IDOCK:   -3.78 KCAL/MOL
REMARK 922        TOTAL FREE ENERGY PREDICTED BY IDOCK:   -6.10 KCAL/MOL
REMARK 923 INTER-LIGAND FREE ENERGY PREDICTED BY IDOCK:   -5.59 KCAL/MOL
REMARK 924 INTRA-LIGAND FREE ENERGY PREDICTED BY IDOCK:   -0.50 KCAL/MOL
REMARK 927      BINDING AFFINITY PREDICTED BY RF-SCORE:    0.00 PKD
ROOT
HETATM    1  C   UNL     1      -9.901   2.371  71.806  1.00  0.00    -0.158 C  
HETATM    2  N   UNL     1      -9.982   2.869  73.166  1.00  0.00    -0.110 N  
HETATM    3  C   UNL     1      -9.908   1.909  74.255  1.00  0.00    -0.085 C  
ENDROOT
BRANCH   2   4
HETATM    4  C   UNL     1     -10.031   4.248  73.324  1.00  0.00    -0.139 C  
HETATM    5  O   UNL     1      -9.772   4.799  74.392  1.00  0.00    -0.126 OA 
BRANCH   4   6
HETATM    6  N   UNL     1     -10.428   4.943  72.219  1.00  0.00    -0.209 N  
HETATM    7  H   UNL     1     -11.103   4.517  71.584  1.00  0.00     0.000 HD 
BRANCH   6   8
HETATM    8  C   UNL     1      -9.918   6.277  71.915  1.00  0.00    -0.172 C  
HETATM    9  C   UNL     1      -8.564   6.195  71.201  1.00  0.00    -0.125 C  
HETATM   10  C   UNL     1      -8.690   5.613  69.792  1.00  0.00    -0.125 C  
HETATM   11  C   UNL     1      -9.731   6.348  68.927  1.00  0.00    -0.134 C  
HETATM   12  C   UNL     1     -10.937   7.050  71.072  1.00  0.00    -0.279 C  
HETATM   13  C   UNL     1     -11.076   6.481  69.661  1.00  0.00    -0.435 C  
BRANCH  11  14
HETATM   14  C   UNL     1      -9.240   7.733  68.460  1.00  0.00    -0.137 C  
BRANCH  14  15
HETATM   15  C   UNL     1     -10.267   8.525  67.641  1.00  0.00    -0.236 C  
BRANCH  15  16
HETATM   16  N   UNL     1      -9.697   9.625  66.843  1.00  0.00    -0.176 NA 
HETATM   17  C   UNL     1     -10.723  10.582  66.364  1.00  0.00    -0.096 C  
HETATM   18  C   UNL     1     -11.410  11.408  67.477  1.00  0.00    -0.292 C  
HETATM   19  N   UNL     1     -10.394  12.088  68.308  1.00  0.00    -0.198 NA 
HETATM   20  C   UNL     1      -8.713  10.395  67.654  1.00  0.00    -0.118 C  
HETATM   21  C   UNL     1      -9.353  11.184  68.825  1.00  0.00    -0.149 C  
BRANCH  19  22
HETATM   22  C   UNL     1     -10.426  13.462  68.498  1.00  0.00    -0.252 A  
HETATM   23  C   UNL     1      -9.307  14.340  68.487  1.00  0.00    -0.200 A  
HETATM   24  C   UNL     1      -9.472  15.723  68.729  1.00  0.00    -0.219 A  
HETATM   25 CL   UNL     1      -7.708  13.799  68.039  1.00  0.00    -0.136 Cl 
HETATM   26  C   UNL     1     -10.740  16.270  68.923  1.00  0.00    -0.300 A  
HETATM   27 CL   UNL     1      -8.139  16.832  68.793  1.00  0.00    -0.247 Cl 
HETATM   28  C   UNL     1     -11.850  15.445  68.901  1.00  0.00    -0.350 A  
HETATM   29  C   UNL     1     -11.687  14.072  68.718  1.00  0.00    -0.388 A  
ENDBRANCH  19  22
ENDBRANCH  15  16
ENDBRANCH  14  15
ENDBRANCH  11  14
ENDBRANCH   6   8
ENDBRANCH   4   6
ENDBRANCH   2   4
TORSDOF 7
ENDMDL
MODEL      138
REMARK 921   NORMALIZED FREE ENERGY PREDICTED BY IDOCK:   -3.77 KCAL/MOL
REMARK 922        TOTAL FREE ENERGY PREDICTED BY IDOCK:   -6.09 KCAL/MOL
REMARK 923 INTER-LIGAND FREE ENERGY PREDICTED BY IDOCK:   -5.77 KCAL/MOL
REMARK 924 INTRA-LIGAND FREE ENERGY PREDICTED BY IDOCK:   -0.31 KCAL/MOL
REMARK 927      BINDING AFFINITY PREDICTED BY RF-SCORE:    0.00 PKD
ROOT
HETATM    1  C   UNL     1     -12.067   6.206  72.445  1.00  0.00    -0.135 C  
HETATM    2  N   UNL     1     -10.806   5.637  72.881  1.00  0.00    -0.245 N  
HETATM    3  C   UNL     1     -10.802   4.804  74.073  1.00  0.00    -0.258 C  
ENDROOT
BRANCH   2   4
HETATM    4  C   UNL     1      -9.705   5.859  72.064  1.00  0.00    -0.153 C  
HETATM    5  O   UNL     1      -8.771   6.585  72.398  1.00  0.00    -0.127 OA 
BRANCH   4   6
HETATM    6  N   UNL     1      -9.755   5.246  70.845  1.00  0.00    -0.174 N  
HETATM    7  H   UNL     1      -9.279   4.353  70.723  1.00  0.00     0.000 HD 
BRANCH   6   8
HETATM    8  C   UNL     1     -10.468   5.827  69.711  1.00  0.00    -0.292 C  
HETATM    9  C   UNL     1     -10.142   7.318  69.567  1.00  0.00    -0.182 C  
HETATM   10  C   UNL     1      -8.692   7.552  69.139  1.00  0.00    -0.136 C  
HETATM   11  C   UNL     1      -8.305   6.773  67.868  1.00  0.00    -0.120 C  
HETATM   12  C   UNL     1     -10.126   5.063  68.428  1.00  0.00    -0.176 C  
HETATM   13  C   UNL     1      -8.679   5.286  67.987  1.00  0.00    -0.102 C  
BRANCH  11  14
HETATM   14  C   UNL     1      -8.924   7.377  66.592  1.00  0.00    -0.168 C  
BRANCH  14  15
HETATM   15  C   UNL     1      -8.972   8.910  66.577  1.00  0.00    -0.155 C  
BRANCH  15  16
HETATM   16  N   UNL     1     -10.289   9.478  66.238  1.00  0.00    -0.209 NA 
HETATM   17  C   UNL     1     -10.731  10.521  67.196  1.00  0.00    -0.265 C  
HETATM   18  C   UNL     1      -9.885  11.816  67.180  1.00  0.00    -0.193 C  
HETATM   19  N   UNL     1      -9.803  12.355  65.806  1.00  0.00    -0.255 NA 
HETATM   20  C   UNL     1     -10.249  10.102  64.886  1.00  0.00    -0.090 C  
HETATM   21  C   UNL     1      -9.356  11.367  64.810  1.00  0.00    -0.099 C  
BRANCH  19  22
HETATM   22  C   UNL     1     -10.186  13.658  65.523  1.00  0.00    -0.302 A  
HETATM   23  C   UNL     1      -9.542  14.843  65.977  1.00  0.00    -0.313 A  
HETATM   24  C   UNL     1     -10.056  16.117  65.644  1.00  0.00    -0.337 A  
HETATM   25 CL   UNL     1      -8.023  14.801  66.837  1.00  0.00    -0.125 Cl 
HETATM   26  C   UNL     1     -11.169  16.245  64.813  1.00  0.00    -0.267 A  
HETATM   27 CL   UNL     1      -9.354  17.595  66.221  1.00  0.00    -0.251 Cl 
HETATM   28  C   UNL     1     -11.792  15.110  64.326  1.00  0.00    -0.263 A  
HETATM   29  C   UNL     1     -11.322  13.851  64.697  1.00  0.00    -0.380 A  
ENDBRANCH  19  22
ENDBRANCH  15  16
ENDBRANCH  14  15
ENDBRANCH  11  14
ENDBRANCH   6   8
ENDBRANCH   4   6
ENDBRANCH   2   4
TORSDOF 7
ENDMDL
MODEL      139
REMARK 921   NORMALIZED FREE ENERGY PREDICTED BY IDOCK:   -3.71 KCAL/MOL
REMARK 922        TOTAL FREE ENERGY PREDICTED BY IDOCK:   -6.01 KCAL/MOL
REMARK 923 INTER-LIGAND FREE ENERGY PREDICTED BY IDOCK:   -5.95 KCAL/MOL
REMARK 924 INTRA-LIGAND FREE ENERGY PREDICTED BY IDOCK:   -0.06 KCAL/MOL
REMARK 927      BINDING AFFINITY PREDICTED BY RF-SCORE:    0.00 PKD
ROOT
HETATM    1  C   UNL     1     -11.322  16.459  68.145  1.00  0.00    -0.205 C  
HETATM    2  N   UNL     1     -10.852  15.919  66.883  1.00  0.00    -0.286 N  
HETATM    3  C   UNL     1      -9.784  16.620  66.189  1.00  0.00    -0.303 C  
ENDROOT
BRANCH   2   4
HETATM    4  C   UNL     1     -11.402  14.710  66.479  1.00  0.00    -0.353 C  
HETATM    5  O   UNL     1     -12.615  14.509  66.463  1.00  0.00    -0.214 OA 
BRANCH   4   6
HETATM    6  N   UNL     1     -10.497  13.746  66.141  1.00  0.00    -0.292 N  
HETATM    7  H   UNL     1     -10.415  13.468  65.162  1.00  0.00     0.000 HD 
BRANCH   6   8
HETATM    8  C   UNL     1      -9.641  13.100  67.131  1.00  0.00    -0.235 C  
HETATM    9  C   UNL     1     -10.461  12.630  68.339  1.00  0.00    -0.248 C  
HETATM   10  C   UNL     1     -11.401  11.477  67.982  1.00  0.00    -0.368 C  
HETATM   11  C   UNL     1     -10.678  10.296  67.308  1.00  0.00    -0.323 C  
HETATM   12  C   UNL     1      -8.886  11.931  66.492  1.00  0.00    -0.178 C  
HETATM   13  C   UNL     1      -9.811  10.769  66.129  1.00  0.00    -0.269 C  
BRANCH  11  14
HETATM   14  C   UNL     1      -9.827   9.479  68.300  1.00  0.00    -0.174 C  
BRANCH  14  15
HETATM   15  C   UNL     1     -10.641   8.604  69.261  1.00  0.00    -0.192 C  
BRANCH  15  16
HETATM   16  N   UNL     1     -10.461   7.154  69.071  1.00  0.00    -0.206 NA 
HETATM   17  C   UNL     1      -9.099   6.690  69.429  1.00  0.00    -0.143 C  
HETATM   18  C   UNL     1      -8.752   6.793  70.933  1.00  0.00    -0.142 C  
HETATM   19  N   UNL     1      -9.778   6.103  71.741  1.00  0.00    -0.154 NA 
HETATM   20  C   UNL     1     -11.426   6.399  69.920  1.00  0.00    -0.415 C  
HETATM   21  C   UNL     1     -11.155   6.531  71.440  1.00  0.00    -0.268 C  
BRANCH  19  22
HETATM   22  C   UNL     1      -9.431   5.103  72.640  1.00  0.00    -0.140 A  
HETATM   23  C   UNL     1      -8.112   4.661  72.938  1.00  0.00    -0.100 A  
HETATM   24  C   UNL     1      -7.895   3.604  73.852  1.00  0.00    -0.071 A  
HETATM   25 CL   UNL     1      -6.698   5.473  72.316  1.00  0.00    -0.067 Cl 
HETATM   26  C   UNL     1      -8.961   3.013  74.529  1.00  0.00    -0.091 A  
HETATM   27 CL   UNL     1      -6.317   2.976  74.207  1.00  0.00    -0.023 Cl 
HETATM   28  C   UNL     1     -10.251   3.450  74.287  1.00  0.00    -0.222 A  
HETATM   29  C   UNL     1     -10.475   4.454  73.344  1.00  0.00    -0.262 A  
ENDBRANCH  19  22
ENDBRANCH  15  16
ENDBRANCH  14  15
ENDBRANCH  11  14
ENDBRANCH   6   8
ENDBRANCH   4   6
ENDBRANCH   2   4
TORSDOF 7
ENDMDL
MODEL      140
REMARK 921   NORMALIZED FREE ENERGY PREDICTED BY IDOCK:   -3.70 KCAL/MOL
REMARK 922        TOTAL FREE ENERGY PREDICTED BY IDOCK:   -5.99 KCAL/MOL
REMARK 923 INTER-LIGAND FREE ENERGY PREDICTED BY IDOCK:   -5.67 KCAL/MOL
REMARK 924 INTRA-LIGAND FREE ENERGY PREDICTED BY IDOCK:   -0.32 KCAL/MOL
REMARK 927      BINDING AFFINITY PREDICTED BY RF-SCORE:    0.00 PKD
ROOT
HETATM    1  C   UNL     1     -10.442   4.898  74.283  1.00  0.00    -0.288 C  
HETATM    2  N   UNL     1     -10.644   3.796  73.362  1.00  0.00    -0.177 N  
HETATM    3  C   UNL     1     -11.644   2.795  73.694  1.00  0.00    -0.003 C  
ENDROOT
BRANCH   2   4
HETATM    4  C   UNL     1      -9.922   3.834  72.176  1.00  0.00    -0.169 C  
HETATM    5  O   UNL     1      -9.820   2.860  71.434  1.00  0.00    -0.163 OA 
BRANCH   4   6
HETATM    6  N   UNL     1      -9.300   5.020  71.915  1.00  0.00    -0.140 N  
HETATM    7  H   UNL     1      -8.288   5.082  72.030  1.00  0.00     0.000 HD 
BRANCH   6   8
HETATM    8  C   UNL     1     -10.033   6.204  71.478  1.00  0.00    -0.182 C  
HETATM    9  C   UNL     1      -9.071   7.344  71.123  1.00  0.00    -0.148 C  
HETATM   10  C   UNL     1      -8.255   7.037  69.866  1.00  0.00    -0.130 C  
HETATM   11  C   UNL     1      -9.129   6.652  68.658  1.00  0.00    -0.126 C  
HETATM   12  C   UNL     1     -10.934   5.856  70.289  1.00  0.00    -0.390 C  
HETATM   13  C   UNL     1     -10.134   5.546  69.024  1.00  0.00    -0.275 C  
BRANCH  11  14
HETATM   14  C   UNL     1      -9.867   7.862  68.052  1.00  0.00    -0.195 C  
BRANCH  14  15
HETATM   15  C   UNL     1      -8.955   8.863  67.331  1.00  0.00    -0.132 C  
BRANCH  15  16
HETATM   16  N   UNL     1      -9.579   9.541  66.181  1.00  0.00    -0.218 NA 
HETATM   17  C   UNL     1     -10.738  10.382  66.566  1.00  0.00    -0.092 C  
HETATM   18  C   UNL     1     -10.387  11.617  67.428  1.00  0.00    -0.205 C  
HETATM   19  N   UNL     1      -9.342  12.423  66.761  1.00  0.00    -0.216 NA 
HETATM   20  C   UNL     1      -8.590  10.428  65.507  1.00  0.00    -0.169 C  
HETATM   21  C   UNL     1      -8.157  11.645  66.366  1.00  0.00    -0.023 C  
BRANCH  19  22
HETATM   22  C   UNL     1      -9.538  13.772  66.496  1.00  0.00    -0.285 A  
HETATM   23  C   UNL     1     -10.425  14.319  65.529  1.00  0.00    -0.346 A  
HETATM   24  C   UNL     1     -10.506  15.717  65.333  1.00  0.00    -0.414 A  
HETATM   25 CL   UNL     1     -11.555  13.328  64.639  1.00  0.00    -0.363 Cl 
HETATM   26  C   UNL     1      -9.765  16.595  66.124  1.00  0.00    -0.329 A  
HETATM   27 CL   UNL     1     -11.519  16.441  64.124  1.00  0.00    -0.055 Cl 
HETATM   28  C   UNL     1      -8.923  16.091  67.098  1.00  0.00    -0.220 A  
HETATM   29  C   UNL     1      -8.798  14.711  67.257  1.00  0.00    -0.220 A  
ENDBRANCH  19  22
ENDBRANCH  15  16
ENDBRANCH  14  15
ENDBRANCH  11  14
ENDBRANCH   6   8
ENDBRANCH   4   6
ENDBRANCH   2   4
TORSDOF 7
ENDMDL
MODEL      141
REMARK 921   NORMALIZED FREE ENERGY PREDICTED BY IDOCK:   -3.69 KCAL/MOL
REMARK 922        TOTAL FREE ENERGY PREDICTED BY IDOCK:   -5.97 KCAL/MOL
REMARK 923 INTER-LIGAND FREE ENERGY PREDICTED BY IDOCK:   -5.13 KCAL/MOL
REMARK 924 INTRA-LIGAND FREE ENERGY PREDICTED BY IDOCK:   -0.84 KCAL/MOL
REMARK 927      BINDING AFFINITY PREDICTED BY RF-SCORE:    0.00 PKD
ROOT
HETATM    1  C   UNL     1     -12.330  14.315  67.018  1.00  0.00    -0.168 C  
HETATM    2  N   UNL     1     -10.884  14.382  67.119  1.00  0.00    -0.288 N  
HETATM    3  C   UNL     1     -10.279  15.642  67.518  1.00  0.00    -0.263 C  
ENDROOT
BRANCH   2   4
HETATM    4  C   UNL     1     -10.189  13.197  66.915  1.00  0.00    -0.245 C  
HETATM    5  O   UNL     1      -9.663  12.918  65.839  1.00  0.00    -0.252 OA 
BRANCH   4   6
HETATM    6  N   UNL     1     -10.167  12.347  67.982  1.00  0.00    -0.213 N  
HETATM    7  H   UNL     1      -9.769  12.672  68.863  1.00  0.00     0.000 HD 
BRANCH   6   8
HETATM    8  C   UNL     1     -10.694  10.988  67.904  1.00  0.00    -0.219 C  
HETATM    9  C   UNL     1      -9.633   9.965  68.327  1.00  0.00    -0.151 C  
HETATM   10  C   UNL     1      -9.308  10.057  69.819  1.00  0.00    -0.233 C  
HETATM   11  C   UNL     1     -10.557   9.965  70.716  1.00  0.00    -0.309 C  
HETATM   12  C   UNL     1     -11.954  10.861  68.768  1.00  0.00    -0.230 C  
HETATM   13  C   UNL     1     -11.646  10.952  70.262  1.00  0.00    -0.426 C  
BRANCH  11  14
HETATM   14  C   UNL     1     -11.130   8.536  70.788  1.00  0.00    -0.288 C  
BRANCH  14  15
HETATM   15  C   UNL     1     -10.141   7.483  71.303  1.00  0.00    -0.187 C  
BRANCH  15  16
HETATM   16  N   UNL     1     -10.356   6.127  70.767  1.00  0.00    -0.204 NA 
HETATM   17  C   UNL     1     -10.710   6.125  69.327  1.00  0.00    -0.318 C  
HETATM   18  C   UNL     1      -9.580   6.594  68.381  1.00  0.00    -0.123 C  
HETATM   19  N   UNL     1      -8.350   5.812  68.629  1.00  0.00    -0.107 NA 
HETATM   20  C   UNL     1      -9.121   5.308  70.925  1.00  0.00    -0.138 C  
HETATM   21  C   UNL     1      -7.940   5.788  70.043  1.00  0.00    -0.099 C  
BRANCH  19  22
HETATM   22  C   UNL     1      -7.716   5.128  67.601  1.00  0.00    -0.088 A  
HETATM   23  C   UNL     1      -8.046   3.829  67.125  1.00  0.00    -0.091 A  
HETATM   24  C   UNL     1      -7.295   3.227  66.088  1.00  0.00    -0.072 A  
HETATM   25 CL   UNL     1      -9.460   2.969  67.680  1.00  0.00    -0.240 Cl 
HETATM   26  C   UNL     1      -6.254   3.916  65.466  1.00  0.00    -0.031 A  
HETATM   27 CL   UNL     1      -7.607   1.621  65.511  1.00  0.00    -0.065 Cl 
HETATM   28  C   UNL     1      -5.936   5.196  65.883  1.00  0.00    -0.022 A  
HETATM   29  C   UNL     1      -6.638   5.771  66.943  1.00  0.00    -0.056 A  
ENDBRANCH  19  22
ENDBRANCH  15  16
ENDBRANCH  14  15
ENDBRANCH  11  14
ENDBRANCH   6   8
ENDBRANCH   4   6
ENDBRANCH   2   4
TORSDOF 7
ENDMDL
MODEL      142
REMARK 921   NORMALIZED FREE ENERGY PREDICTED BY IDOCK:   -3.68 KCAL/MOL
REMARK 922        TOTAL FREE ENERGY PREDICTED BY IDOCK:   -5.96 KCAL/MOL
REMARK 923 INTER-LIGAND FREE ENERGY PREDICTED BY IDOCK:   -5.60 KCAL/MOL
REMARK 924 INTRA-LIGAND FREE ENERGY PREDICTED BY IDOCK:   -0.36 KCAL/MOL
REMARK 927      BINDING AFFINITY PREDICTED BY RF-SCORE:    0.00 PKD
ROOT
HETATM    1  C   UNL     1     -13.188  13.724  64.865  1.00  0.00     0.340 C  
HETATM    2  N   UNL     1     -11.752  13.872  64.726  1.00  0.00    -0.367 N  
HETATM    3  C   UNL     1     -11.129  15.074  65.255  1.00  0.00    -0.386 C  
ENDROOT
BRANCH   2   4
HETATM    4  C   UNL     1     -11.064  12.800  64.173  1.00  0.00    -0.389 C  
HETATM    5  O   UNL     1     -11.510  12.143  63.234  1.00  0.00    -0.398 OA 
BRANCH   4   6
HETATM    6  N   UNL     1      -9.876  12.501  64.775  1.00  0.00    -0.487 N  
HETATM    7  H   UNL     1      -9.070  13.103  64.600  1.00  0.00     0.000 HD 
BRANCH   6   8
HETATM    8  C   UNL     1      -9.719  11.351  65.659  1.00  0.00    -0.231 C  
HETATM    9  C   UNL     1      -9.575  10.056  64.852  1.00  0.00    -0.375 C  
HETATM   10  C   UNL     1      -8.254  10.002  64.082  1.00  0.00    -0.159 C  
HETATM   11  C   UNL     1      -7.023  10.238  64.978  1.00  0.00    -0.112 C  
HETATM   12  C   UNL     1      -8.515  11.558  66.584  1.00  0.00    -0.172 C  
HETATM   13  C   UNL     1      -7.187  11.508  65.830  1.00  0.00     0.472 C  
BRANCH  11  14
HETATM   14  C   UNL     1      -6.707   9.029  65.879  1.00  0.00    -0.072 C  
BRANCH  14  15
HETATM   15  C   UNL     1      -7.380   7.722  65.443  1.00  0.00    -0.077 C  
BRANCH  15  16
HETATM   16  N   UNL     1      -7.637   6.770  66.539  1.00  0.00    -0.088 NA 
HETATM   17  C   UNL     1      -7.320   7.330  67.875  1.00  0.00    -0.097 C  
HETATM   18  C   UNL     1      -8.239   8.489  68.327  1.00  0.00    -0.123 C  
HETATM   19  N   UNL     1      -9.657   8.079  68.243  1.00  0.00    -0.145 NA 
HETATM   20  C   UNL     1      -9.073   6.372  66.550  1.00  0.00    -0.151 C  
HETATM   21  C   UNL     1     -10.036   7.526  66.932  1.00  0.00    -0.248 C  
BRANCH  19  22
HETATM   22  C   UNL     1     -10.494   8.165  69.347  1.00  0.00    -0.220 A  
HETATM   23  C   UNL     1     -11.202   9.322  69.778  1.00  0.00    -0.085 A  
HETATM   24  C   UNL     1     -12.000   9.287  70.945  1.00  0.00    -0.257 A  
HETATM   25 CL   UNL     1     -11.246  10.789  68.833  1.00  0.00    -0.296 Cl 
HETATM   26  C   UNL     1     -12.162   8.104  71.666  1.00  0.00    -0.343 A  
HETATM   27 CL   UNL     1     -12.833  10.680  71.557  1.00  0.00    -0.536 Cl 
HETATM   28  C   UNL     1     -11.516   6.955  71.247  1.00  0.00    -0.337 A  
HETATM   29  C   UNL     1     -10.683   6.999  70.129  1.00  0.00    -0.265 A  
ENDBRANCH  19  22
ENDBRANCH  15  16
ENDBRANCH  14  15
ENDBRANCH  11  14
ENDBRANCH   6   8
ENDBRANCH   4   6
ENDBRANCH   2   4
TORSDOF 7
ENDMDL
MODEL      143
REMARK 921   NORMALIZED FREE ENERGY PREDICTED BY IDOCK:   -3.67 KCAL/MOL
REMARK 922        TOTAL FREE ENERGY PREDICTED BY IDOCK:   -5.95 KCAL/MOL
REMARK 923 INTER-LIGAND FREE ENERGY PREDICTED BY IDOCK:   -6.39 KCAL/MOL
REMARK 924 INTRA-LIGAND FREE ENERGY PREDICTED BY IDOCK:    0.44 KCAL/MOL
REMARK 927      BINDING AFFINITY PREDICTED BY RF-SCORE:    0.00 PKD
ROOT
HETATM    1  C   UNL     1     -12.397  15.303  69.001  1.00  0.00    -0.013 C  
HETATM    2  N   UNL     1     -11.088  15.351  68.378  1.00  0.00    -0.285 N  
HETATM    3  C   UNL     1      -9.916  15.208  69.225  1.00  0.00    -0.242 C  
ENDROOT
BRANCH   2   4
HETATM    4  C   UNL     1     -11.060  15.438  66.992  1.00  0.00    -0.273 C  
HETATM    5  O   UNL     1     -10.379  16.270  66.396  1.00  0.00    -0.296 OA 
BRANCH   4   6
HETATM    6  N   UNL     1     -11.877  14.560  66.340  1.00  0.00    -0.375 N  
HETATM    7  H   UNL     1     -12.604  14.926  65.725  1.00  0.00     0.000 HD 
BRANCH   6   8
HETATM    8  C   UNL     1     -11.745  13.114  66.494  1.00  0.00    -0.382 C  
HETATM    9  C   UNL     1     -12.433  12.377  65.339  1.00  0.00    -0.181 C  
HETATM   10  C   UNL     1     -11.707  12.586  64.009  1.00  0.00    -0.499 C  
HETATM   11  C   UNL     1     -10.209  12.237  64.077  1.00  0.00    -0.399 C  
HETATM   12  C   UNL     1     -10.265  12.728  66.588  1.00  0.00    -0.246 C  
HETATM   13  C   UNL     1      -9.525  12.932  65.267  1.00  0.00     0.243 C  
BRANCH  11  14
HETATM   14  C   UNL     1      -9.958  10.717  64.133  1.00  0.00    -0.406 C  
BRANCH  14  15
HETATM   15  C   UNL     1      -8.966  10.279  65.219  1.00  0.00    -0.186 C  
BRANCH  15  16
HETATM   16  N   UNL     1      -9.260   8.968  65.824  1.00  0.00    -0.222 NA 
HETATM   17  C   UNL     1      -8.202   8.513  66.757  1.00  0.00    -0.105 C  
HETATM   18  C   UNL     1      -8.063   9.361  68.044  1.00  0.00    -0.106 C  
HETATM   19  N   UNL     1      -9.369   9.464  68.730  1.00  0.00    -0.145 NA 
HETATM   20  C   UNL     1     -10.536   9.029  66.592  1.00  0.00    -0.165 C  
HETATM   21  C   UNL     1     -10.461   9.925  67.855  1.00  0.00    -0.236 C  
BRANCH  19  22
HETATM   22  C   UNL     1      -9.514   9.086  70.057  1.00  0.00    -0.187 A  
HETATM   23  C   UNL     1      -8.462   8.876  70.992  1.00  0.00    -0.198 A  
HETATM   24  C   UNL     1      -8.744   8.457  72.313  1.00  0.00    -0.209 A  
HETATM   25 CL   UNL     1      -6.799   9.253  70.618  1.00  0.00    -0.083 Cl 
HETATM   26  C   UNL     1     -10.059   8.300  72.749  1.00  0.00    -0.333 A  
HETATM   27 CL   UNL     1      -7.503   8.121  73.478  1.00  0.00    -0.190 Cl 
HETATM   28  C   UNL     1     -11.103   8.535  71.872  1.00  0.00    -0.395 A  
HETATM   29  C   UNL     1     -10.828   8.894  70.552  1.00  0.00    -0.276 A  
ENDBRANCH  19  22
ENDBRANCH  15  16
ENDBRANCH  14  15
ENDBRANCH  11  14
ENDBRANCH   6   8
ENDBRANCH   4   6
ENDBRANCH   2   4
TORSDOF 7
ENDMDL
MODEL      144
REMARK 921   NORMALIZED FREE ENERGY PREDICTED BY IDOCK:   -3.66 KCAL/MOL
REMARK 922        TOTAL FREE ENERGY PREDICTED BY IDOCK:   -5.93 KCAL/MOL
REMARK 923 INTER-LIGAND FREE ENERGY PREDICTED BY IDOCK:   -5.02 KCAL/MOL
REMARK 924 INTRA-LIGAND FREE ENERGY PREDICTED BY IDOCK:   -0.91 KCAL/MOL
REMARK 927      BINDING AFFINITY PREDICTED BY RF-SCORE:    0.00 PKD
ROOT
HETATM    1  C   UNL     1     -12.187  15.070  64.397  1.00  0.00    -0.337 C  
HETATM    2  N   UNL     1     -10.879  14.745  64.933  1.00  0.00    -0.410 N  
HETATM    3  C   UNL     1     -10.146  15.783  65.639  1.00  0.00    -0.371 C  
ENDROOT
BRANCH   2   4
HETATM    4  C   UNL     1     -10.464  13.425  64.810  1.00  0.00    -0.403 C  
HETATM    5  O   UNL     1     -10.990  12.639  64.025  1.00  0.00    -0.349 OA 
BRANCH   4   6
HETATM    6  N   UNL     1      -9.457  13.053  65.652  1.00  0.00    -0.469 N  
HETATM    7  H   UNL     1      -8.491  13.209  65.364  1.00  0.00     0.000 HD 
BRANCH   6   8
HETATM    8  C   UNL     1      -9.716  12.440  66.951  1.00  0.00    -0.215 C  
HETATM    9  C   UNL     1      -8.999  11.090  67.072  1.00  0.00    -0.151 C  
HETATM   10  C   UNL     1      -7.479  11.250  67.133  1.00  0.00    -0.130 C  
HETATM   11  C   UNL     1      -7.018  12.223  68.234  1.00  0.00    -0.082 C  
HETATM   12  C   UNL     1      -9.291  13.390  68.076  1.00  0.00    -0.217 C  
HETATM   13  C   UNL     1      -7.774  13.560  68.151  1.00  0.00    -0.139 C  
BRANCH  11  14
HETATM   14  C   UNL     1      -7.151  11.624  69.648  1.00  0.00     0.128 C  
BRANCH  14  15
HETATM   15  C   UNL     1      -6.380  10.315  69.855  1.00  0.00    -0.082 C  
BRANCH  15  16
HETATM   16  N   UNL     1      -6.969   9.409  70.857  1.00  0.00    -0.184 NA 
HETATM   17  C   UNL     1      -8.384   9.071  70.569  1.00  0.00    -0.183 C  
HETATM   18  C   UNL     1      -8.601   8.217  69.297  1.00  0.00    -0.138 C  
HETATM   19  N   UNL     1      -7.764   7.000  69.351  1.00  0.00    -0.106 NA 
HETATM   20  C   UNL     1      -6.207   8.129  70.907  1.00  0.00    -0.033 C  
HETATM   21  C   UNL     1      -6.342   7.273  69.622  1.00  0.00    -0.035 C  
BRANCH  19  22
HETATM   22  C   UNL     1      -8.324   5.738  69.219  1.00  0.00    -0.108 A  
HETATM   23  C   UNL     1      -8.464   5.001  68.010  1.00  0.00    -0.103 A  
HETATM   24  C   UNL     1      -9.088   3.732  68.005  1.00  0.00    -0.144 A  
HETATM   25 CL   UNL     1      -7.758   5.541  66.507  1.00  0.00    -0.099 Cl 
HETATM   26  C   UNL     1      -9.526   3.146  69.192  1.00  0.00    -0.177 A  
HETATM   27 CL   UNL     1      -9.346   2.815  66.555  1.00  0.00    -0.095 Cl 
HETATM   28  C   UNL     1      -9.368   3.823  70.388  1.00  0.00    -0.235 A  
HETATM   29  C   UNL     1      -8.804   5.099  70.390  1.00  0.00    -0.148 A  
ENDBRANCH  19  22
ENDBRANCH  15  16
ENDBRANCH  14  15
ENDBRANCH  11  14
ENDBRANCH   6   8
ENDBRANCH   4   6
ENDBRANCH   2   4
TORSDOF 7
ENDMDL
MODEL      145
REMARK 921   NORMALIZED FREE ENERGY PREDICTED BY IDOCK:   -3.65 KCAL/MOL
REMARK 922        TOTAL FREE ENERGY PREDICTED BY IDOCK:   -5.92 KCAL/MOL
REMARK 923 INTER-LIGAND FREE ENERGY PREDICTED BY IDOCK:   -6.42 KCAL/MOL
REMARK 924 INTRA-LIGAND FREE ENERGY PREDICTED BY IDOCK:    0.51 KCAL/MOL
REMARK 927      BINDING AFFINITY PREDICTED BY RF-SCORE:    0.00 PKD
ROOT
HETATM    1  C   UNL     1      -6.790   7.975  70.745  1.00  0.00    -0.037 C  
HETATM    2  N   UNL     1      -6.710   7.520  69.370  1.00  0.00    -0.040 N  
HETATM    3  C   UNL     1      -5.406   7.498  68.727  1.00  0.00    -0.022 C  
ENDROOT
BRANCH   2   4
HETATM    4  C   UNL     1      -7.885   7.048  68.800  1.00  0.00    -0.118 C  
HETATM    5  O   UNL     1      -8.444   6.025  69.190  1.00  0.00    -0.113 OA 
BRANCH   4   6
HETATM    6  N   UNL     1      -8.351   7.779  67.746  1.00  0.00    -0.125 N  
HETATM    7  H   UNL     1      -8.792   7.293  66.965  1.00  0.00     0.000 HD 
BRANCH   6   8
HETATM    8  C   UNL     1      -8.242   9.234  67.700  1.00  0.00    -0.115 C  
HETATM    9  C   UNL     1      -7.759   9.702  66.322  1.00  0.00    -0.101 C  
HETATM   10  C   UNL     1      -8.807   9.463  65.233  1.00  0.00    -0.227 C  
HETATM   11  C   UNL     1     -10.182  10.068  65.576  1.00  0.00    -0.248 C  
HETATM   12  C   UNL     1      -9.586   9.875  68.058  1.00  0.00    -0.155 C  
HETATM   13  C   UNL     1     -10.645   9.645  66.980  1.00  0.00    -0.267 C  
BRANCH  11  14
HETATM   14  C   UNL     1     -10.200  11.605  65.450  1.00  0.00    -0.306 C  
BRANCH  14  15
HETATM   15  C   UNL     1     -11.266  12.148  64.490  1.00  0.00    -0.331 C  
BRANCH  15  16
HETATM   16  N   UNL     1     -12.254  13.044  65.117  1.00  0.00    -0.432 NA 
HETATM   17  C   UNL     1     -12.107  13.125  66.590  1.00  0.00    -0.346 C  
HETATM   18  C   UNL     1     -10.806  13.804  67.077  1.00  0.00    -0.284 C  
HETATM   19  N   UNL     1     -10.663  15.137  66.454  1.00  0.00    -0.312 NA 
HETATM   20  C   UNL     1     -12.111  14.426  64.578  1.00  0.00    -0.481 C  
HETATM   21  C   UNL     1     -10.786  15.120  64.986  1.00  0.00    -0.440 C  
BRANCH  19  22
HETATM   22  C   UNL     1     -10.496  16.277  67.229  1.00  0.00    -0.300 A  
HETATM   23  C   UNL     1     -10.465  17.618  66.757  1.00  0.00    -0.289 A  
HETATM   24  C   UNL     1     -10.253  18.693  67.651  1.00  0.00    -0.384 A  
HETATM   25 CL   UNL     1     -10.822  18.027  65.098  1.00  0.00     0.211 Cl 
HETATM   26  C   UNL     1     -10.132  18.470  69.022  1.00  0.00    -0.276 A  
HETATM   27 CL   UNL     1     -10.138  20.343  67.128  1.00  0.00    -0.556 Cl 
HETATM   28  C   UNL     1     -10.197  17.179  69.513  1.00  0.00    -0.079 A  
HETATM   29  C   UNL     1     -10.350  16.111  68.628  1.00  0.00    -0.252 A  
ENDBRANCH  19  22
ENDBRANCH  15  16
ENDBRANCH  14  15
ENDBRANCH  11  14
ENDBRANCH   6   8
ENDBRANCH   4   6
ENDBRANCH   2   4
TORSDOF 7
ENDMDL
MODEL      146
REMARK 921   NORMALIZED FREE ENERGY PREDICTED BY IDOCK:   -3.63 KCAL/MOL
REMARK 922        TOTAL FREE ENERGY PREDICTED BY IDOCK:   -5.89 KCAL/MOL
REMARK 923 INTER-LIGAND FREE ENERGY PREDICTED BY IDOCK:   -5.74 KCAL/MOL
REMARK 924 INTRA-LIGAND FREE ENERGY PREDICTED BY IDOCK:   -0.14 KCAL/MOL
REMARK 927      BINDING AFFINITY PREDICTED BY RF-SCORE:    0.00 PKD
ROOT
HETATM    1  C   UNL     1     -10.522   2.566  74.434  1.00  0.00    -0.154 C  
HETATM    2  N   UNL     1      -9.582   2.913  73.386  1.00  0.00    -0.091 N  
HETATM    3  C   UNL     1      -9.304   1.927  72.355  1.00  0.00    -0.079 C  
ENDROOT
BRANCH   2   4
HETATM    4  C   UNL     1      -9.086   4.211  73.398  1.00  0.00    -0.102 C  
HETATM    5  O   UNL     1      -9.232   4.964  74.358  1.00  0.00    -0.113 OA 
BRANCH   4   6
HETATM    6  N   UNL     1      -8.460   4.602  72.250  1.00  0.00    -0.117 N  
HETATM    7  H   UNL     1      -7.714   4.018  71.871  1.00  0.00     0.000 HD 
BRANCH   6   8
HETATM    8  C   UNL     1      -8.823   5.828  71.545  1.00  0.00    -0.136 C  
HETATM    9  C   UNL     1      -7.697   6.270  70.603  1.00  0.00    -0.105 C  
HETATM   10  C   UNL     1      -7.522   5.309  69.425  1.00  0.00    -0.065 C  
HETATM   11  C   UNL     1      -8.829   5.059  68.650  1.00  0.00    -0.111 C  
HETATM   12  C   UNL     1     -10.134   5.626  70.778  1.00  0.00    -0.270 C  
HETATM   13  C   UNL     1      -9.976   4.668  69.598  1.00  0.00    -0.281 C  
BRANCH  11  14
HETATM   14  C   UNL     1      -9.244   6.265  67.784  1.00  0.00    -0.115 C  
BRANCH  14  15
HETATM   15  C   UNL     1      -8.347   7.499  67.947  1.00  0.00    -0.123 C  
BRANCH  15  16
HETATM   16  N   UNL     1      -8.869   8.516  68.878  1.00  0.00    -0.138 NA 
HETATM   17  C   UNL     1      -8.260   9.852  68.672  1.00  0.00    -0.108 C  
HETATM   18  C   UNL     1      -8.621  10.530  67.329  1.00  0.00    -0.122 C  
HETATM   19  N   UNL     1     -10.089  10.581  67.162  1.00  0.00    -0.200 NA 
HETATM   20  C   UNL     1     -10.341   8.665  68.706  1.00  0.00    -0.208 C  
HETATM   21  C   UNL     1     -10.751   9.278  67.343  1.00  0.00    -0.193 C  
BRANCH  19  22
HETATM   22  C   UNL     1     -10.742  11.783  66.925  1.00  0.00    -0.250 A  
HETATM   23  C   UNL     1     -11.073  12.324  65.652  1.00  0.00    -0.317 A  
HETATM   24  C   UNL     1     -11.712  13.581  65.546  1.00  0.00    -0.340 A  
HETATM   25 CL   UNL     1     -10.847  11.423  64.174  1.00  0.00    -0.427 Cl 
HETATM   26  C   UNL     1     -12.087  14.292  66.685  1.00  0.00    -0.448 A  
HETATM   27 CL   UNL     1     -12.081  14.323  64.021  1.00  0.00    -0.432 Cl 
HETATM   28  C   UNL     1     -11.812  13.771  67.937  1.00  0.00    -0.413 A  
HETATM   29  C   UNL     1     -11.133  12.558  68.046  1.00  0.00    -0.285 A  
ENDBRANCH  19  22
ENDBRANCH  15  16
ENDBRANCH  14  15
ENDBRANCH  11  14
ENDBRANCH   6   8
ENDBRANCH   4   6
ENDBRANCH   2   4
TORSDOF 7
ENDMDL
MODEL      147
REMARK 921   NORMALIZED FREE ENERGY PREDICTED BY IDOCK:   -3.62 KCAL/MOL
REMARK 922        TOTAL FREE ENERGY PREDICTED BY IDOCK:   -5.87 KCAL/MOL
REMARK 923 INTER-LIGAND FREE ENERGY PREDICTED BY IDOCK:   -5.10 KCAL/MOL
REMARK 924 INTRA-LIGAND FREE ENERGY PREDICTED BY IDOCK:   -0.77 KCAL/MOL
REMARK 927      BINDING AFFINITY PREDICTED BY RF-SCORE:    0.00 PKD
ROOT
HETATM    1  C   UNL     1      -9.105   1.683  66.155  1.00  0.00    -0.040 C  
HETATM    2  N   UNL     1      -8.332   2.909  66.081  1.00  0.00    -0.092 N  
HETATM    3  C   UNL     1      -8.662   3.869  65.041  1.00  0.00    -0.116 C  
ENDROOT
BRANCH   2   4
HETATM    4  C   UNL     1      -7.388   3.112  67.079  1.00  0.00    -0.062 C  
HETATM    5  O   UNL     1      -6.185   3.192  66.843  1.00  0.00    -0.024 OA 
BRANCH   4   6
HETATM    6  N   UNL     1      -7.890   3.175  68.347  1.00  0.00    -0.058 N  
HETATM    7  H   UNL     1      -8.475   2.410  68.684  1.00  0.00     0.000 HD 
BRANCH   6   8
HETATM    8  C   UNL     1      -7.618   4.299  69.236  1.00  0.00    -0.054 C  
HETATM    9  C   UNL     1      -8.250   5.588  68.698  1.00  0.00    -0.102 C  
HETATM   10  C   UNL     1      -9.778   5.547  68.755  1.00  0.00    -0.190 C  
HETATM   11  C   UNL     1     -10.321   5.205  70.155  1.00  0.00    -0.340 C  
HETATM   12  C   UNL     1      -8.124   3.988  70.649  1.00  0.00    -0.061 C  
HETATM   13  C   UNL     1      -9.650   3.943  70.722  1.00  0.00    -0.259 C  
BRANCH  11  14
HETATM   14  C   UNL     1     -10.177   6.376  71.147  1.00  0.00    -0.224 C  
BRANCH  14  15
HETATM   15  C   UNL     1     -10.887   7.664  70.712  1.00  0.00    -0.239 C  
BRANCH  15  16
HETATM   16  N   UNL     1     -10.277   8.903  71.227  1.00  0.00    -0.262 NA 
HETATM   17  C   UNL     1      -8.931   9.161  70.660  1.00  0.00    -0.244 C  
HETATM   18  C   UNL     1      -8.914   9.481  69.147  1.00  0.00    -0.148 C  
HETATM   19  N   UNL     1      -9.839  10.595  68.850  1.00  0.00    -0.194 NA 
HETATM   20  C   UNL     1     -11.133  10.076  70.894  1.00  0.00    -0.314 C  
HETATM   21  C   UNL     1     -11.199  10.390  69.377  1.00  0.00    -0.259 C  
BRANCH  19  22
HETATM   22  C   UNL     1      -9.401  11.735  68.191  1.00  0.00    -0.190 A  
HETATM   23  C   UNL     1     -10.091  12.429  67.159  1.00  0.00    -0.213 A  
HETATM   24  C   UNL     1      -9.516  13.564  66.543  1.00  0.00    -0.256 A  
HETATM   25 CL   UNL     1     -11.723  12.017  66.695  1.00  0.00    -0.387 Cl 
HETATM   26  C   UNL     1      -8.289  14.068  66.973  1.00  0.00    -0.127 A  
HETATM   27 CL   UNL     1     -10.278  14.412  65.235  1.00  0.00    -0.404 Cl 
HETATM   28  C   UNL     1      -7.613  13.435  68.002  1.00  0.00    -0.143 A  
HETATM   29  C   UNL     1      -8.151  12.282  68.574  1.00  0.00    -0.101 A  
ENDBRANCH  19  22
ENDBRANCH  15  16
ENDBRANCH  14  15
ENDBRANCH  11  14
ENDBRANCH   6   8
ENDBRANCH   4   6
ENDBRANCH   2   4
TORSDOF 7
ENDMDL
MODEL      148
REMARK 921   NORMALIZED FREE ENERGY PREDICTED BY IDOCK:   -3.60 KCAL/MOL
REMARK 922        TOTAL FREE ENERGY PREDICTED BY IDOCK:   -5.84 KCAL/MOL
REMARK 923 INTER-LIGAND FREE ENERGY PREDICTED BY IDOCK:   -5.19 KCAL/MOL
REMARK 924 INTRA-LIGAND FREE ENERGY PREDICTED BY IDOCK:   -0.65 KCAL/MOL
REMARK 927      BINDING AFFINITY PREDICTED BY RF-SCORE:    0.00 PKD
ROOT
HETATM    1  C   UNL     1      -7.336   3.666  69.375  1.00  0.00    -0.049 C  
HETATM    2  N   UNL     1      -6.445   4.810  69.343  1.00  0.00    -0.034 N  
HETATM    3  C   UNL     1      -5.252   4.731  68.515  1.00  0.00    -0.004 C  
ENDROOT
BRANCH   2   4
HETATM    4  C   UNL     1      -6.854   5.939  70.040  1.00  0.00    -0.057 C  
HETATM    5  O   UNL     1      -6.338   6.282  71.102  1.00  0.00    -0.045 OA 
BRANCH   4   6
HETATM    6  N   UNL     1      -7.898   6.618  69.483  1.00  0.00    -0.104 N  
HETATM    7  H   UNL     1      -8.825   6.526  69.900  1.00  0.00     0.000 HD 
BRANCH   6   8
HETATM    8  C   UNL     1      -7.734   7.470  68.309  1.00  0.00    -0.120 C  
HETATM    9  C   UNL     1      -9.059   8.144  67.933  1.00  0.00    -0.136 C  
HETATM   10  C   UNL     1      -9.495   9.177  68.974  1.00  0.00    -0.152 C  
HETATM   11  C   UNL     1      -8.407  10.223  69.279  1.00  0.00    -0.167 C  
HETATM   12  C   UNL     1      -6.641   8.514  68.565  1.00  0.00    -0.059 C  
HETATM   13  C   UNL     1      -7.062   9.553  69.604  1.00  0.00    -0.072 C  
BRANCH  11  14
HETATM   14  C   UNL     1      -8.231  11.244  68.137  1.00  0.00    -0.140 C  
BRANCH  14  15
HETATM   15  C   UNL     1      -9.421  12.194  67.949  1.00  0.00    -0.195 C  
BRANCH  15  16
HETATM   16  N   UNL     1      -9.289  13.123  66.813  1.00  0.00    -0.241 NA 
HETATM   17  C   UNL     1     -10.531  13.888  66.546  1.00  0.00    -0.282 C  
HETATM   18  C   UNL     1     -10.924  14.895  67.652  1.00  0.00    -0.300 C  
HETATM   19  N   UNL     1      -9.792  15.802  67.942  1.00  0.00    -0.217 NA 
HETATM   20  C   UNL     1      -8.205  14.111  67.078  1.00  0.00    -0.071 C  
HETATM   21  C   UNL     1      -8.530  15.099  68.228  1.00  0.00    -0.152 C  
BRANCH  19  22
HETATM   22  C   UNL     1      -9.941  17.180  67.871  1.00  0.00    -0.292 A  
HETATM   23  C   UNL     1     -10.260  17.933  66.707  1.00  0.00    -0.360 A  
HETATM   24  C   UNL     1     -10.350  19.343  66.762  1.00  0.00    -0.443 A  
HETATM   25 CL   UNL     1     -10.695  17.170  65.198  1.00  0.00    -0.159 Cl 
HETATM   26  C   UNL     1     -10.189  20.024  67.969  1.00  0.00    -0.538 A  
HETATM   27 CL   UNL     1     -10.670  20.321  65.365  1.00  0.00    -0.231 Cl 
HETATM   28  C   UNL     1      -9.916  19.313  69.123  1.00  0.00    -0.373 A  
HETATM   29  C   UNL     1      -9.771  17.927  69.063  1.00  0.00    -0.197 A  
ENDBRANCH  19  22
ENDBRANCH  15  16
ENDBRANCH  14  15
ENDBRANCH  11  14
ENDBRANCH   6   8
ENDBRANCH   4   6
ENDBRANCH   2   4
TORSDOF 7
ENDMDL
MODEL      149
REMARK 921   NORMALIZED FREE ENERGY PREDICTED BY IDOCK:   -3.58 KCAL/MOL
REMARK 922        TOTAL FREE ENERGY PREDICTED BY IDOCK:   -5.81 KCAL/MOL
REMARK 923 INTER-LIGAND FREE ENERGY PREDICTED BY IDOCK:   -5.58 KCAL/MOL
REMARK 924 INTRA-LIGAND FREE ENERGY PREDICTED BY IDOCK:   -0.23 KCAL/MOL
REMARK 927      BINDING AFFINITY PREDICTED BY RF-SCORE:    0.00 PKD
ROOT
HETATM    1  C   UNL     1      -6.089   4.122  65.290  1.00  0.00    -0.023 C  
HETATM    2  N   UNL     1      -6.975   3.400  66.184  1.00  0.00    -0.060 N  
HETATM    3  C   UNL     1      -6.424   2.301  66.959  1.00  0.00    -0.031 C  
ENDROOT
BRANCH   2   4
HETATM    4  C   UNL     1      -8.273   3.880  66.299  1.00  0.00    -0.104 C  
HETATM    5  O   UNL     1      -9.201   3.445  65.620  1.00  0.00    -0.146 OA 
BRANCH   4   6
HETATM    6  N   UNL     1      -8.436   4.901  67.190  1.00  0.00    -0.106 N  
HETATM    7  H   UNL     1      -8.893   4.708  68.082  1.00  0.00     0.000 HD 
BRANCH   6   8
HETATM    8  C   UNL     1      -7.978   6.258  66.911  1.00  0.00    -0.109 C  
HETATM    9  C   UNL     1      -8.893   6.945  65.890  1.00  0.00    -0.125 C  
HETATM   10  C   UNL     1     -10.283   7.228  66.462  1.00  0.00    -0.139 C  
HETATM   11  C   UNL     1     -10.243   8.012  67.787  1.00  0.00    -0.282 C  
HETATM   12  C   UNL     1      -7.902   7.066  68.211  1.00  0.00    -0.118 C  
HETATM   13  C   UNL     1      -9.284   7.357  68.796  1.00  0.00    -0.144 C  
BRANCH  11  14
HETATM   14  C   UNL     1      -9.872   9.495  67.586  1.00  0.00    -0.206 C  
BRANCH  14  15
HETATM   15  C   UNL     1     -11.043  10.469  67.762  1.00  0.00    -0.317 C  
BRANCH  15  16
HETATM   16  N   UNL     1     -10.814  11.526  68.763  1.00  0.00    -0.205 NA 
HETATM   17  C   UNL     1      -9.445  12.092  68.703  1.00  0.00    -0.045 C  
HETATM   18  C   UNL     1      -9.128  12.890  67.416  1.00  0.00    -0.197 C  
HETATM   19  N   UNL     1     -10.148  13.939  67.203  1.00  0.00    -0.249 NA 
HETATM   20  C   UNL     1     -11.770  12.650  68.554  1.00  0.00    -0.330 C  
HETATM   21  C   UNL     1     -11.531  13.435  67.239  1.00  0.00    -0.340 C  
BRANCH  19  22
HETATM   22  C   UNL     1      -9.786  15.271  67.054  1.00  0.00    -0.226 A  
HETATM   23  C   UNL     1     -10.427  16.389  67.654  1.00  0.00    -0.302 A  
HETATM   24  C   UNL     1      -9.979  17.705  67.393  1.00  0.00    -0.321 A  
HETATM   25 CL   UNL     1     -11.693  16.206  68.842  1.00  0.00    -0.323 Cl 
HETATM   26  C   UNL     1      -8.861  17.934  66.591  1.00  0.00    -0.285 A  
HETATM   27 CL   UNL     1     -10.760  19.112  68.042  1.00  0.00    -0.390 Cl 
HETATM   28  C   UNL     1      -8.194  16.862  66.026  1.00  0.00    -0.178 A  
HETATM   29  C   UNL     1      -8.667  15.566  66.235  1.00  0.00    -0.283 A  
ENDBRANCH  19  22
ENDBRANCH  15  16
ENDBRANCH  14  15
ENDBRANCH  11  14
ENDBRANCH   6   8
ENDBRANCH   4   6
ENDBRANCH   2   4
TORSDOF 7
ENDMDL
MODEL      150
REMARK 921   NORMALIZED FREE ENERGY PREDICTED BY IDOCK:   -3.55 KCAL/MOL
REMARK 922        TOTAL FREE ENERGY PREDICTED BY IDOCK:   -5.77 KCAL/MOL
REMARK 923 INTER-LIGAND FREE ENERGY PREDICTED BY IDOCK:   -5.15 KCAL/MOL
REMARK 924 INTRA-LIGAND FREE ENERGY PREDICTED BY IDOCK:   -0.62 KCAL/MOL
REMARK 927      BINDING AFFINITY PREDICTED BY RF-SCORE:    0.00 PKD
ROOT
HETATM    1  C   UNL     1     -12.364   8.255  72.174  1.00  0.00    -0.360 C  
HETATM    2  N   UNL     1     -11.172   7.428  72.150  1.00  0.00    -0.251 N  
HETATM    3  C   UNL     1     -10.440   7.239  73.392  1.00  0.00    -0.377 C  
ENDROOT
BRANCH   2   4
HETATM    4  C   UNL     1     -10.873   6.798  70.949  1.00  0.00    -0.249 C  
HETATM    5  O   UNL     1     -11.744   6.420  70.167  1.00  0.00    -0.422 OA 
BRANCH   4   6
HETATM    6  N   UNL     1      -9.544   6.592  70.718  1.00  0.00    -0.175 N  
HETATM    7  H   UNL     1      -9.146   5.674  70.917  1.00  0.00     0.000 HD 
BRANCH   6   8
HETATM    8  C   UNL     1      -8.674   7.641  70.197  1.00  0.00    -0.141 C  
HETATM    9  C   UNL     1      -7.199   7.303  70.447  1.00  0.00    -0.069 C  
HETATM   10  C   UNL     1      -6.733   6.109  69.613  1.00  0.00    -0.052 C  
HETATM   11  C   UNL     1      -7.017   6.276  68.108  1.00  0.00    -0.080 C  
HETATM   12  C   UNL     1      -8.942   7.854  68.703  1.00  0.00    -0.134 C  
HETATM   13  C   UNL     1      -8.482   6.669  67.855  1.00  0.00    -0.119 C  
BRANCH  11  14
HETATM   14  C   UNL     1      -6.071   7.291  67.437  1.00  0.00    -0.045 C  
BRANCH  14  15
HETATM   15  C   UNL     1      -6.561   7.812  66.080  1.00  0.00    -0.049 C  
BRANCH  15  16
HETATM   16  N   UNL     1      -6.070   9.155  65.725  1.00  0.00    -0.055 NA 
HETATM   17  C   UNL     1      -7.018   9.908  64.868  1.00  0.00    -0.131 C  
HETATM   18  C   UNL     1      -8.347  10.297  65.557  1.00  0.00    -0.164 C  
HETATM   19  N   UNL     1      -8.075  11.024  66.816  1.00  0.00    -0.144 NA 
HETATM   20  C   UNL     1      -5.845   9.963  66.957  1.00  0.00    -0.051 C  
HETATM   21  C   UNL     1      -7.148  10.318  67.717  1.00  0.00    -0.085 C  
BRANCH  19  22
HETATM   22  C   UNL     1      -8.615  12.281  67.049  1.00  0.00    -0.191 A  
HETATM   23  C   UNL     1      -9.997  12.617  67.044  1.00  0.00    -0.219 A  
HETATM   24  C   UNL     1     -10.417  13.950  67.264  1.00  0.00    -0.271 A  
HETATM   25 CL   UNL     1     -11.247  11.405  66.911  1.00  0.00    -0.357 Cl 
HETATM   26  C   UNL     1      -9.492  14.953  67.552  1.00  0.00    -0.200 A  
HETATM   27 CL   UNL     1     -12.082  14.434  67.204  1.00  0.00    -0.425 Cl 
HETATM   28  C   UNL     1      -8.144  14.646  67.602  1.00  0.00    -0.185 A  
HETATM   29  C   UNL     1      -7.722  13.344  67.330  1.00  0.00    -0.146 A  
ENDBRANCH  19  22
ENDBRANCH  15  16
ENDBRANCH  14  15
ENDBRANCH  11  14
ENDBRANCH   6   8
ENDBRANCH   4   6
ENDBRANCH   2   4
TORSDOF 7
ENDMDL
MODEL      151
REMARK 921   NORMALIZED FREE ENERGY PREDICTED BY IDOCK:   -3.51 KCAL/MOL
REMARK 922        TOTAL FREE ENERGY PREDICTED BY IDOCK:   -5.72 KCAL/MOL
REMARK 923 INTER-LIGAND FREE ENERGY PREDICTED BY IDOCK:   -4.92 KCAL/MOL
REMARK 924 INTRA-LIGAND FREE ENERGY PREDICTED BY IDOCK:   -0.80 KCAL/MOL
REMARK 927      BINDING AFFINITY PREDICTED BY RF-SCORE:    0.00 PKD
ROOT
HETATM    1  C   UNL     1     -12.325  13.915  63.225  1.00  0.00     0.288 C  
HETATM    2  N   UNL     1     -11.946  13.347  64.505  1.00  0.00    -0.389 N  
HETATM    3  C   UNL     1     -12.618  13.832  65.700  1.00  0.00    -0.509 C  
ENDROOT
BRANCH   2   4
HETATM    4  C   UNL     1     -11.025  12.308  64.479  1.00  0.00    -0.315 C  
HETATM    5  O   UNL     1     -10.299  12.094  63.511  1.00  0.00    -0.420 OA 
BRANCH   4   6
HETATM    6  N   UNL     1     -11.015  11.515  65.590  1.00  0.00    -0.270 N  
HETATM    7  H   UNL     1     -11.894  11.114  65.918  1.00  0.00     0.000 HD 
BRANCH   6   8
HETATM    8  C   UNL     1      -9.789  11.221  66.325  1.00  0.00    -0.214 C  
HETATM    9  C   UNL     1      -9.673  12.106  67.571  1.00  0.00    -0.185 C  
HETATM   10  C   UNL     1     -10.725  11.755  68.626  1.00  0.00    -0.252 C  
HETATM   11  C   UNL     1     -10.727  10.262  69.003  1.00  0.00    -0.257 C  
HETATM   12  C   UNL     1      -9.742   9.736  66.699  1.00  0.00    -0.257 C  
HETATM   13  C   UNL     1     -10.788   9.369  67.752  1.00  0.00    -0.223 C  
BRANCH  11  14
HETATM   14  C   UNL     1      -9.519   9.871  69.877  1.00  0.00    -0.256 C  
BRANCH  14  15
HETATM   15  C   UNL     1      -9.851   8.897  71.015  1.00  0.00    -0.253 C  
BRANCH  15  16
HETATM   16  N   UNL     1      -8.698   8.133  71.523  1.00  0.00    -0.134 NA 
HETATM   17  C   UNL     1      -9.095   6.893  72.233  1.00  0.00    -0.134 C  
HETATM   18  C   UNL     1      -9.740   5.810  71.336  1.00  0.00    -0.167 C  
HETATM   19  N   UNL     1      -8.860   5.508  70.188  1.00  0.00    -0.134 NA 
HETATM   20  C   UNL     1      -7.806   7.736  70.397  1.00  0.00    -0.090 C  
HETATM   21  C   UNL     1      -8.441   6.701  69.434  1.00  0.00    -0.131 C  
BRANCH  19  22
HETATM   22  C   UNL     1      -8.442   4.210  69.928  1.00  0.00    -0.060 A  
HETATM   23  C   UNL     1      -7.176   3.652  70.258  1.00  0.00    -0.041 A  
HETATM   24  C   UNL     1      -6.860   2.319  69.904  1.00  0.00    -0.033 A  
HETATM   25 CL   UNL     1      -6.007   4.511  71.229  1.00  0.00    -0.016 Cl 
HETATM   26  C   UNL     1      -7.802   1.502  69.280  1.00  0.00    -0.047 A  
HETATM   27 CL   UNL     1      -5.312   1.604  70.221  1.00  0.00    -0.004 Cl 
HETATM   28  C   UNL     1      -9.055   2.008  68.982  1.00  0.00    -0.179 A  
HETATM   29  C   UNL     1      -9.351   3.339  69.278  1.00  0.00    -0.233 A  
ENDBRANCH  19  22
ENDBRANCH  15  16
ENDBRANCH  14  15
ENDBRANCH  11  14
ENDBRANCH   6   8
ENDBRANCH   4   6
ENDBRANCH   2   4
TORSDOF 7
ENDMDL
MODEL      152
REMARK 921   NORMALIZED FREE ENERGY PREDICTED BY IDOCK:   -3.49 KCAL/MOL
REMARK 922        TOTAL FREE ENERGY PREDICTED BY IDOCK:   -5.68 KCAL/MOL
REMARK 923 INTER-LIGAND FREE ENERGY PREDICTED BY IDOCK:   -5.72 KCAL/MOL
REMARK 924 INTRA-LIGAND FREE ENERGY PREDICTED BY IDOCK:    0.04 KCAL/MOL
REMARK 927      BINDING AFFINITY PREDICTED BY RF-SCORE:    0.00 PKD
ROOT
HETATM    1  C   UNL     1      -9.409   3.164  70.339  1.00  0.00    -0.162 C  
HETATM    2  N   UNL     1     -10.074   4.317  70.915  1.00  0.00    -0.151 N  
HETATM    3  C   UNL     1     -10.277   4.346  72.354  1.00  0.00    -0.190 C  
ENDROOT
BRANCH   2   4
HETATM    4  C   UNL     1     -10.385   5.356  70.048  1.00  0.00    -0.296 C  
HETATM    5  O   UNL     1     -11.402   6.035  70.169  1.00  0.00    -0.372 OA 
BRANCH   4   6
HETATM    6  N   UNL     1      -9.500   5.541  69.026  1.00  0.00    -0.124 N  
HETATM    7  H   UNL     1      -8.919   4.757  68.728  1.00  0.00     0.000 HD 
BRANCH   6   8
HETATM    8  C   UNL     1      -9.357   6.823  68.343  1.00  0.00    -0.124 C  
HETATM    9  C   UNL     1      -8.421   7.756  69.122  1.00  0.00    -0.138 C  
HETATM   10  C   UNL     1      -6.972   7.263  69.105  1.00  0.00    -0.074 C  
HETATM   11  C   UNL     1      -6.440   7.003  67.682  1.00  0.00    -0.051 C  
HETATM   12  C   UNL     1      -8.849   6.606  66.914  1.00  0.00    -0.118 C  
HETATM   13  C   UNL     1      -7.403   6.113  66.879  1.00  0.00    -0.082 C  
BRANCH  11  14
HETATM   14  C   UNL     1      -6.153   8.307  66.911  1.00  0.00    -0.054 C  
BRANCH  14  15
HETATM   15  C   UNL     1      -6.744   8.349  65.497  1.00  0.00    -0.059 C  
BRANCH  15  16
HETATM   16  N   UNL     1      -6.820   9.696  64.904  1.00  0.00    -0.103 NA 
HETATM   17  C   UNL     1      -8.038   9.896  64.082  1.00  0.00    -0.152 C  
HETATM   18  C   UNL     1      -9.365   9.894  64.877  1.00  0.00    -0.268 C  
HETATM   19  N   UNL     1      -9.300  10.876  65.981  1.00  0.00    -0.183 NA 
HETATM   20  C   UNL     1      -6.830  10.731  65.976  1.00  0.00    -0.107 C  
HETATM   21  C   UNL     1      -8.116  10.718  66.842  1.00  0.00    -0.132 C  
BRANCH  19  22
HETATM   22  C   UNL     1     -10.255  11.874  66.110  1.00  0.00    -0.226 A  
HETATM   23  C   UNL     1     -10.733  12.721  65.071  1.00  0.00    -0.296 A  
HETATM   24  C   UNL     1     -11.689  13.728  65.343  1.00  0.00    -0.335 A  
HETATM   25 CL   UNL     1     -10.288  12.482  63.400  1.00  0.00    -0.332 Cl 
HETATM   26  C   UNL     1     -12.230  13.874  66.619  1.00  0.00    -0.465 A  
HETATM   27 CL   UNL     1     -12.261  14.833  64.134  1.00  0.00    -0.438 Cl 
HETATM   28  C   UNL     1     -11.812  13.039  67.640  1.00  0.00    -0.401 A  
HETATM   29  C   UNL     1     -10.828  12.082  67.389  1.00  0.00    -0.285 A  
ENDBRANCH  19  22
ENDBRANCH  15  16
ENDBRANCH  14  15
ENDBRANCH  11  14
ENDBRANCH   6   8
ENDBRANCH   4   6
ENDBRANCH   2   4
TORSDOF 7
ENDMDL
MODEL      153
REMARK 921   NORMALIZED FREE ENERGY PREDICTED BY IDOCK:   -3.48 KCAL/MOL
REMARK 922        TOTAL FREE ENERGY PREDICTED BY IDOCK:   -5.68 KCAL/MOL
REMARK 923 INTER-LIGAND FREE ENERGY PREDICTED BY IDOCK:   -4.98 KCAL/MOL
REMARK 924 INTRA-LIGAND FREE ENERGY PREDICTED BY IDOCK:   -0.69 KCAL/MOL
REMARK 927      BINDING AFFINITY PREDICTED BY RF-SCORE:    0.00 PKD
ROOT
HETATM    1  C   UNL     1     -12.112  14.824  64.602  1.00  0.00    -0.427 C  
HETATM    2  N   UNL     1     -10.715  14.470  64.771  1.00  0.00    -0.417 N  
HETATM    3  C   UNL     1      -9.828  15.442  65.388  1.00  0.00    -0.279 C  
ENDROOT
BRANCH   2   4
HETATM    4  C   UNL     1     -10.350  13.180  64.408  1.00  0.00    -0.368 C  
HETATM    5  O   UNL     1     -10.604  12.708  63.302  1.00  0.00    -0.296 OA 
BRANCH   4   6
HETATM    6  N   UNL     1      -9.726  12.459  65.384  1.00  0.00    -0.424 N  
HETATM    7  H   UNL     1      -8.886  12.841  65.819  1.00  0.00     0.000 HD 
BRANCH   6   8
HETATM    8  C   UNL     1     -10.220  11.159  65.828  1.00  0.00    -0.257 C  
HETATM    9  C   UNL     1      -9.073  10.148  65.944  1.00  0.00    -0.190 C  
HETATM   10  C   UNL     1      -8.117  10.492  67.087  1.00  0.00    -0.120 C  
HETATM   11  C   UNL     1      -8.833  10.676  68.438  1.00  0.00    -0.145 C  
HETATM   12  C   UNL     1     -10.961  11.304  67.161  1.00  0.00    -0.348 C  
HETATM   13  C   UNL     1     -10.019  11.648  68.315  1.00  0.00    -0.201 C  
BRANCH  11  14
HETATM   14  C   UNL     1      -9.301   9.340  69.047  1.00  0.00    -0.151 C  
BRANCH  14  15
HETATM   15  C   UNL     1      -8.193   8.290  69.197  1.00  0.00    -0.121 C  
BRANCH  15  16
HETATM   16  N   UNL     1      -8.675   6.926  69.478  1.00  0.00    -0.133 NA 
HETATM   17  C   UNL     1      -9.610   6.421  68.444  1.00  0.00    -0.125 C  
HETATM   18  C   UNL     1      -8.974   6.183  67.054  1.00  0.00    -0.114 C  
HETATM   19  N   UNL     1      -7.792   5.305  67.178  1.00  0.00    -0.100 NA 
HETATM   20  C   UNL     1      -7.528   5.978  69.544  1.00  0.00    -0.088 C  
HETATM   21  C   UNL     1      -6.817   5.763  68.182  1.00  0.00    -0.067 C  
BRANCH  19  22
HETATM   22  C   UNL     1      -7.689   4.133  66.440  1.00  0.00    -0.090 A  
HETATM   23  C   UNL     1      -7.863   4.005  65.035  1.00  0.00    -0.089 A  
HETATM   24  C   UNL     1      -7.764   2.742  64.407  1.00  0.00    -0.077 A  
HETATM   25 CL   UNL     1      -8.063   5.393  63.994  1.00  0.00    -0.118 Cl 
HETATM   26  C   UNL     1      -7.434   1.603  65.140  1.00  0.00    -0.058 A  
HETATM   27 CL   UNL     1      -8.032   2.512  62.708  1.00  0.00    -0.067 Cl 
HETATM   28  C   UNL     1      -7.221   1.705  66.503  1.00  0.00    -0.051 A  
HETATM   29  C   UNL     1      -7.372   2.939  67.135  1.00  0.00    -0.062 A  
ENDBRANCH  19  22
ENDBRANCH  15  16
ENDBRANCH  14  15
ENDBRANCH  11  14
ENDBRANCH   6   8
ENDBRANCH   4   6
ENDBRANCH   2   4
TORSDOF 7
ENDMDL
MODEL      154
REMARK 921   NORMALIZED FREE ENERGY PREDICTED BY IDOCK:   -3.46 KCAL/MOL
REMARK 922        TOTAL FREE ENERGY PREDICTED BY IDOCK:   -5.65 KCAL/MOL
REMARK 923 INTER-LIGAND FREE ENERGY PREDICTED BY IDOCK:   -4.84 KCAL/MOL
REMARK 924 INTRA-LIGAND FREE ENERGY PREDICTED BY IDOCK:   -0.81 KCAL/MOL
REMARK 927      BINDING AFFINITY PREDICTED BY RF-SCORE:    0.00 PKD
ROOT
HETATM    1  C   UNL     1      -8.580   2.657  72.062  1.00  0.00    -0.069 C  
HETATM    2  N   UNL     1      -9.756   3.051  72.815  1.00  0.00    -0.115 N  
HETATM    3  C   UNL     1     -10.712   2.021  73.187  1.00  0.00    -0.150 C  
ENDROOT
BRANCH   2   4
HETATM    4  C   UNL     1      -9.831   4.382  73.204  1.00  0.00    -0.137 C  
HETATM    5  O   UNL     1      -9.384   4.781  74.277  1.00  0.00    -0.116 OA 
BRANCH   4   6
HETATM    6  N   UNL     1     -10.474   5.206  72.327  1.00  0.00    -0.214 N  
HETATM    7  H   UNL     1     -11.471   5.380  72.455  1.00  0.00     0.000 HD 
BRANCH   6   8
HETATM    8  C   UNL     1      -9.783   5.848  71.213  1.00  0.00    -0.173 C  
HETATM    9  C   UNL     1     -10.759   6.671  70.365  1.00  0.00    -0.297 C  
HETATM   10  C   UNL     1     -11.282   7.897  71.117  1.00  0.00    -0.284 C  
HETATM   11  C   UNL     1     -10.157   8.782  71.684  1.00  0.00    -0.390 C  
HETATM   12  C   UNL     1      -8.638   6.722  71.737  1.00  0.00    -0.121 C  
HETATM   13  C   UNL     1      -9.144   7.952  72.491  1.00  0.00    -0.245 C  
BRANCH  11  14
HETATM   14  C   UNL     1      -9.431   9.590  70.590  1.00  0.00    -0.277 C  
BRANCH  14  15
HETATM   15  C   UNL     1     -10.290   9.901  69.358  1.00  0.00    -0.222 C  
BRANCH  15  16
HETATM   16  N   UNL     1      -9.523  10.178  68.131  1.00  0.00    -0.141 NA 
HETATM   17  C   UNL     1      -8.210   9.489  68.103  1.00  0.00    -0.114 C  
HETATM   18  C   UNL     1      -8.287   7.947  68.011  1.00  0.00    -0.123 C  
HETATM   19  N   UNL     1      -9.123   7.547  66.858  1.00  0.00    -0.135 NA 
HETATM   20  C   UNL     1     -10.287   9.729  66.933  1.00  0.00    -0.234 C  
HETATM   21  C   UNL     1     -10.448   8.190  66.837  1.00  0.00    -0.309 C  
BRANCH  19  22
HETATM   22  C   UNL     1      -8.632   6.694  65.879  1.00  0.00    -0.148 A  
HETATM   23  C   UNL     1      -8.753   5.277  65.861  1.00  0.00    -0.138 A  
HETATM   24  C   UNL     1      -8.176   4.517  64.817  1.00  0.00    -0.108 A  
HETATM   25 CL   UNL     1      -9.725   4.413  67.025  1.00  0.00    -0.220 Cl 
HETATM   26  C   UNL     1      -7.529   5.141  63.751  1.00  0.00    -0.061 A  
HETATM   27 CL   UNL     1      -8.232   2.783  64.773  1.00  0.00    -0.086 Cl 
HETATM   28  C   UNL     1      -7.431   6.520  63.724  1.00  0.00    -0.086 A  
HETATM   29  C   UNL     1      -7.950   7.270  64.779  1.00  0.00    -0.122 A  
ENDBRANCH  19  22
ENDBRANCH  15  16
ENDBRANCH  14  15
ENDBRANCH  11  14
ENDBRANCH   6   8
ENDBRANCH   4   6
ENDBRANCH   2   4
TORSDOF 7
ENDMDL
MODEL      155
REMARK 921   NORMALIZED FREE ENERGY PREDICTED BY IDOCK:   -3.42 KCAL/MOL
REMARK 922        TOTAL FREE ENERGY PREDICTED BY IDOCK:   -5.60 KCAL/MOL
REMARK 923 INTER-LIGAND FREE ENERGY PREDICTED BY IDOCK:   -5.47 KCAL/MOL
REMARK 924 INTRA-LIGAND FREE ENERGY PREDICTED BY IDOCK:   -0.13 KCAL/MOL
REMARK 927      BINDING AFFINITY PREDICTED BY RF-SCORE:    0.00 PKD
ROOT
HETATM    1  C   UNL     1      -6.893   5.083  69.508  1.00  0.00    -0.053 C  
HETATM    2  N   UNL     1      -7.904   4.067  69.729  1.00  0.00    -0.052 N  
HETATM    3  C   UNL     1      -8.157   3.632  71.092  1.00  0.00    -0.066 C  
ENDROOT
BRANCH   2   4
HETATM    4  C   UNL     1      -8.623   3.650  68.616  1.00  0.00    -0.091 C  
HETATM    5  O   UNL     1      -9.222   2.577  68.581  1.00  0.00    -0.147 OA 
BRANCH   4   6
HETATM    6  N   UNL     1      -8.582   4.500  67.549  1.00  0.00    -0.103 N  
HETATM    7  H   UNL     1      -7.707   4.603  67.034  1.00  0.00     0.000 HD 
BRANCH   6   8
HETATM    8  C   UNL     1      -9.748   5.267  67.120  1.00  0.00    -0.151 C  
HETATM    9  C   UNL     1     -10.637   5.626  68.317  1.00  0.00    -0.253 C  
HETATM   10  C   UNL     1      -9.964   6.633  69.252  1.00  0.00    -0.171 C  
HETATM   11  C   UNL     1      -9.475   7.899  68.524  1.00  0.00    -0.148 C  
HETATM   12  C   UNL     1      -9.303   6.527  66.370  1.00  0.00    -0.175 C  
HETATM   13  C   UNL     1      -8.628   7.544  67.290  1.00  0.00    -0.118 C  
BRANCH  11  14
HETATM   14  C   UNL     1     -10.633   8.835  68.122  1.00  0.00    -0.203 C  
BRANCH  14  15
HETATM   15  C   UNL     1     -10.330  10.328  68.299  1.00  0.00    -0.181 C  
BRANCH  15  16
HETATM   16  N   UNL     1     -10.766  11.178  67.178  1.00  0.00    -0.245 NA 
HETATM   17  C   UNL     1     -11.618  12.312  67.611  1.00  0.00    -0.354 C  
HETATM   18  C   UNL     1     -10.895  13.376  68.469  1.00  0.00    -0.265 C  
HETATM   19  N   UNL     1      -9.684  13.857  67.772  1.00  0.00    -0.220 NA 
HETATM   20  C   UNL     1      -9.583  11.753  66.476  1.00  0.00    -0.210 C  
HETATM   21  C   UNL     1      -8.789  12.775  67.328  1.00  0.00    -0.198 C  
BRANCH  19  22
HETATM   22  C   UNL     1      -9.488  15.209  67.525  1.00  0.00    -0.206 A  
HETATM   23  C   UNL     1      -9.772  16.278  68.419  1.00  0.00    -0.222 A  
HETATM   24  C   UNL     1      -9.558  17.621  68.031  1.00  0.00    -0.289 A  
HETATM   25 CL   UNL     1     -10.259  16.000  70.073  1.00  0.00    -0.209 Cl 
HETATM   26  C   UNL     1      -9.006  17.926  66.787  1.00  0.00    -0.272 A  
HETATM   27 CL   UNL     1      -9.947  18.969  69.051  1.00  0.00    -0.446 Cl 
HETATM   28  C   UNL     1      -8.684  16.904  65.913  1.00  0.00    -0.058 A  
HETATM   29  C   UNL     1      -8.945  15.581  66.270  1.00  0.00    -0.362 A  
ENDBRANCH  19  22
ENDBRANCH  15  16
ENDBRANCH  14  15
ENDBRANCH  11  14
ENDBRANCH   6   8
ENDBRANCH   4   6
ENDBRANCH   2   4
TORSDOF 7
ENDMDL
MODEL      156
REMARK 921   NORMALIZED FREE ENERGY PREDICTED BY IDOCK:   -3.36 KCAL/MOL
REMARK 922        TOTAL FREE ENERGY PREDICTED BY IDOCK:   -5.51 KCAL/MOL
REMARK 923 INTER-LIGAND FREE ENERGY PREDICTED BY IDOCK:   -4.79 KCAL/MOL
REMARK 924 INTRA-LIGAND FREE ENERGY PREDICTED BY IDOCK:   -0.72 KCAL/MOL
REMARK 927      BINDING AFFINITY PREDICTED BY RF-SCORE:    0.00 PKD
ROOT
HETATM    1  C   UNL     1      -9.013   1.772  65.943  1.00  0.00    -0.098 C  
HETATM    2  N   UNL     1      -8.442   2.517  64.838  1.00  0.00    -0.093 N  
HETATM    3  C   UNL     1      -9.290   2.809  63.693  1.00  0.00    -0.101 C  
ENDROOT
BRANCH   2   4
HETATM    4  C   UNL     1      -7.143   2.979  65.001  1.00  0.00    -0.058 C  
HETATM    5  O   UNL     1      -6.456   3.365  64.058  1.00  0.00    -0.029 OA 
BRANCH   4   6
HETATM    6  N   UNL     1      -6.669   2.934  66.280  1.00  0.00    -0.046 N  
HETATM    7  H   UNL     1      -6.648   2.038  66.767  1.00  0.00     0.000 HD 
BRANCH   6   8
HETATM    8  C   UNL     1      -6.190   4.125  66.975  1.00  0.00    -0.036 C  
HETATM    9  C   UNL     1      -7.207   5.268  66.865  1.00  0.00    -0.078 C  
HETATM   10  C   UNL     1      -8.487   4.977  67.652  1.00  0.00    -0.104 C  
HETATM   11  C   UNL     1      -8.220   4.610  69.124  1.00  0.00    -0.081 C  
HETATM   12  C   UNL     1      -5.892   3.795  68.441  1.00  0.00    -0.026 C  
HETATM   13  C   UNL     1      -7.160   3.501  69.241  1.00  0.00    -0.045 C  
BRANCH  11  14
HETATM   14  C   UNL     1      -7.811   5.830  69.973  1.00  0.00    -0.091 C  
BRANCH  14  15
HETATM   15  C   UNL     1      -8.917   6.877  70.150  1.00  0.00    -0.149 C  
BRANCH  15  16
HETATM   16  N   UNL     1      -8.466   8.273  70.014  1.00  0.00    -0.121 NA 
HETATM   17  C   UNL     1      -7.900   8.569  68.676  1.00  0.00    -0.108 C  
HETATM   18  C   UNL     1      -8.920   8.518  67.514  1.00  0.00    -0.135 C  
HETATM   19  N   UNL     1     -10.074   9.394  67.810  1.00  0.00    -0.185 NA 
HETATM   20  C   UNL     1      -9.607   9.207  70.232  1.00  0.00    -0.213 C  
HETATM   21  C   UNL     1     -10.689   9.139  69.123  1.00  0.00    -0.172 C  
BRANCH  19  22
HETATM   22  C   UNL     1     -10.460  10.393  66.927  1.00  0.00    -0.240 A  
HETATM   23  C   UNL     1     -11.140  11.597  67.263  1.00  0.00    -0.290 A  
HETATM   24  C   UNL     1     -11.509  12.522  66.260  1.00  0.00    -0.370 A  
HETATM   25 CL   UNL     1     -11.428  12.068  68.919  1.00  0.00    -0.323 Cl 
HETATM   26  C   UNL     1     -11.162  12.308  64.926  1.00  0.00    -0.365 A  
HETATM   27 CL   UNL     1     -12.396  13.974  66.599  1.00  0.00    -0.465 Cl 
HETATM   28  C   UNL     1     -10.467  11.164  64.576  1.00  0.00    -0.415 A  
HETATM   29  C   UNL     1     -10.150  10.222  65.555  1.00  0.00    -0.351 A  
ENDBRANCH  19  22
ENDBRANCH  15  16
ENDBRANCH  14  15
ENDBRANCH  11  14
ENDBRANCH   6   8
ENDBRANCH   4   6
ENDBRANCH   2   4
TORSDOF 7
ENDMDL
MODEL      157
REMARK 921   NORMALIZED FREE ENERGY PREDICTED BY IDOCK:   -3.35 KCAL/MOL
REMARK 922        TOTAL FREE ENERGY PREDICTED BY IDOCK:   -5.49 KCAL/MOL
REMARK 923 INTER-LIGAND FREE ENERGY PREDICTED BY IDOCK:   -5.04 KCAL/MOL
REMARK 924 INTRA-LIGAND FREE ENERGY PREDICTED BY IDOCK:   -0.45 KCAL/MOL
REMARK 927      BINDING AFFINITY PREDICTED BY RF-SCORE:    0.00 PKD
ROOT
HETATM    1  C   UNL     1     -13.641   8.416  71.627  1.00  0.00    -0.349 C  
HETATM    2  N   UNL     1     -12.242   8.194  71.314  1.00  0.00    -0.297 N  
HETATM    3  C   UNL     1     -11.312   9.295  71.503  1.00  0.00    -0.385 C  
ENDROOT
BRANCH   2   4
HETATM    4  C   UNL     1     -11.883   6.905  70.943  1.00  0.00    -0.376 C  
HETATM    5  O   UNL     1     -11.658   6.020  71.766  1.00  0.00    -0.287 OA 
BRANCH   4   6
HETATM    6  N   UNL     1     -11.756   6.703  69.600  1.00  0.00    -0.657 N  
HETATM    7  H   UNL     1     -12.384   6.044  69.139  1.00  0.00     0.000 HD 
BRANCH   6   8
HETATM    8  C   UNL     1     -10.752   7.397  68.800  1.00  0.00    -0.118 C  
HETATM    9  C   UNL     1      -9.336   7.026  69.257  1.00  0.00    -0.145 C  
HETATM   10  C   UNL     1      -8.993   5.569  68.940  1.00  0.00    -0.122 C  
HETATM   11  C   UNL     1      -9.211   5.206  67.459  1.00  0.00    -0.124 C  
HETATM   12  C   UNL     1     -10.950   7.079  67.314  1.00  0.00    -0.372 C  
HETATM   13  C   UNL     1     -10.611   5.627  66.980  1.00  0.00    -0.358 C  
BRANCH  11  14
HETATM   14  C   UNL     1      -8.131   5.807  66.537  1.00  0.00    -0.102 C  
BRANCH  14  15
HETATM   15  C   UNL     1      -6.952   6.448  67.279  1.00  0.00    -0.072 C  
BRANCH  15  16
HETATM   16  N   UNL     1      -6.307   7.560  66.559  1.00  0.00    -0.044 NA 
HETATM   17  C   UNL     1      -7.252   8.649  66.213  1.00  0.00    -0.079 C  
HETATM   18  C   UNL     1      -7.817   9.427  67.425  1.00  0.00    -0.102 C  
HETATM   19  N   UNL     1      -6.712   9.928  68.269  1.00  0.00    -0.059 NA 
HETATM   20  C   UNL     1      -5.225   8.156  67.392  1.00  0.00    -0.033 C  
HETATM   21  C   UNL     1      -5.745   8.887  68.657  1.00  0.00    -0.041 C  
BRANCH  19  22
HETATM   22  C   UNL     1      -6.605  11.276  68.584  1.00  0.00    -0.064 A  
HETATM   23  C   UNL     1      -6.242  11.819  69.847  1.00  0.00    -0.141 A  
HETATM   24  C   UNL     1      -6.203  13.219  70.047  1.00  0.00    -0.079 A  
HETATM   25 CL   UNL     1      -5.693  10.815  71.166  1.00  0.00    -0.021 Cl 
HETATM   26  C   UNL     1      -6.459  14.099  68.996  1.00  0.00    -0.099 A  
HETATM   27 CL   UNL     1      -5.833  13.940  71.581  1.00  0.00    -0.201 Cl 
HETATM   28  C   UNL     1      -6.776  13.598  67.747  1.00  0.00    -0.177 A  
HETATM   29  C   UNL     1      -6.870  12.218  67.559  1.00  0.00    -0.135 A  
ENDBRANCH  19  22
ENDBRANCH  15  16
ENDBRANCH  14  15
ENDBRANCH  11  14
ENDBRANCH   6   8
ENDBRANCH   4   6
ENDBRANCH   2   4
TORSDOF 7
ENDMDL
MODEL      158
REMARK 921   NORMALIZED FREE ENERGY PREDICTED BY IDOCK:   -3.33 KCAL/MOL
REMARK 922        TOTAL FREE ENERGY PREDICTED BY IDOCK:   -5.47 KCAL/MOL
REMARK 923 INTER-LIGAND FREE ENERGY PREDICTED BY IDOCK:   -4.92 KCAL/MOL
REMARK 924 INTRA-LIGAND FREE ENERGY PREDICTED BY IDOCK:   -0.55 KCAL/MOL
REMARK 927      BINDING AFFINITY PREDICTED BY RF-SCORE:    0.00 PKD
ROOT
HETATM    1  C   UNL     1      -7.091  15.365  67.261  1.00  0.00    -0.171 C  
HETATM    2  N   UNL     1      -8.062  14.748  68.145  1.00  0.00    -0.127 N  
HETATM    3  C   UNL     1      -7.932  14.974  69.575  1.00  0.00    -0.135 C  
ENDROOT
BRANCH   2   4
HETATM    4  C   UNL     1      -9.106  14.059  67.541  1.00  0.00    -0.196 C  
HETATM    5  O   UNL     1     -10.278  14.415  67.642  1.00  0.00    -0.228 OA 
BRANCH   4   6
HETATM    6  N   UNL     1      -8.740  12.933  66.862  1.00  0.00    -0.331 N  
HETATM    7  H   UNL     1      -8.649  12.977  65.847  1.00  0.00     0.000 HD 
BRANCH   6   8
HETATM    8  C   UNL     1      -8.474  11.668  67.540  1.00  0.00    -0.150 C  
HETATM    9  C   UNL     1      -9.777  11.026  68.030  1.00  0.00    -0.181 C  
HETATM   10  C   UNL     1     -10.654  10.547  66.871  1.00  0.00    -0.303 C  
HETATM   11  C   UNL     1      -9.910   9.617  65.895  1.00  0.00    -0.358 C  
HETATM   12  C   UNL     1      -7.713  10.721  66.606  1.00  0.00    -0.141 C  
HETATM   13  C   UNL     1      -8.575  10.233  65.442  1.00  0.00    -0.169 C  
BRANCH  11  14
HETATM   14  C   UNL     1      -9.675   8.211  66.481  1.00  0.00    -0.309 C  
BRANCH  14  15
HETATM   15  C   UNL     1     -10.847   7.665  67.305  1.00  0.00    -0.193 C  
BRANCH  15  16
HETATM   16  N   UNL     1     -10.665   6.285  67.790  1.00  0.00    -0.273 NA 
HETATM   17  C   UNL     1      -9.245   5.860  67.800  1.00  0.00    -0.108 C  
HETATM   18  C   UNL     1      -8.351   6.606  68.818  1.00  0.00    -0.120 C  
HETATM   19  N   UNL     1      -8.941   6.523  70.171  1.00  0.00    -0.154 NA 
HETATM   20  C   UNL     1     -11.179   6.156  69.183  1.00  0.00    -0.339 C  
HETATM   21  C   UNL     1     -10.351   6.946  70.228  1.00  0.00    -0.199 C  
BRANCH  19  22
HETATM   22  C   UNL     1      -8.213   6.023  71.242  1.00  0.00    -0.123 A  
HETATM   23  C   UNL     1      -7.510   6.789  72.213  1.00  0.00    -0.092 A  
HETATM   24  C   UNL     1      -6.774   6.153  73.239  1.00  0.00    -0.075 A  
HETATM   25 CL   UNL     1      -7.626   8.529  72.283  1.00  0.00    -0.137 Cl 
HETATM   26  C   UNL     1      -6.770   4.764  73.362  1.00  0.00    -0.067 A  
HETATM   27 CL   UNL     1      -5.844   7.030  74.412  1.00  0.00    -0.069 Cl 
HETATM   28  C   UNL     1      -7.476   3.995  72.454  1.00  0.00    -0.067 A  
HETATM   29  C   UNL     1      -8.158   4.616  71.406  1.00  0.00    -0.101 A  
ENDBRANCH  19  22
ENDBRANCH  15  16
ENDBRANCH  14  15
ENDBRANCH  11  14
ENDBRANCH   6   8
ENDBRANCH   4   6
ENDBRANCH   2   4
TORSDOF 7
ENDMDL
MODEL      159
REMARK 921   NORMALIZED FREE ENERGY PREDICTED BY IDOCK:   -3.27 KCAL/MOL
REMARK 922        TOTAL FREE ENERGY PREDICTED BY IDOCK:   -5.37 KCAL/MOL
REMARK 923 INTER-LIGAND FREE ENERGY PREDICTED BY IDOCK:   -5.82 KCAL/MOL
REMARK 924 INTRA-LIGAND FREE ENERGY PREDICTED BY IDOCK:    0.45 KCAL/MOL
REMARK 927      BINDING AFFINITY PREDICTED BY RF-SCORE:    0.00 PKD
ROOT
HETATM    1  C   UNL     1     -12.583   9.697  70.862  1.00  0.00    -0.219 C  
HETATM    2  N   UNL     1     -13.118   8.508  71.498  1.00  0.00    -0.320 N  
HETATM    3  C   UNL     1     -14.347   8.631  72.264  1.00  0.00    -0.396 C  
ENDROOT
BRANCH   2   4
HETATM    4  C   UNL     1     -12.456   7.314  71.244  1.00  0.00    -0.366 C  
HETATM    5  O   UNL     1     -12.432   6.388  72.053  1.00  0.00    -0.333 OA 
BRANCH   4   6
HETATM    6  N   UNL     1     -11.799   7.258  70.050  1.00  0.00    -0.532 N  
HETATM    7  H   UNL     1     -12.284   7.563  69.205  1.00  0.00     0.000 HD 
BRANCH   6   8
HETATM    8  C   UNL     1     -10.425   6.777  69.939  1.00  0.00    -0.211 C  
HETATM    9  C   UNL     1     -10.010   6.639  68.470  1.00  0.00    -0.152 C  
HETATM   10  C   UNL     1      -9.890   7.997  67.776  1.00  0.00    -0.207 C  
HETATM   11  C   UNL     1      -8.967   8.977  68.524  1.00  0.00    -0.133 C  
HETATM   12  C   UNL     1      -9.476   7.715  70.692  1.00  0.00    -0.163 C  
HETATM   13  C   UNL     1      -9.345   9.078  70.011  1.00  0.00    -0.198 C  
BRANCH  11  14
HETATM   14  C   UNL     1      -7.476   8.615  68.377  1.00  0.00    -0.095 C  
BRANCH  14  15
HETATM   15  C   UNL     1      -6.538   9.824  68.276  1.00  0.00    -0.056 C  
BRANCH  15  16
HETATM   16  N   UNL     1      -6.668  10.596  67.027  1.00  0.00    -0.081 NA 
HETATM   17  C   UNL     1      -8.022  11.171  66.842  1.00  0.00    -0.151 C  
HETATM   18  C   UNL     1      -8.405  12.271  67.861  1.00  0.00    -0.163 C  
HETATM   19  N   UNL     1      -7.375  13.331  67.878  1.00  0.00    -0.117 NA 
HETATM   20  C   UNL     1      -5.698  11.728  67.018  1.00  0.00    -0.134 C  
HETATM   21  C   UNL     1      -6.007  12.822  68.073  1.00  0.00    -0.101 C  
BRANCH  19  22
HETATM   22  C   UNL     1      -7.710  14.660  67.661  1.00  0.00    -0.177 A  
HETATM   23  C   UNL     1      -9.018  15.217  67.710  1.00  0.00    -0.177 A  
HETATM   24  C   UNL     1      -9.229  16.588  67.433  1.00  0.00    -0.216 A  
HETATM   25 CL   UNL     1     -10.400  14.295  68.244  1.00  0.00    -0.236 Cl 
HETATM   26  C   UNL     1      -8.157  17.438  67.168  1.00  0.00    -0.229 A  
HETATM   27 CL   UNL     1     -10.806  17.311  67.412  1.00  0.00    -0.236 Cl 
HETATM   28  C   UNL     1      -6.870  16.931  67.152  1.00  0.00    -0.221 A  
HETATM   29  C   UNL     1      -6.662  15.568  67.369  1.00  0.00    -0.200 A  
ENDBRANCH  19  22
ENDBRANCH  15  16
ENDBRANCH  14  15
ENDBRANCH  11  14
ENDBRANCH   6   8
ENDBRANCH   4   6
ENDBRANCH   2   4
TORSDOF 7
ENDMDL
MODEL      160
REMARK 921   NORMALIZED FREE ENERGY PREDICTED BY IDOCK:   -3.26 KCAL/MOL
REMARK 922        TOTAL FREE ENERGY PREDICTED BY IDOCK:   -5.37 KCAL/MOL
REMARK 923 INTER-LIGAND FREE ENERGY PREDICTED BY IDOCK:   -5.09 KCAL/MOL
REMARK 924 INTRA-LIGAND FREE ENERGY PREDICTED BY IDOCK:   -0.28 KCAL/MOL
REMARK 927      BINDING AFFINITY PREDICTED BY RF-SCORE:    0.00 PKD
ROOT
HETATM    1  C   UNL     1     -12.145  16.225  70.487  1.00  0.00     0.171 C  
HETATM    2  N   UNL     1     -11.761  14.966  69.878  1.00  0.00    -0.286 N  
HETATM    3  C   UNL     1     -12.158  13.733  70.536  1.00  0.00    -0.345 C  
ENDROOT
BRANCH   2   4
HETATM    4  C   UNL     1     -11.114  15.038  68.651  1.00  0.00    -0.264 C  
HETATM    5  O   UNL     1     -11.314  15.951  67.852  1.00  0.00    -0.330 OA 
BRANCH   4   6
HETATM    6  N   UNL     1     -10.272  14.000  68.378  1.00  0.00    -0.234 N  
HETATM    7  H   UNL     1      -9.434  13.881  68.948  1.00  0.00     0.000 HD 
BRANCH   6   8
HETATM    8  C   UNL     1     -10.529  13.054  67.297  1.00  0.00    -0.238 C  
HETATM    9  C   UNL     1      -9.255  12.282  66.931  1.00  0.00    -0.209 C  
HETATM   10  C   UNL     1      -8.821  11.328  68.044  1.00  0.00    -0.148 C  
HETATM   11  C   UNL     1      -9.941  10.369  68.490  1.00  0.00    -0.179 C  
HETATM   12  C   UNL     1     -11.656  12.095  67.693  1.00  0.00    -0.413 C  
HETATM   13  C   UNL     1     -11.238  11.134  68.806  1.00  0.00    -0.314 C  
BRANCH  11  14
HETATM   14  C   UNL     1     -10.217   9.260  67.456  1.00  0.00    -0.300 C  
BRANCH  14  15
HETATM   15  C   UNL     1     -10.067   7.835  68.003  1.00  0.00    -0.186 C  
BRANCH  15  16
HETATM   16  N   UNL     1      -9.946   7.751  69.469  1.00  0.00    -0.184 NA 
HETATM   17  C   UNL     1     -10.898   6.787  70.073  1.00  0.00    -0.266 C  
HETATM   18  C   UNL     1     -10.637   5.305  69.712  1.00  0.00    -0.213 C  
HETATM   19  N   UNL     1      -9.239   4.942  70.028  1.00  0.00    -0.119 NA 
HETATM   20  C   UNL     1      -8.572   7.318  69.849  1.00  0.00    -0.141 C  
HETATM   21  C   UNL     1      -8.244   5.857  69.444  1.00  0.00    -0.113 C  
BRANCH  19  22
HETATM   22  C   UNL     1      -8.948   3.868  70.858  1.00  0.00    -0.097 A  
HETATM   23  C   UNL     1      -8.115   3.897  72.011  1.00  0.00    -0.080 A  
HETATM   24  C   UNL     1      -7.870   2.719  72.754  1.00  0.00    -0.058 A  
HETATM   25 CL   UNL     1      -7.471   5.387  72.653  1.00  0.00    -0.095 Cl 
HETATM   26  C   UNL     1      -8.486   1.516  72.412  1.00  0.00    -0.053 A  
HETATM   27 CL   UNL     1      -6.812   2.677  74.128  1.00  0.00    -0.030 Cl 
HETATM   28  C   UNL     1      -9.331   1.468  71.318  1.00  0.00    -0.169 A  
HETATM   29  C   UNL     1      -9.532   2.615  70.549  1.00  0.00    -0.195 A  
ENDBRANCH  19  22
ENDBRANCH  15  16
ENDBRANCH  14  15
ENDBRANCH  11  14
ENDBRANCH   6   8
ENDBRANCH   4   6
ENDBRANCH   2   4
TORSDOF 7
ENDMDL
MODEL      161
REMARK 921   NORMALIZED FREE ENERGY PREDICTED BY IDOCK:   -3.25 KCAL/MOL
REMARK 922        TOTAL FREE ENERGY PREDICTED BY IDOCK:   -5.34 KCAL/MOL
REMARK 923 INTER-LIGAND FREE ENERGY PREDICTED BY IDOCK:   -5.00 KCAL/MOL
REMARK 924 INTRA-LIGAND FREE ENERGY PREDICTED BY IDOCK:   -0.34 KCAL/MOL
REMARK 927      BINDING AFFINITY PREDICTED BY RF-SCORE:    0.00 PKD
ROOT
HETATM    1  C   UNL     1     -10.754   3.807  64.281  1.00  0.00    -0.201 C  
HETATM    2  N   UNL     1      -9.445   4.153  63.760  1.00  0.00    -0.154 N  
HETATM    3  C   UNL     1      -9.074   3.658  62.445  1.00  0.00    -0.091 C  
ENDROOT
BRANCH   2   4
HETATM    4  C   UNL     1      -8.676   5.018  64.529  1.00  0.00    -0.132 C  
HETATM    5  O   UNL     1      -7.985   5.905  64.033  1.00  0.00    -0.114 OA 
BRANCH   4   6
HETATM    6  N   UNL     1      -8.712   4.784  65.873  1.00  0.00    -0.121 N  
HETATM    7  H   UNL     1      -9.014   3.868  66.207  1.00  0.00     0.000 HD 
BRANCH   6   8
HETATM    8  C   UNL     1      -8.332   5.799  66.850  1.00  0.00    -0.108 C  
HETATM    9  C   UNL     1      -9.477   6.792  67.080  1.00  0.00    -0.167 C  
HETATM   10  C   UNL     1     -10.665   6.145  67.794  1.00  0.00    -0.382 C  
HETATM   11  C   UNL     1     -10.270   5.439  69.105  1.00  0.00    -0.302 C  
HETATM   12  C   UNL     1      -7.909   5.134  68.164  1.00  0.00    -0.087 C  
HETATM   13  C   UNL     1      -9.086   4.482  68.890  1.00  0.00    -0.171 C  
BRANCH  11  14
HETATM   14  C   UNL     1      -9.952   6.433  70.239  1.00  0.00    -0.199 C  
BRANCH  14  15
HETATM   15  C   UNL     1     -10.839   7.684  70.251  1.00  0.00    -0.246 C  
BRANCH  15  16
HETATM   16  N   UNL     1     -10.296   8.812  71.029  1.00  0.00    -0.216 NA 
HETATM   17  C   UNL     1      -8.830   8.968  70.874  1.00  0.00    -0.240 C  
HETATM   18  C   UNL     1      -8.368   9.391  69.459  1.00  0.00    -0.127 C  
HETATM   19  N   UNL     1      -9.081  10.615  69.035  1.00  0.00    -0.179 NA 
HETATM   20  C   UNL     1     -10.928  10.089  70.595  1.00  0.00    -0.322 C  
HETATM   21  C   UNL     1     -10.546  10.516  69.155  1.00  0.00    -0.229 C  
BRANCH  19  22
HETATM   22  C   UNL     1      -8.386  11.747  68.634  1.00  0.00    -0.079 A  
HETATM   23  C   UNL     1      -8.954  13.003  68.283  1.00  0.00    -0.177 A  
HETATM   24  C   UNL     1      -8.133  14.072  67.855  1.00  0.00    -0.156 A  
HETATM   25 CL   UNL     1     -10.654  13.343  68.491  1.00  0.00    -0.258 Cl 
HETATM   26  C   UNL     1      -6.745  13.941  67.826  1.00  0.00    -0.186 A  
HETATM   27 CL   UNL     1      -8.772  15.605  67.351  1.00  0.00    -0.184 Cl 
HETATM   28  C   UNL     1      -6.164  12.743  68.199  1.00  0.00    -0.088 A  
HETATM   29  C   UNL     1      -6.973  11.668  68.568  1.00  0.00    -0.085 A  
ENDBRANCH  19  22
ENDBRANCH  15  16
ENDBRANCH  14  15
ENDBRANCH  11  14
ENDBRANCH   6   8
ENDBRANCH   4   6
ENDBRANCH   2   4
TORSDOF 7
ENDMDL
MODEL      162
REMARK 921   NORMALIZED FREE ENERGY PREDICTED BY IDOCK:   -3.20 KCAL/MOL
REMARK 922        TOTAL FREE ENERGY PREDICTED BY IDOCK:   -5.29 KCAL/MOL
REMARK 923 INTER-LIGAND FREE ENERGY PREDICTED BY IDOCK:   -5.17 KCAL/MOL
REMARK 924 INTRA-LIGAND FREE ENERGY PREDICTED BY IDOCK:   -0.12 KCAL/MOL
REMARK 927      BINDING AFFINITY PREDICTED BY RF-SCORE:    0.00 PKD
ROOT
HETATM    1  C   UNL     1      -5.355  10.106  65.699  1.00  0.00    -0.063 C  
HETATM    2  N   UNL     1      -6.193   9.699  66.810  1.00  0.00    -0.064 N  
HETATM    3  C   UNL     1      -7.205   8.682  66.574  1.00  0.00    -0.080 C  
ENDROOT
BRANCH   2   4
HETATM    4  C   UNL     1      -5.899  10.253  68.050  1.00  0.00    -0.041 C  
HETATM    5  O   UNL     1      -5.592   9.567  69.023  1.00  0.00    -0.036 OA 
BRANCH   4   6
HETATM    6  N   UNL     1      -6.015  11.611  68.119  1.00  0.00    -0.045 N  
HETATM    7  H   UNL     1      -5.270  12.190  67.730  1.00  0.00     0.000 HD 
BRANCH   6   8
HETATM    8  C   UNL     1      -7.168  12.263  68.732  1.00  0.00    -0.098 C  
HETATM    9  C   UNL     1      -6.883  13.747  68.992  1.00  0.00    -0.111 C  
HETATM   10  C   UNL     1      -6.765  14.546  67.693  1.00  0.00    -0.194 C  
HETATM   11  C   UNL     1      -7.979  14.368  66.762  1.00  0.00     0.270 C  
HETATM   12  C   UNL     1      -8.405  12.088  67.845  1.00  0.00    -0.155 C  
HETATM   13  C   UNL     1      -8.302  12.880  66.542  1.00  0.00     0.264 C  
BRANCH  11  14
HETATM   14  C   UNL     1      -9.229  15.114  67.270  1.00  0.00    -0.208 C  
BRANCH  14  15
HETATM   15  C   UNL     1     -10.433  15.050  66.322  1.00  0.00    -0.304 C  
BRANCH  15  16
HETATM   16  N   UNL     1     -11.743  15.026  66.996  1.00  0.00    -0.257 NA 
HETATM   17  C   UNL     1     -12.454  13.735  66.829  1.00  0.00    -0.209 C  
HETATM   18  C   UNL     1     -11.786  12.530  67.532  1.00  0.00    -0.374 C  
HETATM   19  N   UNL     1     -11.561  12.834  68.962  1.00  0.00    -0.297 NA 
HETATM   20  C   UNL     1     -11.574  15.256  68.458  1.00  0.00    -0.352 C  
HETATM   21  C   UNL     1     -10.846  14.100  69.192  1.00  0.00    -0.229 C  
BRANCH  19  22
HETATM   22  C   UNL     1     -12.057  12.004  69.957  1.00  0.00    -0.280 A  
HETATM   23  C   UNL     1     -11.877  10.596  70.047  1.00  0.00    -0.322 A  
HETATM   24  C   UNL     1     -12.467   9.858  71.099  1.00  0.00    -0.368 A  
HETATM   25 CL   UNL     1     -10.818   9.725  68.966  1.00  0.00    -0.237 Cl 
HETATM   26  C   UNL     1     -13.187  10.499  72.107  1.00  0.00    -0.398 A  
HETATM   27 CL   UNL     1     -12.338   8.132  71.225  1.00  0.00    -0.303 Cl 
HETATM   28  C   UNL     1     -13.345  11.872  72.066  1.00  0.00    -0.425 A  
HETATM   29  C   UNL     1     -12.812  12.597  71.000  1.00  0.00    -0.254 A  
ENDBRANCH  19  22
ENDBRANCH  15  16
ENDBRANCH  14  15
ENDBRANCH  11  14
ENDBRANCH   6   8
ENDBRANCH   4   6
ENDBRANCH   2   4
TORSDOF 7
ENDMDL
MODEL      163
REMARK 921   NORMALIZED FREE ENERGY PREDICTED BY IDOCK:   -3.18 KCAL/MOL
REMARK 922        TOTAL FREE ENERGY PREDICTED BY IDOCK:   -5.25 KCAL/MOL
REMARK 923 INTER-LIGAND FREE ENERGY PREDICTED BY IDOCK:   -4.94 KCAL/MOL
REMARK 924 INTRA-LIGAND FREE ENERGY PREDICTED BY IDOCK:   -0.32 KCAL/MOL
REMARK 927      BINDING AFFINITY PREDICTED BY RF-SCORE:    0.00 PKD
ROOT
HETATM    1  C   UNL     1     -12.161  15.429  73.265  1.00  0.00    -0.477 C  
HETATM    2  N   UNL     1     -12.914  14.727  72.243  1.00  0.00    -0.321 N  
HETATM    3  C   UNL     1     -13.343  13.366  72.517  1.00  0.00    -0.484 C  
ENDROOT
BRANCH   2   4
HETATM    4  C   UNL     1     -13.248  15.452  71.107  1.00  0.00    -0.513 C  
HETATM    5  O   UNL     1     -14.396  15.500  70.669  1.00  0.00    -0.157 OA 
BRANCH   4   6
HETATM    6  N   UNL     1     -12.203  16.073  70.487  1.00  0.00    -0.451 N  
HETATM    7  H   UNL     1     -12.363  16.972  70.031  1.00  0.00     0.000 HD 
BRANCH   6   8
HETATM    8  C   UNL     1     -10.863  15.495  70.455  1.00  0.00    -0.335 C  
HETATM    9  C   UNL     1     -10.862  14.160  69.701  1.00  0.00    -0.059 C  
HETATM   10  C   UNL     1     -11.127  14.343  68.205  1.00  0.00    -0.275 C  
HETATM   11  C   UNL     1     -10.173  15.355  67.543  1.00  0.00    -0.244 C  
HETATM   12  C   UNL     1      -9.878  16.483  69.822  1.00  0.00     0.146 C  
HETATM   13  C   UNL     1     -10.130  16.678  68.327  1.00  0.00    -0.268 C  
BRANCH  11  14
HETATM   14  C   UNL     1      -8.748  14.796  67.364  1.00  0.00    -0.210 C  
BRANCH  14  15
HETATM   15  C   UNL     1      -8.685  13.275  67.173  1.00  0.00    -0.212 C  
BRANCH  15  16
HETATM   16  N   UNL     1      -7.344  12.691  67.350  1.00  0.00    -0.148 NA 
HETATM   17  C   UNL     1      -7.036  12.370  68.765  1.00  0.00    -0.098 C  
HETATM   18  C   UNL     1      -7.890  11.232  69.372  1.00  0.00     0.139 C  
HETATM   19  N   UNL     1      -7.809  10.025  68.523  1.00  0.00    -0.091 NA 
HETATM   20  C   UNL     1      -7.225  11.427  66.570  1.00  0.00    -0.057 C  
HETATM   21  C   UNL     1      -8.118  10.279  67.105  1.00  0.00    -0.121 C  
BRANCH  19  22
HETATM   22  C   UNL     1      -7.410   8.804  69.048  1.00  0.00    -0.073 A  
HETATM   23  C   UNL     1      -8.087   8.058  70.053  1.00  0.00    -0.116 A  
HETATM   24  C   UNL     1      -7.554   6.838  70.528  1.00  0.00    -0.091 A  
HETATM   25 CL   UNL     1      -9.661   8.521  70.649  1.00  0.00    -0.194 Cl 
HETATM   26  C   UNL     1      -6.387   6.305  69.981  1.00  0.00    -0.035 A  
HETATM   27 CL   UNL     1      -8.298   5.917  71.797  1.00  0.00    -0.119 Cl 
HETATM   28  C   UNL     1      -5.729   6.991  68.976  1.00  0.00    -0.018 A  
HETATM   29  C   UNL     1      -6.221   8.222  68.543  1.00  0.00    -0.053 A  
ENDBRANCH  19  22
ENDBRANCH  15  16
ENDBRANCH  14  15
ENDBRANCH  11  14
ENDBRANCH   6   8
ENDBRANCH   4   6
ENDBRANCH   2   4
TORSDOF 7
ENDMDL
MODEL      164
REMARK 921   NORMALIZED FREE ENERGY PREDICTED BY IDOCK:   -3.13 KCAL/MOL
REMARK 922        TOTAL FREE ENERGY PREDICTED BY IDOCK:   -5.19 KCAL/MOL
REMARK 923 INTER-LIGAND FREE ENERGY PREDICTED BY IDOCK:   -4.99 KCAL/MOL
REMARK 924 INTRA-LIGAND FREE ENERGY PREDICTED BY IDOCK:   -0.20 KCAL/MOL
REMARK 927      BINDING AFFINITY PREDICTED BY RF-SCORE:    0.00 PKD
ROOT
HETATM    1  C   UNL     1      -5.169   4.415  66.013  1.00  0.00    -0.009 C  
HETATM    2  N   UNL     1      -5.900   3.202  66.326  1.00  0.00    -0.022 N  
HETATM    3  C   UNL     1      -5.153   2.056  66.816  1.00  0.00    -0.005 C  
ENDROOT
BRANCH   2   4
HETATM    4  C   UNL     1      -7.283   3.261  66.218  1.00  0.00    -0.067 C  
HETATM    5  O   UNL     1      -7.916   2.554  65.437  1.00  0.00    -0.077 OA 
BRANCH   4   6
HETATM    6  N   UNL     1      -7.886   4.192  67.013  1.00  0.00    -0.095 N  
HETATM    7  H   UNL     1      -8.269   3.899  67.913  1.00  0.00     0.000 HD 
BRANCH   6   8
HETATM    8  C   UNL     1      -8.002   5.593  66.620  1.00  0.00    -0.101 C  
HETATM    9  C   UNL     1      -9.317   5.844  65.872  1.00  0.00    -0.071 C  
HETATM   10  C   UNL     1     -10.535   5.706  66.788  1.00  0.00    -0.353 C  
HETATM   11  C   UNL     1     -10.441   6.578  68.053  1.00  0.00    -0.265 C  
HETATM   12  C   UNL     1      -7.891   6.497  67.852  1.00  0.00    -0.108 C  
HETATM   13  C   UNL     1      -9.100   6.370  68.778  1.00  0.00    -0.125 C  
BRANCH  11  14
HETATM   14  C   UNL     1     -10.659   8.075  67.758  1.00  0.00    -0.239 C  
BRANCH  14  15
HETATM   15  C   UNL     1     -11.091   8.903  68.974  1.00  0.00     0.174 C  
BRANCH  15  16
HETATM   16  N   UNL     1     -10.130   9.943  69.380  1.00  0.00    -0.198 NA 
HETATM   17  C   UNL     1      -9.211  10.338  68.285  1.00  0.00    -0.139 C  
HETATM   18  C   UNL     1      -9.887  11.067  67.101  1.00  0.00    -0.184 C  
HETATM   19  N   UNL     1     -10.660  12.228  67.591  1.00  0.00    -0.211 NA 
HETATM   20  C   UNL     1     -10.852  11.171  69.820  1.00  0.00    -0.090 C  
HETATM   21  C   UNL     1     -11.602  11.896  68.673  1.00  0.00    -0.310 C  
BRANCH  19  22
HETATM   22  C   UNL     1     -10.434  13.503  67.092  1.00  0.00    -0.256 A  
HETATM   23  C   UNL     1     -11.130  14.122  66.017  1.00  0.00    -0.314 A  
HETATM   24  C   UNL     1     -10.777  15.420  65.580  1.00  0.00    -0.369 A  
HETATM   25 CL   UNL     1     -12.532  13.392  65.277  1.00  0.00    -0.504 Cl 
HETATM   26  C   UNL     1      -9.781  16.148  66.231  1.00  0.00    -0.332 A  
HETATM   27 CL   UNL     1     -11.544  16.201  64.234  1.00  0.00    -0.294 Cl 
HETATM   28  C   UNL     1      -9.114  15.585  67.304  1.00  0.00    -0.215 A  
HETATM   29  C   UNL     1      -9.420  14.284  67.702  1.00  0.00    -0.211 A  
ENDBRANCH  19  22
ENDBRANCH  15  16
ENDBRANCH  14  15
ENDBRANCH  11  14
ENDBRANCH   6   8
ENDBRANCH   4   6
ENDBRANCH   2   4
TORSDOF 7
ENDMDL
MODEL      165
REMARK 921   NORMALIZED FREE ENERGY PREDICTED BY IDOCK:   -3.12 KCAL/MOL
REMARK 922        TOTAL FREE ENERGY PREDICTED BY IDOCK:   -5.16 KCAL/MOL
REMARK 923 INTER-LIGAND FREE ENERGY PREDICTED BY IDOCK:   -4.48 KCAL/MOL
REMARK 924 INTRA-LIGAND FREE ENERGY PREDICTED BY IDOCK:   -0.68 KCAL/MOL
REMARK 927      BINDING AFFINITY PREDICTED BY RF-SCORE:    0.00 PKD
ROOT
HETATM    1  C   UNL     1     -11.680  15.980  68.759  1.00  0.00    -0.299 C  
HETATM    2  N   UNL     1     -10.434  15.502  68.191  1.00  0.00    -0.254 N  
HETATM    3  C   UNL     1      -9.249  16.332  68.334  1.00  0.00    -0.203 C  
ENDROOT
BRANCH   2   4
HETATM    4  C   UNL     1     -10.451  14.232  67.629  1.00  0.00    -0.248 C  
HETATM    5  O   UNL     1     -10.300  14.041  66.424  1.00  0.00    -0.278 OA 
BRANCH   4   6
HETATM    6  N   UNL     1     -10.690  13.214  68.506  1.00  0.00    -0.254 N  
HETATM    7  H   UNL     1     -10.640  13.404  69.508  1.00  0.00     0.000 HD 
BRANCH   6   8
HETATM    8  C   UNL     1     -11.014  11.863  68.060  1.00  0.00    -0.224 C  
HETATM    9  C   UNL     1      -9.834  10.912  68.295  1.00  0.00    -0.179 C  
HETATM   10  C   UNL     1      -9.582  10.665  69.784  1.00  0.00     0.142 C  
HETATM   11  C   UNL     1     -10.838  10.189  70.538  1.00  0.00    -0.340 C  
HETATM   12  C   UNL     1     -12.274  11.361  68.773  1.00  0.00    -0.101 C  
HETATM   13  C   UNL     1     -12.039  11.109  70.262  1.00  0.00    -0.462 C  
BRANCH  11  14
HETATM   14  C   UNL     1     -11.203   8.727  70.216  1.00  0.00    -0.212 C  
BRANCH  14  15
HETATM   15  C   UNL     1      -9.996   7.798  70.036  1.00  0.00    -0.187 C  
BRANCH  15  16
HETATM   16  N   UNL     1     -10.174   6.754  69.011  1.00  0.00    -0.170 NA 
HETATM   17  C   UNL     1     -10.452   7.308  67.664  1.00  0.00    -0.242 C  
HETATM   18  C   UNL     1      -9.277   8.089  67.028  1.00  0.00    -0.147 C  
HETATM   19  N   UNL     1      -8.057   7.255  67.019  1.00  0.00    -0.115 NA 
HETATM   20  C   UNL     1      -8.943   5.921  68.905  1.00  0.00    -0.118 C  
HETATM   21  C   UNL     1      -7.720   6.686  68.335  1.00  0.00    -0.105 C  
BRANCH  19  22
HETATM   22  C   UNL     1      -7.366   7.009  65.841  1.00  0.00    -0.075 A  
HETATM   23  C   UNL     1      -7.473   5.845  65.030  1.00  0.00    -0.080 A  
HETATM   24  C   UNL     1      -6.683   5.701  63.866  1.00  0.00    -0.037 A  
HETATM   25 CL   UNL     1      -8.666   4.608  65.335  1.00  0.00    -0.129 Cl 
HETATM   26  C   UNL     1      -5.828   6.721  63.451  1.00  0.00    -0.035 A  
HETATM   27 CL   UNL     1      -6.721   4.279  62.873  1.00  0.00    -0.030 Cl 
HETATM   28  C   UNL     1      -5.732   7.881  64.200  1.00  0.00    -0.052 A  
HETATM   29  C   UNL     1      -6.468   8.003  65.379  1.00  0.00    -0.048 A  
ENDBRANCH  19  22
ENDBRANCH  15  16
ENDBRANCH  14  15
ENDBRANCH  11  14
ENDBRANCH   6   8
ENDBRANCH   4   6
ENDBRANCH   2   4
TORSDOF 7
ENDMDL
MODEL      166
REMARK 921   NORMALIZED FREE ENERGY PREDICTED BY IDOCK:   -3.11 KCAL/MOL
REMARK 922        TOTAL FREE ENERGY PREDICTED BY IDOCK:   -5.15 KCAL/MOL
REMARK 923 INTER-LIGAND FREE ENERGY PREDICTED BY IDOCK:   -5.21 KCAL/MOL
REMARK 924 INTRA-LIGAND FREE ENERGY PREDICTED BY IDOCK:    0.06 KCAL/MOL
REMARK 927      BINDING AFFINITY PREDICTED BY RF-SCORE:    0.00 PKD
ROOT
HETATM    1  C   UNL     1     -10.388  16.046  65.127  1.00  0.00    -0.215 C  
HETATM    2  N   UNL     1     -11.087  15.352  66.191  1.00  0.00    -0.280 N  
HETATM    3  C   UNL     1     -11.158  15.987  67.497  1.00  0.00    -0.207 C  
ENDROOT
BRANCH   2   4
HETATM    4  C   UNL     1     -11.720  14.164  65.851  1.00  0.00    -0.365 C  
HETATM    5  O   UNL     1     -12.937  14.085  65.696  1.00  0.00    -0.608 OA 
BRANCH   4   6
HETATM    6  N   UNL     1     -10.898  13.080  65.740  1.00  0.00    -0.271 N  
HETATM    7  H   UNL     1     -10.908  12.540  64.874  1.00  0.00     0.000 HD 
BRANCH   6   8
HETATM    8  C   UNL     1     -10.005  12.668  66.818  1.00  0.00    -0.234 C  
HETATM    9  C   UNL     1     -10.792  12.395  68.105  1.00  0.00    -0.250 C  
HETATM   10  C   UNL     1     -11.680  11.155  67.984  1.00  0.00    -0.288 C  
HETATM   11  C   UNL     1     -10.908   9.902  67.528  1.00  0.00    -0.307 C  
HETATM   12  C   UNL     1      -9.201  11.435  66.394  1.00  0.00    -0.209 C  
HETATM   13  C   UNL     1     -10.074  10.187  66.268  1.00  0.00    -0.303 C  
BRANCH  11  14
HETATM   14  C   UNL     1     -10.012   9.322  68.640  1.00  0.00    -0.193 C  
BRANCH  14  15
HETATM   15  C   UNL     1     -10.780   8.685  69.804  1.00  0.00    -0.215 C  
BRANCH  15  16
HETATM   16  N   UNL     1     -10.925   7.221  69.714  1.00  0.00    -0.241 NA 
HETATM   17  C   UNL     1     -10.176   6.636  68.576  1.00  0.00    -0.171 C  
HETATM   18  C   UNL     1      -8.636   6.731  68.694  1.00  0.00    -0.122 C  
HETATM   19  N   UNL     1      -8.187   6.155  69.979  1.00  0.00    -0.121 NA 
HETATM   20  C   UNL     1     -10.420   6.575  70.959  1.00  0.00    -0.222 C  
HETATM   21  C   UNL     1      -8.887   6.707  71.151  1.00  0.00    -0.137 C  
BRANCH  19  22
HETATM   22  C   UNL     1      -7.239   5.142  70.018  1.00  0.00    -0.059 A  
HETATM   23  C   UNL     1      -7.260   4.002  70.868  1.00  0.00    -0.037 A  
HETATM   24  C   UNL     1      -6.209   3.056  70.833  1.00  0.00    -0.019 A  
HETATM   25 CL   UNL     1      -8.628   3.628  71.885  1.00  0.00    -0.101 Cl 
HETATM   26  C   UNL     1      -5.160   3.185  69.924  1.00  0.00    -0.004 A  
HETATM   27 CL   UNL     1      -6.145   1.681  71.889  1.00  0.00    -0.013 Cl 
HETATM   28  C   UNL     1      -5.134   4.265  69.059  1.00  0.00     0.000 A  
HETATM   29  C   UNL     1      -6.139   5.230  69.129  1.00  0.00    -0.025 A  
ENDBRANCH  19  22
ENDBRANCH  15  16
ENDBRANCH  14  15
ENDBRANCH  11  14
ENDBRANCH   6   8
ENDBRANCH   4   6
ENDBRANCH   2   4
TORSDOF 7
ENDMDL
MODEL      167
REMARK 921   NORMALIZED FREE ENERGY PREDICTED BY IDOCK:   -3.11 KCAL/MOL
REMARK 922        TOTAL FREE ENERGY PREDICTED BY IDOCK:   -5.15 KCAL/MOL
REMARK 923 INTER-LIGAND FREE ENERGY PREDICTED BY IDOCK:   -4.60 KCAL/MOL
REMARK 924 INTRA-LIGAND FREE ENERGY PREDICTED BY IDOCK:   -0.55 KCAL/MOL
REMARK 927      BINDING AFFINITY PREDICTED BY RF-SCORE:    0.00 PKD
ROOT
HETATM    1  C   UNL     1      -6.546   5.227  73.989  1.00  0.00    -0.074 C  
HETATM    2  N   UNL     1      -6.517   4.351  72.833  1.00  0.00    -0.039 N  
HETATM    3  C   UNL     1      -5.459   3.358  72.748  1.00  0.00     0.000 C  
ENDROOT
BRANCH   2   4
HETATM    4  C   UNL     1      -7.568   4.470  71.933  1.00  0.00    -0.083 C  
HETATM    5  O   UNL     1      -8.743   4.516  72.293  1.00  0.00    -0.115 OA 
BRANCH   4   6
HETATM    6  N   UNL     1      -7.205   4.490  70.618  1.00  0.00    -0.047 N  
HETATM    7  H   UNL     1      -7.509   3.728  70.011  1.00  0.00     0.000 HD 
BRANCH   6   8
HETATM    8  C   UNL     1      -6.397   5.564  70.050  1.00  0.00    -0.033 C  
HETATM    9  C   UNL     1      -5.926   5.205  68.636  1.00  0.00    -0.021 C  
HETATM   10  C   UNL     1      -7.083   5.164  67.637  1.00  0.00    -0.066 C  
HETATM   11  C   UNL     1      -7.922   6.456  67.631  1.00  0.00    -0.114 C  
HETATM   12  C   UNL     1      -7.190   6.875  70.048  1.00  0.00    -0.080 C  
HETATM   13  C   UNL     1      -8.351   6.850  69.054  1.00  0.00    -0.125 C  
BRANCH  11  14
HETATM   14  C   UNL     1      -7.193   7.631  66.951  1.00  0.00    -0.088 C  
BRANCH  14  15
HETATM   15  C   UNL     1      -7.964   8.263  65.784  1.00  0.00    -0.099 C  
BRANCH  15  16
HETATM   16  N   UNL     1      -7.455   9.578  65.355  1.00  0.00    -0.096 NA 
HETATM   17  C   UNL     1      -8.078  10.054  64.096  1.00  0.00    -0.153 C  
HETATM   18  C   UNL     1      -9.584  10.389  64.203  1.00  0.00    -0.322 C  
HETATM   19  N   UNL     1      -9.817  11.344  65.308  1.00  0.00    -0.239 NA 
HETATM   20  C   UNL     1      -7.726  10.603  66.402  1.00  0.00    -0.141 C  
HETATM   21  C   UNL     1      -9.232  10.918  66.590  1.00  0.00    -0.168 C  
BRANCH  19  22
HETATM   22  C   UNL     1     -10.474  12.547  65.088  1.00  0.00    -0.293 A  
HETATM   23  C   UNL     1     -10.106  13.815  65.617  1.00  0.00    -0.298 A  
HETATM   24  C   UNL     1     -10.884  14.964  65.344  1.00  0.00    -0.369 A  
HETATM   25 CL   UNL     1      -8.620  14.057  66.501  1.00  0.00     0.029 Cl 
HETATM   26  C   UNL     1     -11.992  14.894  64.501  1.00  0.00    -0.420 A  
HETATM   27 CL   UNL     1     -10.524  16.524  66.013  1.00  0.00    -0.334 Cl 
HETATM   28  C   UNL     1     -12.351  13.681  63.942  1.00  0.00    -0.375 A  
HETATM   29  C   UNL     1     -11.619  12.534  64.254  1.00  0.00    -0.435 A  
ENDBRANCH  19  22
ENDBRANCH  15  16
ENDBRANCH  14  15
ENDBRANCH  11  14
ENDBRANCH   6   8
ENDBRANCH   4   6
ENDBRANCH   2   4
TORSDOF 7
ENDMDL
MODEL      168
REMARK 921   NORMALIZED FREE ENERGY PREDICTED BY IDOCK:   -3.10 KCAL/MOL
REMARK 922        TOTAL FREE ENERGY PREDICTED BY IDOCK:   -5.14 KCAL/MOL
REMARK 923 INTER-LIGAND FREE ENERGY PREDICTED BY IDOCK:   -4.68 KCAL/MOL
REMARK 924 INTRA-LIGAND FREE ENERGY PREDICTED BY IDOCK:   -0.46 KCAL/MOL
REMARK 927      BINDING AFFINITY PREDICTED BY RF-SCORE:    0.00 PKD
ROOT
HETATM    1  C   UNL     1      -9.715  16.235  69.311  1.00  0.00    -0.238 C  
HETATM    2  N   UNL     1      -8.727  16.287  68.250  1.00  0.00    -0.185 N  
HETATM    3  C   UNL     1      -7.321  16.261  68.616  1.00  0.00    -0.180 C  
ENDROOT
BRANCH   2   4
HETATM    4  C   UNL     1      -9.209  16.264  66.947  1.00  0.00    -0.218 C  
HETATM    5  O   UNL     1      -9.645  17.268  66.387  1.00  0.00    -0.262 OA 
BRANCH   4   6
HETATM    6  N   UNL     1      -9.203  15.038  66.349  1.00  0.00    -0.293 N  
HETATM    7  H   UNL     1      -8.314  14.647  66.036  1.00  0.00     0.000 HD 
BRANCH   6   8
HETATM    8  C   UNL     1     -10.425  14.267  66.142  1.00  0.00    -0.292 C  
HETATM    9  C   UNL     1     -10.344  13.451  64.846  1.00  0.00    -0.382 C  
HETATM   10  C   UNL     1      -9.312  12.325  64.940  1.00  0.00     0.302 C  
HETATM   11  C   UNL     1      -9.526  11.410  66.161  1.00  0.00    -0.237 C  
HETATM   12  C   UNL     1     -10.686  13.359  67.348  1.00  0.00    -0.269 C  
HETATM   13  C   UNL     1      -9.663  12.228  67.456  1.00  0.00    -0.190 C  
BRANCH  11  14
HETATM   14  C   UNL     1     -10.739  10.473  65.993  1.00  0.00    -0.086 C  
BRANCH  14  15
HETATM   15  C   UNL     1     -10.850   9.384  67.067  1.00  0.00    -0.026 C  
BRANCH  15  16
HETATM   16  N   UNL     1     -10.104   8.149  66.766  1.00  0.00    -0.279 NA 
HETATM   17  C   UNL     1      -8.734   8.149  67.335  1.00  0.00    -0.124 C  
HETATM   18  C   UNL     1      -8.673   8.111  68.880  1.00  0.00    -0.137 C  
HETATM   19  N   UNL     1      -9.463   6.971  69.393  1.00  0.00    -0.146 NA 
HETATM   20  C   UNL     1     -10.818   6.966  67.323  1.00  0.00    -0.356 C  
HETATM   21  C   UNL     1     -10.840   6.924  68.873  1.00  0.00    -0.207 C  
BRANCH  19  22
HETATM   22  C   UNL     1      -8.893   6.025  70.233  1.00  0.00    -0.144 A  
HETATM   23  C   UNL     1      -7.979   6.280  71.292  1.00  0.00    -0.116 A  
HETATM   24  C   UNL     1      -7.443   5.217  72.055  1.00  0.00    -0.097 A  
HETATM   25 CL   UNL     1      -7.579   7.901  71.802  1.00  0.00    -0.083 Cl 
HETATM   26  C   UNL     1      -7.843   3.901  71.829  1.00  0.00    -0.070 A  
HETATM   27 CL   UNL     1      -6.275   5.459  73.315  1.00  0.00    -0.053 Cl 
HETATM   28  C   UNL     1      -8.760   3.627  70.831  1.00  0.00    -0.121 A  
HETATM   29  C   UNL     1      -9.250   4.667  70.039  1.00  0.00    -0.186 A  
ENDBRANCH  19  22
ENDBRANCH  15  16
ENDBRANCH  14  15
ENDBRANCH  11  14
ENDBRANCH   6   8
ENDBRANCH   4   6
ENDBRANCH   2   4
TORSDOF 7
ENDMDL
MODEL      169
REMARK 921   NORMALIZED FREE ENERGY PREDICTED BY IDOCK:   -3.08 KCAL/MOL
REMARK 922        TOTAL FREE ENERGY PREDICTED BY IDOCK:   -5.11 KCAL/MOL
REMARK 923 INTER-LIGAND FREE ENERGY PREDICTED BY IDOCK:   -4.21 KCAL/MOL
REMARK 924 INTRA-LIGAND FREE ENERGY PREDICTED BY IDOCK:   -0.89 KCAL/MOL
REMARK 927      BINDING AFFINITY PREDICTED BY RF-SCORE:    0.00 PKD
ROOT
HETATM    1  C   UNL     1     -10.196   4.269  65.565  1.00  0.00    -0.207 C  
HETATM    2  N   UNL     1      -9.634   3.961  64.263  1.00  0.00    -0.158 N  
HETATM    3  C   UNL     1     -10.112   2.777  63.569  1.00  0.00    -0.158 C  
ENDROOT
BRANCH   2   4
HETATM    4  C   UNL     1      -8.741   4.885  63.735  1.00  0.00    -0.108 C  
HETATM    5  O   UNL     1      -8.771   5.233  62.556  1.00  0.00    -0.119 OA 
BRANCH   4   6
HETATM    6  N   UNL     1      -7.801   5.347  64.610  1.00  0.00    -0.098 N  
HETATM    7  H   UNL     1      -7.394   4.698  65.284  1.00  0.00     0.000 HD 
BRANCH   6   8
HETATM    8  C   UNL     1      -7.360   6.738  64.615  1.00  0.00    -0.089 C  
HETATM    9  C   UNL     1      -7.998   7.511  65.775  1.00  0.00    -0.117 C  
HETATM   10  C   UNL     1      -7.474   7.044  67.134  1.00  0.00    -0.095 C  
HETATM   11  C   UNL     1      -5.937   7.069  67.230  1.00  0.00    -0.032 C  
HETATM   12  C   UNL     1      -5.831   6.805  64.686  1.00  0.00    -0.031 C  
HETATM   13  C   UNL     1      -5.291   6.341  66.038  1.00  0.00    -0.013 C  
BRANCH  11  14
HETATM   14  C   UNL     1      -5.374   8.499  67.348  1.00  0.00    -0.034 C  
BRANCH  14  15
HETATM   15  C   UNL     1      -5.979   9.323  68.491  1.00  0.00    -0.044 C  
BRANCH  15  16
HETATM   16  N   UNL     1      -5.717  10.771  68.407  1.00  0.00    -0.043 NA 
HETATM   17  C   UNL     1      -5.846  11.302  67.028  1.00  0.00    -0.091 C  
HETATM   18  C   UNL     1      -7.281  11.271  66.452  1.00  0.00    -0.052 C  
HETATM   19  N   UNL     1      -8.215  11.951  67.373  1.00  0.00    -0.156 NA 
HETATM   20  C   UNL     1      -6.679  11.520  69.264  1.00  0.00    -0.118 C  
HETATM   21  C   UNL     1      -8.144  11.457  68.759  1.00  0.00    -0.112 C  
BRANCH  19  22
HETATM   22  C   UNL     1      -9.016  12.998  66.938  1.00  0.00    -0.209 A  
HETATM   23  C   UNL     1     -10.074  12.910  65.991  1.00  0.00    -0.285 A  
HETATM   24  C   UNL     1     -10.795  14.064  65.605  1.00  0.00    -0.295 A  
HETATM   25 CL   UNL     1     -10.633  11.381  65.362  1.00  0.00    -0.333 Cl 
HETATM   26  C   UNL     1     -10.529  15.302  66.189  1.00  0.00    -0.318 A  
HETATM   27 CL   UNL     1     -12.049  14.033  64.407  1.00  0.00    -0.474 Cl 
HETATM   28  C   UNL     1      -9.532  15.409  67.142  1.00  0.00    -0.221 A  
HETATM   29  C   UNL     1      -8.781  14.284  67.484  1.00  0.00    -0.204 A  
ENDBRANCH  19  22
ENDBRANCH  15  16
ENDBRANCH  14  15
ENDBRANCH  11  14
ENDBRANCH   6   8
ENDBRANCH   4   6
ENDBRANCH   2   4
TORSDOF 7
ENDMDL
MODEL      170
REMARK 921   NORMALIZED FREE ENERGY PREDICTED BY IDOCK:   -3.05 KCAL/MOL
REMARK 922        TOTAL FREE ENERGY PREDICTED BY IDOCK:   -5.07 KCAL/MOL
REMARK 923 INTER-LIGAND FREE ENERGY PREDICTED BY IDOCK:   -5.08 KCAL/MOL
REMARK 924 INTRA-LIGAND FREE ENERGY PREDICTED BY IDOCK:    0.02 KCAL/MOL
REMARK 927      BINDING AFFINITY PREDICTED BY RF-SCORE:    0.00 PKD
ROOT
HETATM    1  C   UNL     1     -11.330  14.010  70.245  1.00  0.00     0.010 C  
HETATM    2  N   UNL     1     -12.117  15.124  69.751  1.00  0.00    -0.322 N  
HETATM    3  C   UNL     1     -13.274  15.546  70.525  1.00  0.00    -0.134 C  
ENDROOT
BRANCH   2   4
HETATM    4  C   UNL     1     -11.646  15.765  68.613  1.00  0.00    -0.386 C  
HETATM    5  O   UNL     1     -11.769  16.976  68.438  1.00  0.00     0.232 OA 
BRANCH   4   6
HETATM    6  N   UNL     1     -11.072  14.948  67.683  1.00  0.00    -0.301 N  
HETATM    7  H   UNL     1     -10.063  14.992  67.543  1.00  0.00     0.000 HD 
BRANCH   6   8
HETATM    8  C   UNL     1     -11.855  14.011  66.882  1.00  0.00    -0.430 C  
HETATM    9  C   UNL     1     -11.452  14.086  65.405  1.00  0.00    -0.315 C  
HETATM   10  C   UNL     1     -10.039  13.550  65.165  1.00  0.00    -0.278 C  
HETATM   11  C   UNL     1      -9.829  12.132  65.727  1.00  0.00    -0.264 C  
HETATM   12  C   UNL     1     -11.689  12.588  67.425  1.00  0.00    -0.432 C  
HETATM   13  C   UNL     1     -10.282  12.038  67.194  1.00  0.00    -0.221 C  
BRANCH  11  14
HETATM   14  C   UNL     1     -10.532  11.050  64.883  1.00  0.00    -0.371 C  
BRANCH  14  15
HETATM   15  C   UNL     1      -9.743   9.741  64.748  1.00  0.00    -0.143 C  
BRANCH  15  16
HETATM   16  N   UNL     1      -8.868   9.434  65.893  1.00  0.00    -0.152 NA 
HETATM   17  C   UNL     1      -9.594   8.805  67.022  1.00  0.00    -0.179 C  
HETATM   18  C   UNL     1     -10.141   7.387  66.734  1.00  0.00    -0.235 C  
HETATM   19  N   UNL     1      -9.054   6.511  66.246  1.00  0.00    -0.156 NA 
HETATM   20  C   UNL     1      -7.789   8.493  65.478  1.00  0.00    -0.104 C  
HETATM   21  C   UNL     1      -8.303   7.077  65.113  1.00  0.00    -0.073 C  
BRANCH  19  22
HETATM   22  C   UNL     1      -8.767   5.307  66.874  1.00  0.00    -0.111 A  
HETATM   23  C   UNL     1      -7.984   5.137  68.050  1.00  0.00    -0.091 A  
HETATM   24  C   UNL     1      -7.737   3.846  68.572  1.00  0.00    -0.061 A  
HETATM   25 CL   UNL     1      -7.410   6.494  68.987  1.00  0.00    -0.091 Cl 
HETATM   26  C   UNL     1      -8.304   2.716  67.984  1.00  0.00    -0.091 A  
HETATM   27 CL   UNL     1      -6.737   3.570  69.962  1.00  0.00    -0.033 Cl 
HETATM   28  C   UNL     1      -9.101   2.856  66.862  1.00  0.00    -0.181 A  
HETATM   29  C   UNL     1      -9.302   4.122  66.311  1.00  0.00    -0.173 A  
ENDBRANCH  19  22
ENDBRANCH  15  16
ENDBRANCH  14  15
ENDBRANCH  11  14
ENDBRANCH   6   8
ENDBRANCH   4   6
ENDBRANCH   2   4
TORSDOF 7
ENDMDL
MODEL      171
REMARK 921   NORMALIZED FREE ENERGY PREDICTED BY IDOCK:   -3.04 KCAL/MOL
REMARK 922        TOTAL FREE ENERGY PREDICTED BY IDOCK:   -5.05 KCAL/MOL
REMARK 923 INTER-LIGAND FREE ENERGY PREDICTED BY IDOCK:   -4.64 KCAL/MOL
REMARK 924 INTRA-LIGAND FREE ENERGY PREDICTED BY IDOCK:   -0.42 KCAL/MOL
REMARK 927      BINDING AFFINITY PREDICTED BY RF-SCORE:    0.00 PKD
ROOT
HETATM    1  C   UNL     1     -10.904  11.545  63.870  1.00  0.00    -0.401 C  
HETATM    2  N   UNL     1     -10.519  12.351  65.013  1.00  0.00    -0.286 N  
HETATM    3  C   UNL     1     -11.241  13.589  65.257  1.00  0.00    -0.292 C  
ENDROOT
BRANCH   2   4
HETATM    4  C   UNL     1      -9.540  11.825  65.846  1.00  0.00    -0.230 C  
HETATM    5  O   UNL     1      -9.085  12.446  66.804  1.00  0.00    -0.205 OA 
BRANCH   4   6
HETATM    6  N   UNL     1      -9.091  10.583  65.500  1.00  0.00    -0.177 N  
HETATM    7  H   UNL     1      -9.442  10.153  64.644  1.00  0.00     0.000 HD 
BRANCH   6   8
HETATM    8  C   UNL     1      -8.127   9.850  66.314  1.00  0.00    -0.114 C  
HETATM    9  C   UNL     1      -8.812   8.713  67.082  1.00  0.00    -0.138 C  
HETATM   10  C   UNL     1      -9.299   7.602  66.151  1.00  0.00    -0.141 C  
HETATM   11  C   UNL     1      -8.192   7.059  65.227  1.00  0.00    -0.128 C  
HETATM   12  C   UNL     1      -6.995   9.313  65.432  1.00  0.00    -0.085 C  
HETATM   13  C   UNL     1      -7.465   8.201  64.495  1.00  0.00    -0.102 C  
BRANCH  11  14
HETATM   14  C   UNL     1      -7.175   6.176  65.977  1.00  0.00    -0.075 C  
BRANCH  14  15
HETATM   15  C   UNL     1      -7.577   4.700  66.082  1.00  0.00    -0.090 C  
BRANCH  15  16
HETATM   16  N   UNL     1      -7.252   4.067  67.372  1.00  0.00    -0.067 NA 
HETATM   17  C   UNL     1      -6.766   5.036  68.384  1.00  0.00    -0.054 C  
HETATM   18  C   UNL     1      -7.822   6.058  68.863  1.00  0.00    -0.096 C  
HETATM   19  N   UNL     1      -9.033   5.356  69.338  1.00  0.00    -0.104 NA 
HETATM   20  C   UNL     1      -8.458   3.399  67.938  1.00  0.00    -0.090 C  
HETATM   21  C   UNL     1      -9.572   4.387  68.368  1.00  0.00    -0.140 C  
BRANCH  19  22
HETATM   22  C   UNL     1      -9.537   5.576  70.612  1.00  0.00    -0.170 A  
HETATM   23  C   UNL     1     -10.442   6.605  70.993  1.00  0.00    -0.214 A  
HETATM   24  C   UNL     1     -10.854   6.742  72.339  1.00  0.00    -0.238 A  
HETATM   25 CL   UNL     1     -11.201   7.655  69.822  1.00  0.00    -0.113 Cl 
HETATM   26  C   UNL     1     -10.433   5.837  73.312  1.00  0.00    -0.255 A  
HETATM   27 CL   UNL     1     -11.903   8.015  72.877  1.00  0.00    -0.308 Cl 
HETATM   28  C   UNL     1      -9.583   4.803  72.962  1.00  0.00    -0.153 A  
HETATM   29  C   UNL     1      -9.130   4.697  71.647  1.00  0.00    -0.172 A  
ENDBRANCH  19  22
ENDBRANCH  15  16
ENDBRANCH  14  15
ENDBRANCH  11  14
ENDBRANCH   6   8
ENDBRANCH   4   6
ENDBRANCH   2   4
TORSDOF 7
ENDMDL
MODEL      172
REMARK 921   NORMALIZED FREE ENERGY PREDICTED BY IDOCK:   -3.01 KCAL/MOL
REMARK 922        TOTAL FREE ENERGY PREDICTED BY IDOCK:   -5.02 KCAL/MOL
REMARK 923 INTER-LIGAND FREE ENERGY PREDICTED BY IDOCK:   -4.95 KCAL/MOL
REMARK 924 INTRA-LIGAND FREE ENERGY PREDICTED BY IDOCK:   -0.06 KCAL/MOL
REMARK 927      BINDING AFFINITY PREDICTED BY RF-SCORE:    0.00 PKD
ROOT
HETATM    1  C   UNL     1     -12.088  16.285  73.271  1.00  0.00    -0.488 C  
HETATM    2  N   UNL     1     -12.488  15.171  72.433  1.00  0.00    -0.332 N  
HETATM    3  C   UNL     1     -12.305  13.823  72.945  1.00  0.00     0.493 C  
ENDROOT
BRANCH   2   4
HETATM    4  C   UNL     1     -13.108  15.486  71.230  1.00  0.00    -0.511 C  
HETATM    5  O   UNL     1     -14.320  15.669  71.140  1.00  0.00    -0.485 OA 
BRANCH   4   6
HETATM    6  N   UNL     1     -12.278  15.537  70.147  1.00  0.00    -0.377 N  
HETATM    7  H   UNL     1     -12.500  16.179  69.386  1.00  0.00     0.000 HD 
BRANCH   6   8
HETATM    8  C   UNL     1     -11.085  14.703  70.042  1.00  0.00    -0.164 C  
HETATM    9  C   UNL     1     -11.127  13.846  68.772  1.00  0.00    -0.291 C  
HETATM   10  C   UNL     1     -10.995  14.691  67.503  1.00  0.00    -0.301 C  
HETATM   11  C   UNL     1      -9.756  15.606  67.514  1.00  0.00    -0.222 C  
HETATM   12  C   UNL     1      -9.827  15.578  70.072  1.00  0.00    -0.121 C  
HETATM   13  C   UNL     1      -9.680  16.429  68.811  1.00  0.00    -0.250 C  
BRANCH  11  14
HETATM   14  C   UNL     1      -8.443  14.829  67.300  1.00  0.00    -0.234 C  
BRANCH  14  15
HETATM   15  C   UNL     1      -8.565  13.313  67.504  1.00  0.00    -0.200 C  
BRANCH  15  16
HETATM   16  N   UNL     1      -8.471  12.519  66.266  1.00  0.00     0.199 NA 
HETATM   17  C   UNL     1      -7.324  11.579  66.269  1.00  0.00     0.133 C  
HETATM   18  C   UNL     1      -7.429  10.430  67.300  1.00  0.00    -0.094 C  
HETATM   19  N   UNL     1      -8.708   9.709  67.130  1.00  0.00    -0.131 NA 
HETATM   20  C   UNL     1      -9.709  11.711  66.077  1.00  0.00    -0.232 C  
HETATM   21  C   UNL     1      -9.888  10.590  67.132  1.00  0.00    -0.176 C  
BRANCH  19  22
HETATM   22  C   UNL     1      -8.735   8.336  66.925  1.00  0.00    -0.134 A  
HETATM   23  C   UNL     1      -9.157   7.353  67.863  1.00  0.00    -0.129 A  
HETATM   24  C   UNL     1      -9.103   5.978  67.540  1.00  0.00    -0.109 A  
HETATM   25 CL   UNL     1      -9.888   7.781  69.389  1.00  0.00    -0.173 Cl 
HETATM   26  C   UNL     1      -8.695   5.555  66.275  1.00  0.00    -0.128 A  
HETATM   27 CL   UNL     1      -9.540   4.730  68.663  1.00  0.00    -0.208 Cl 
HETATM   28  C   UNL     1      -8.316   6.491  65.331  1.00  0.00    -0.140 A  
HETATM   29  C   UNL     1      -8.315   7.846  65.664  1.00  0.00    -0.146 A  
ENDBRANCH  19  22
ENDBRANCH  15  16
ENDBRANCH  14  15
ENDBRANCH  11  14
ENDBRANCH   6   8
ENDBRANCH   4   6
ENDBRANCH   2   4
TORSDOF 7
ENDMDL
MODEL      173
REMARK 921   NORMALIZED FREE ENERGY PREDICTED BY IDOCK:   -3.00 KCAL/MOL
REMARK 922        TOTAL FREE ENERGY PREDICTED BY IDOCK:   -5.00 KCAL/MOL
REMARK 923 INTER-LIGAND FREE ENERGY PREDICTED BY IDOCK:   -6.23 KCAL/MOL
REMARK 924 INTRA-LIGAND FREE ENERGY PREDICTED BY IDOCK:    1.23 KCAL/MOL
REMARK 927      BINDING AFFINITY PREDICTED BY RF-SCORE:    0.00 PKD
ROOT
HETATM    1  C   UNL     1     -12.862  15.763  71.115  1.00  0.00    -0.410 C  
HETATM    2  N   UNL     1     -11.911  15.374  70.090  1.00  0.00    -0.324 N  
HETATM    3  C   UNL     1     -10.744  16.214  69.879  1.00  0.00    -0.328 C  
ENDROOT
BRANCH   2   4
HETATM    4  C   UNL     1     -12.147  14.166  69.447  1.00  0.00    -0.328 C  
HETATM    5  O   UNL     1     -12.097  13.086  70.032  1.00  0.00    -0.326 OA 
BRANCH   4   6
HETATM    6  N   UNL     1     -12.396  14.261  68.109  1.00  0.00    -0.565 N  
HETATM    7  H   UNL     1     -13.357  14.401  67.795  1.00  0.00     0.000 HD 
BRANCH   6   8
HETATM    8  C   UNL     1     -11.335  14.169  67.111  1.00  0.00    -0.332 C  
HETATM    9  C   UNL     1     -10.006  13.767  67.762  1.00  0.00    -0.242 C  
HETATM   10  C   UNL     1     -10.031  12.328  68.280  1.00  0.00    -0.216 C  
HETATM   11  C   UNL     1     -10.456  11.307  67.208  1.00  0.00    -0.249 C  
HETATM   12  C   UNL     1     -11.730  13.178  66.012  1.00  0.00    -0.424 C  
HETATM   13  C   UNL     1     -11.760  11.734  66.514  1.00  0.00    -0.149 C  
BRANCH  11  14
HETATM   14  C   UNL     1      -9.353  11.057  66.160  1.00  0.00    -0.214 C  
BRANCH  14  15
HETATM   15  C   UNL     1      -9.265   9.607  65.668  1.00  0.00    -0.215 C  
BRANCH  15  16
HETATM   16  N   UNL     1      -8.149   8.833  66.240  1.00  0.00    -0.105 NA 
HETATM   17  C   UNL     1      -8.109   8.887  67.722  1.00  0.00    -0.106 C  
HETATM   18  C   UNL     1      -9.292   8.185  68.429  1.00  0.00    -0.135 C  
HETATM   19  N   UNL     1      -9.419   6.792  67.950  1.00  0.00    -0.119 NA 
HETATM   20  C   UNL     1      -8.262   7.400  65.849  1.00  0.00    -0.134 C  
HETATM   21  C   UNL     1      -9.477   6.674  66.483  1.00  0.00    -0.152 C  
BRANCH  19  22
HETATM   22  C   UNL     1      -9.411   5.725  68.838  1.00  0.00    -0.124 A  
HETATM   23  C   UNL     1      -9.561   4.351  68.503  1.00  0.00    -0.143 A  
HETATM   24  C   UNL     1      -9.570   3.359  69.512  1.00  0.00    -0.081 A  
HETATM   25 CL   UNL     1      -9.598   3.797  66.848  1.00  0.00    -0.231 Cl 
HETATM   26  C   UNL     1      -9.371   3.697  70.850  1.00  0.00    -0.218 A  
HETATM   27 CL   UNL     1      -9.815   1.675  69.173  1.00  0.00    -0.001 Cl 
HETATM   28  C   UNL     1      -9.184   5.023  71.199  1.00  0.00    -0.187 A  
HETATM   29  C   UNL     1      -9.231   6.010  70.214  1.00  0.00    -0.166 A  
ENDBRANCH  19  22
ENDBRANCH  15  16
ENDBRANCH  14  15
ENDBRANCH  11  14
ENDBRANCH   6   8
ENDBRANCH   4   6
ENDBRANCH   2   4
TORSDOF 7
ENDMDL
MODEL      174
REMARK 921   NORMALIZED FREE ENERGY PREDICTED BY IDOCK:   -2.98 KCAL/MOL
REMARK 922        TOTAL FREE ENERGY PREDICTED BY IDOCK:   -4.97 KCAL/MOL
REMARK 923 INTER-LIGAND FREE ENERGY PREDICTED BY IDOCK:   -4.68 KCAL/MOL
REMARK 924 INTRA-LIGAND FREE ENERGY PREDICTED BY IDOCK:   -0.29 KCAL/MOL
REMARK 927      BINDING AFFINITY PREDICTED BY RF-SCORE:    0.00 PKD
ROOT
HETATM    1  C   UNL     1     -11.174  14.596  70.536  1.00  0.00    -0.099 C  
HETATM    2  N   UNL     1     -10.515  14.755  69.254  1.00  0.00    -0.237 N  
HETATM    3  C   UNL     1      -9.266  15.496  69.208  1.00  0.00    -0.268 C  
ENDROOT
BRANCH   2   4
HETATM    4  C   UNL     1     -11.090  14.100  68.172  1.00  0.00    -0.257 C  
HETATM    5  O   UNL     1     -12.196  14.402  67.729  1.00  0.00    -0.314 OA 
BRANCH   4   6
HETATM    6  N   UNL     1     -10.355  13.068  67.663  1.00  0.00    -0.220 N  
HETATM    7  H   UNL     1      -9.999  13.140  66.710  1.00  0.00     0.000 HD 
BRANCH   6   8
HETATM    8  C   UNL     1     -10.062  11.866  68.437  1.00  0.00    -0.206 C  
HETATM    9  C   UNL     1     -10.939  10.694  67.980  1.00  0.00    -0.336 C  
HETATM   10  C   UNL     1     -10.576  10.219  66.571  1.00  0.00    -0.202 C  
HETATM   11  C   UNL     1      -9.080   9.888  66.412  1.00  0.00    -0.179 C  
HETATM   12  C   UNL     1      -8.575  11.515  68.322  1.00  0.00    -0.161 C  
HETATM   13  C   UNL     1      -8.196  11.039  66.920  1.00  0.00    -0.140 C  
BRANCH  11  14
HETATM   14  C   UNL     1      -8.689   8.570  67.108  1.00  0.00    -0.134 C  
BRANCH  14  15
HETATM   15  C   UNL     1      -9.726   7.448  66.967  1.00  0.00    -0.191 C  
BRANCH  15  16
HETATM   16  N   UNL     1      -9.294   6.144  67.500  1.00  0.00    -0.114 NA 
HETATM   17  C   UNL     1      -8.140   6.253  68.425  1.00  0.00    -0.112 C  
HETATM   18  C   UNL     1      -8.441   6.983  69.755  1.00  0.00    -0.137 C  
HETATM   19  N   UNL     1      -9.604   6.364  70.425  1.00  0.00    -0.165 NA 
HETATM   20  C   UNL     1     -10.408   5.500  68.251  1.00  0.00    -0.173 C  
HETATM   21  C   UNL     1     -10.788   6.240  69.559  1.00  0.00    -0.340 C  
BRANCH  19  22
HETATM   22  C   UNL     1      -9.516   5.898  71.730  1.00  0.00    -0.151 A  
HETATM   23  C   UNL     1      -9.902   4.610  72.192  1.00  0.00    -0.175 A  
HETATM   24  C   UNL     1      -9.792   4.270  73.560  1.00  0.00    -0.121 A  
HETATM   25 CL   UNL     1     -10.392   3.341  71.098  1.00  0.00     0.356 Cl 
HETATM   26  C   UNL     1      -9.246   5.166  74.478  1.00  0.00    -0.118 A  
HETATM   27 CL   UNL     1     -10.308   2.740  74.194  1.00  0.00    -0.195 Cl 
HETATM   28  C   UNL     1      -8.826   6.413  74.050  1.00  0.00    -0.147 A  
HETATM   29  C   UNL     1      -8.984   6.772  72.711  1.00  0.00    -0.139 A  
ENDBRANCH  19  22
ENDBRANCH  15  16
ENDBRANCH  14  15
ENDBRANCH  11  14
ENDBRANCH   6   8
ENDBRANCH   4   6
ENDBRANCH   2   4
TORSDOF 7
ENDMDL
MODEL      175
REMARK 921   NORMALIZED FREE ENERGY PREDICTED BY IDOCK:   -2.96 KCAL/MOL
REMARK 922        TOTAL FREE ENERGY PREDICTED BY IDOCK:   -4.95 KCAL/MOL
REMARK 923 INTER-LIGAND FREE ENERGY PREDICTED BY IDOCK:   -4.20 KCAL/MOL
REMARK 924 INTRA-LIGAND FREE ENERGY PREDICTED BY IDOCK:   -0.75 KCAL/MOL
REMARK 927      BINDING AFFINITY PREDICTED BY RF-SCORE:    0.00 PKD
ROOT
HETATM    1  C   UNL     1     -12.121  14.061  67.155  1.00  0.00    -0.401 C  
HETATM    2  N   UNL     1     -10.695  13.939  67.391  1.00  0.00    -0.270 N  
HETATM    3  C   UNL     1      -9.913  15.156  67.530  1.00  0.00    -0.225 C  
ENDROOT
BRANCH   2   4
HETATM    4  C   UNL     1     -10.198  12.652  67.558  1.00  0.00    -0.215 C  
HETATM    5  O   UNL     1      -9.422  12.135  66.758  1.00  0.00    -0.200 OA 
BRANCH   4   6
HETATM    6  N   UNL     1     -10.667  11.989  68.655  1.00  0.00    -0.230 N  
HETATM    7  H   UNL     1     -10.746  12.492  69.539  1.00  0.00     0.000 HD 
BRANCH   6   8
HETATM    8  C   UNL     1     -11.059  10.584  68.605  1.00  0.00    -0.267 C  
HETATM    9  C   UNL     1     -10.124   9.725  69.465  1.00  0.00    -0.233 C  
HETATM   10  C   UNL     1     -10.290  10.012  70.958  1.00  0.00     0.203 C  
HETATM   11  C   UNL     1     -11.749   9.894  71.438  1.00  0.00    -0.449 C  
HETATM   12  C   UNL     1     -12.516  10.428  69.054  1.00  0.00     0.722 C  
HETATM   13  C   UNL     1     -12.699  10.711  70.545  1.00  0.00    -0.395 C  
BRANCH  11  14
HETATM   14  C   UNL     1     -12.227   8.431  71.524  1.00  0.00    -0.340 C  
BRANCH  14  15
HETATM   15  C   UNL     1     -11.426   7.560  72.499  1.00  0.00    -0.327 C  
BRANCH  15  16
HETATM   16  N   UNL     1     -11.289   6.151  72.091  1.00  0.00    -0.285 NA 
HETATM   17  C   UNL     1     -11.052   5.992  70.636  1.00  0.00    -0.301 C  
HETATM   18  C   UNL     1      -9.691   6.533  70.137  1.00  0.00    -0.167 C  
HETATM   19  N   UNL     1      -8.588   5.942  70.924  1.00  0.00    -0.129 NA 
HETATM   20  C   UNL     1     -10.142   5.518  72.802  1.00  0.00    -0.180 C  
HETATM   21  C   UNL     1      -8.761   6.080  72.380  1.00  0.00    -0.126 C  
BRANCH  19  22
HETATM   22  C   UNL     1      -7.544   5.271  70.303  1.00  0.00    -0.072 A  
HETATM   23  C   UNL     1      -7.568   3.931  69.828  1.00  0.00    -0.052 A  
HETATM   24  C   UNL     1      -6.419   3.351  69.241  1.00  0.00    -0.033 A  
HETATM   25 CL   UNL     1      -9.033   2.981  69.807  1.00  0.00    -0.156 Cl 
HETATM   26  C   UNL     1      -5.255   4.097  69.059  1.00  0.00    -0.011 A  
HETATM   27 CL   UNL     1      -6.367   1.703  68.703  1.00  0.00    -0.025 Cl 
HETATM   28  C   UNL     1      -5.216   5.415  69.477  1.00  0.00    -0.004 A  
HETATM   29  C   UNL     1      -6.329   5.974  70.107  1.00  0.00    -0.032 A  
ENDBRANCH  19  22
ENDBRANCH  15  16
ENDBRANCH  14  15
ENDBRANCH  11  14
ENDBRANCH   6   8
ENDBRANCH   4   6
ENDBRANCH   2   4
TORSDOF 7
ENDMDL
MODEL      176
REMARK 921   NORMALIZED FREE ENERGY PREDICTED BY IDOCK:   -2.92 KCAL/MOL
REMARK 922        TOTAL FREE ENERGY PREDICTED BY IDOCK:   -4.89 KCAL/MOL
REMARK 923 INTER-LIGAND FREE ENERGY PREDICTED BY IDOCK:   -4.51 KCAL/MOL
REMARK 924 INTRA-LIGAND FREE ENERGY PREDICTED BY IDOCK:   -0.39 KCAL/MOL
REMARK 927      BINDING AFFINITY PREDICTED BY RF-SCORE:    0.00 PKD
ROOT
HETATM    1  C   UNL     1      -6.799   4.905  74.222  1.00  0.00    -0.072 C  
HETATM    2  N   UNL     1      -7.057   4.045  73.083  1.00  0.00    -0.061 N  
HETATM    3  C   UNL     1      -6.083   3.014  72.764  1.00  0.00    -0.009 C  
ENDROOT
BRANCH   2   4
HETATM    4  C   UNL     1      -8.274   4.216  72.435  1.00  0.00    -0.099 C  
HETATM    5  O   UNL     1      -9.347   4.212  73.034  1.00  0.00    -0.110 OA 
BRANCH   4   6
HETATM    6  N   UNL     1      -8.194   4.348  71.079  1.00  0.00    -0.079 N  
HETATM    7  H   UNL     1      -8.654   3.655  70.488  1.00  0.00     0.000 HD 
BRANCH   6   8
HETATM    8  C   UNL     1      -7.472   5.448  70.446  1.00  0.00    -0.075 C  
HETATM    9  C   UNL     1      -7.318   5.205  68.940  1.00  0.00    -0.065 C  
HETATM   10  C   UNL     1      -8.657   5.284  68.204  1.00  0.00    -0.099 C  
HETATM   11  C   UNL     1      -9.420   6.593  68.479  1.00  0.00    -0.123 C  
HETATM   12  C   UNL     1      -8.190   6.774  70.717  1.00  0.00    -0.123 C  
HETATM   13  C   UNL     1      -9.531   6.869  69.988  1.00  0.00    -0.158 C  
BRANCH  11  14
HETATM   14  C   UNL     1      -8.795   7.805  67.761  1.00  0.00    -0.126 C  
BRANCH  14  15
HETATM   15  C   UNL     1      -9.815   8.825  67.238  1.00  0.00    -0.201 C  
BRANCH  15  16
HETATM   16  N   UNL     1      -9.241   9.886  66.392  1.00  0.00    -0.153 NA 
HETATM   17  C   UNL     1     -10.262  10.832  65.880  1.00  0.00    -0.259 C  
HETATM   18  C   UNL     1     -10.936  11.708  66.961  1.00  0.00    -0.288 C  
HETATM   19  N   UNL     1      -9.910  12.413  67.759  1.00  0.00    -0.198 NA 
HETATM   20  C   UNL     1      -8.246  10.681  67.166  1.00  0.00    -0.121 C  
HETATM   21  C   UNL     1      -8.873  11.523  68.307  1.00  0.00    -0.166 C  
BRANCH  19  22
HETATM   22  C   UNL     1      -9.931  13.794  67.892  1.00  0.00    -0.240 A  
HETATM   23  C   UNL     1     -10.219  14.735  66.865  1.00  0.00    -0.257 A  
HETATM   24  C   UNL     1     -10.172  16.125  67.124  1.00  0.00    -0.281 A  
HETATM   25 CL   UNL     1     -10.778  14.243  65.286  1.00  0.00    -0.349 Cl 
HETATM   26  C   UNL     1      -9.904  16.605  68.406  1.00  0.00    -0.252 A  
HETATM   27 CL   UNL     1     -10.448  17.320  65.898  1.00  0.00    -0.330 Cl 
HETATM   28  C   UNL     1      -9.658  15.711  69.433  1.00  0.00    -0.287 A  
HETATM   29  C   UNL     1      -9.648  14.341  69.169  1.00  0.00     0.074 A  
ENDBRANCH  19  22
ENDBRANCH  15  16
ENDBRANCH  14  15
ENDBRANCH  11  14
ENDBRANCH   6   8
ENDBRANCH   4   6
ENDBRANCH   2   4
TORSDOF 7
ENDMDL
MODEL      177
REMARK 921   NORMALIZED FREE ENERGY PREDICTED BY IDOCK:   -2.79 KCAL/MOL
REMARK 922        TOTAL FREE ENERGY PREDICTED BY IDOCK:   -4.70 KCAL/MOL
REMARK 923 INTER-LIGAND FREE ENERGY PREDICTED BY IDOCK:   -4.79 KCAL/MOL
REMARK 924 INTRA-LIGAND FREE ENERGY PREDICTED BY IDOCK:    0.09 KCAL/MOL
REMARK 927      BINDING AFFINITY PREDICTED BY RF-SCORE:    0.00 PKD
ROOT
HETATM    1  C   UNL     1     -10.821  14.742  64.466  1.00  0.00    -0.159 C  
HETATM    2  N   UNL     1     -11.531  13.663  65.126  1.00  0.00    -0.309 N  
HETATM    3  C   UNL     1     -12.704  13.993  65.918  1.00  0.00    -0.397 C  
ENDROOT
BRANCH   2   4
HETATM    4  C   UNL     1     -11.082  12.373  64.872  1.00  0.00    -0.303 C  
HETATM    5  O   UNL     1     -10.810  11.980  63.739  1.00  0.00    -0.340 OA 
BRANCH   4   6
HETATM    6  N   UNL     1     -11.006  11.560  65.966  1.00  0.00    -0.284 N  
HETATM    7  H   UNL     1     -11.537  11.807  66.801  1.00  0.00     0.000 HD 
BRANCH   6   8
HETATM    8  C   UNL     1     -10.189  10.351  65.980  1.00  0.00    -0.228 C  
HETATM    9  C   UNL     1      -8.729  10.681  66.313  1.00  0.00    -0.163 C  
HETATM   10  C   UNL     1      -8.561  11.153  67.758  1.00  0.00    -0.131 C  
HETATM   11  C   UNL     1      -9.156  10.174  68.786  1.00  0.00    -0.153 C  
HETATM   12  C   UNL     1     -10.764   9.339  66.978  1.00  0.00    -0.199 C  
HETATM   13  C   UNL     1     -10.604   9.797  68.427  1.00  0.00    -0.264 C  
BRANCH  11  14
HETATM   14  C   UNL     1      -8.302   8.902  68.956  1.00  0.00    -0.124 C  
BRANCH  14  15
HETATM   15  C   UNL     1      -7.130   9.053  69.934  1.00  0.00    -0.053 C  
BRANCH  15  16
HETATM   16  N   UNL     1      -7.495   8.914  71.354  1.00  0.00    -0.215 NA 
HETATM   17  C   UNL     1      -8.829   8.296  71.549  1.00  0.00    -0.168 C  
HETATM   18  C   UNL     1      -8.927   6.814  71.117  1.00  0.00    -0.147 C  
HETATM   19  N   UNL     1      -7.869   6.019  71.777  1.00  0.00    -0.101 NA 
HETATM   20  C   UNL     1      -6.500   8.060  72.061  1.00  0.00    -0.055 C  
HETATM   21  C   UNL     1      -6.517   6.577  71.608  1.00  0.00    -0.050 C  
BRANCH  19  22
HETATM   22  C   UNL     1      -8.182   4.896  72.531  1.00  0.00    -0.115 A  
HETATM   23  C   UNL     1      -9.167   3.919  72.217  1.00  0.00    -0.117 A  
HETATM   24  C   UNL     1      -9.413   2.835  73.091  1.00  0.00    -0.090 A  
HETATM   25 CL   UNL     1     -10.020   3.917  70.694  1.00  0.00    -0.186 Cl 
HETATM   26  C   UNL     1      -8.655   2.663  74.249  1.00  0.00    -0.068 A  
HETATM   27 CL   UNL     1     -10.645   1.650  72.797  1.00  0.00    -0.223 Cl 
HETATM   28  C   UNL     1      -7.664   3.577  74.559  1.00  0.00    -0.058 A  
HETATM   29  C   UNL     1      -7.456   4.679  73.728  1.00  0.00    -0.086 A  
ENDBRANCH  19  22
ENDBRANCH  15  16
ENDBRANCH  14  15
ENDBRANCH  11  14
ENDBRANCH   6   8
ENDBRANCH   4   6
ENDBRANCH   2   4
TORSDOF 7
ENDMDL
MODEL      178
REMARK 921   NORMALIZED FREE ENERGY PREDICTED BY IDOCK:   -2.76 KCAL/MOL
REMARK 922        TOTAL FREE ENERGY PREDICTED BY IDOCK:   -4.65 KCAL/MOL
REMARK 923 INTER-LIGAND FREE ENERGY PREDICTED BY IDOCK:   -4.41 KCAL/MOL
REMARK 924 INTRA-LIGAND FREE ENERGY PREDICTED BY IDOCK:   -0.25 KCAL/MOL
REMARK 927      BINDING AFFINITY PREDICTED BY RF-SCORE:    0.00 PKD
ROOT
HETATM    1  C   UNL     1      -9.001   2.725  66.546  1.00  0.00    -0.148 C  
HETATM    2  N   UNL     1      -9.519   3.425  65.385  1.00  0.00    -0.156 N  
HETATM    3  C   UNL     1     -10.608   4.369  65.579  1.00  0.00    -0.159 C  
ENDROOT
BRANCH   2   4
HETATM    4  C   UNL     1      -8.865   3.203  64.180  1.00  0.00    -0.097 C  
HETATM    5  O   UNL     1      -9.455   2.835  63.167  1.00  0.00    -0.094 OA 
BRANCH   4   6
HETATM    6  N   UNL     1      -7.513   3.383  64.214  1.00  0.00    -0.073 N  
HETATM    7  H   UNL     1      -6.943   2.737  64.761  1.00  0.00     0.000 HD 
BRANCH   6   8
HETATM    8  C   UNL     1      -6.854   4.469  63.495  1.00  0.00    -0.043 C  
HETATM    9  C   UNL     1      -7.670   5.764  63.593  1.00  0.00    -0.094 C  
HETATM   10  C   UNL     1      -7.680   6.331  65.014  1.00  0.00    -0.101 C  
HETATM   11  C   UNL     1      -6.267   6.519  65.599  1.00  0.00    -0.034 C  
HETATM   12  C   UNL     1      -5.435   4.673  64.033  1.00  0.00    -0.013 C  
HETATM   13  C   UNL     1      -5.427   5.239  65.453  1.00  0.00    -0.013 C  
BRANCH  11  14
HETATM   14  C   UNL     1      -5.524   7.718  64.976  1.00  0.00    -0.033 C  
BRANCH  14  15
HETATM   15  C   UNL     1      -5.397   8.933  65.903  1.00  0.00    -0.037 C  
BRANCH  15  16
HETATM   16  N   UNL     1      -5.864  10.202  65.316  1.00  0.00    -0.094 NA 
HETATM   17  C   UNL     1      -7.172  10.073  64.629  1.00  0.00    -0.140 C  
HETATM   18  C   UNL     1      -8.368   9.771  65.563  1.00  0.00    -0.136 C  
HETATM   19  N   UNL     1      -8.433  10.772  66.648  1.00  0.00    -0.137 NA 
HETATM   20  C   UNL     1      -6.018  11.236  66.378  1.00  0.00    -0.128 C  
HETATM   21  C   UNL     1      -7.164  10.936  67.378  1.00  0.00    -0.094 C  
BRANCH  19  22
HETATM   22  C   UNL     1      -9.587  11.509  66.875  1.00  0.00    -0.187 A  
HETATM   23  C   UNL     1     -10.539  11.905  65.895  1.00  0.00    -0.266 A  
HETATM   24  C   UNL     1     -11.661  12.689  66.253  1.00  0.00    -0.386 A  
HETATM   25 CL   UNL     1     -10.464  11.338  64.246  1.00  0.00    -0.391 Cl 
HETATM   26  C   UNL     1     -11.893  13.040  67.583  1.00  0.00    -0.401 A  
HETATM   27 CL   UNL     1     -12.820  13.257  65.095  1.00  0.00    -0.462 Cl 
HETATM   28  C   UNL     1     -11.003  12.636  68.562  1.00  0.00    -0.292 A  
HETATM   29  C   UNL     1      -9.866  11.911  68.205  1.00  0.00    -0.199 A  
ENDBRANCH  19  22
ENDBRANCH  15  16
ENDBRANCH  14  15
ENDBRANCH  11  14
ENDBRANCH   6   8
ENDBRANCH   4   6
ENDBRANCH   2   4
TORSDOF 7
ENDMDL
MODEL      179
REMARK 921   NORMALIZED FREE ENERGY PREDICTED BY IDOCK:   -2.74 KCAL/MOL
REMARK 922        TOTAL FREE ENERGY PREDICTED BY IDOCK:   -4.63 KCAL/MOL
REMARK 923 INTER-LIGAND FREE ENERGY PREDICTED BY IDOCK:   -3.95 KCAL/MOL
REMARK 924 INTRA-LIGAND FREE ENERGY PREDICTED BY IDOCK:   -0.68 KCAL/MOL
REMARK 927      BINDING AFFINITY PREDICTED BY RF-SCORE:    0.00 PKD
ROOT
HETATM    1  C   UNL     1     -12.454   9.458  70.929  1.00  0.00    -0.166 C  
HETATM    2  N   UNL     1     -12.392   8.010  70.975  1.00  0.00    -0.214 N  
HETATM    3  C   UNL     1     -13.609   7.277  71.284  1.00  0.00    -0.238 C  
ENDROOT
BRANCH   2   4
HETATM    4  C   UNL     1     -11.181   7.426  70.626  1.00  0.00    -0.270 C  
HETATM    5  O   UNL     1     -10.721   6.453  71.221  1.00  0.00    -0.226 OA 
BRANCH   4   6
HETATM    6  N   UNL     1     -10.518   8.037  69.601  1.00  0.00    -0.222 N  
HETATM    7  H   UNL     1     -11.056   8.548  68.901  1.00  0.00     0.000 HD 
BRANCH   6   8
HETATM    8  C   UNL     1      -9.065   7.984  69.474  1.00  0.00    -0.152 C  
HETATM    9  C   UNL     1      -8.621   8.443  68.079  1.00  0.00    -0.135 C  
HETATM   10  C   UNL     1      -8.870   9.936  67.859  1.00  0.00    -0.129 C  
HETATM   11  C   UNL     1      -8.250  10.820  68.957  1.00  0.00    -0.139 C  
HETATM   12  C   UNL     1      -8.409   8.835  70.566  1.00  0.00    -0.161 C  
HETATM   13  C   UNL     1      -8.648  10.331  70.360  1.00  0.00     0.652 C  
BRANCH  11  14
HETATM   14  C   UNL     1      -6.716  10.917  68.843  1.00  0.00    -0.067 C  
BRANCH  14  15
HETATM   15  C   UNL     1      -6.166  12.347  68.905  1.00  0.00    -0.079 C  
BRANCH  15  16
HETATM   16  N   UNL     1      -5.936  12.973  67.591  1.00  0.00    -0.175 NA 
HETATM   17  C   UNL     1      -7.196  13.330  66.894  1.00  0.00     0.597 C  
HETATM   18  C   UNL     1      -8.015  14.455  67.570  1.00  0.00    -0.192 C  
HETATM   19  N   UNL     1      -7.166  15.647  67.781  1.00  0.00    -0.140 NA 
HETATM   20  C   UNL     1      -5.143  14.224  67.747  1.00  0.00     0.028 C  
HETATM   21  C   UNL     1      -5.904  15.357  68.482  1.00  0.00    -0.096 C  
BRANCH  19  22
HETATM   22  C   UNL     1      -7.538  16.889  67.286  1.00  0.00    -0.171 A  
HETATM   23  C   UNL     1      -8.691  17.633  67.661  1.00  0.00    -0.232 A  
HETATM   24  C   UNL     1      -8.977  18.878  67.053  1.00  0.00    -0.294 A  
HETATM   25 CL   UNL     1      -9.731  17.136  68.973  1.00  0.00    -0.246 Cl 
HETATM   26  C   UNL     1      -8.104  19.434  66.118  1.00  0.00    -0.323 A  
HETATM   27 CL   UNL     1     -10.400  19.800  67.420  1.00  0.00    -0.560 Cl 
HETATM   28  C   UNL     1      -6.956  18.750  65.763  1.00  0.00    -0.291 A  
HETATM   29  C   UNL     1      -6.699  17.496  66.319  1.00  0.00    -0.309 A  
ENDBRANCH  19  22
ENDBRANCH  15  16
ENDBRANCH  14  15
ENDBRANCH  11  14
ENDBRANCH   6   8
ENDBRANCH   4   6
ENDBRANCH   2   4
TORSDOF 7
ENDMDL
MODEL      180
REMARK 921   NORMALIZED FREE ENERGY PREDICTED BY IDOCK:   -2.72 KCAL/MOL
REMARK 922        TOTAL FREE ENERGY PREDICTED BY IDOCK:   -4.61 KCAL/MOL
REMARK 923 INTER-LIGAND FREE ENERGY PREDICTED BY IDOCK:   -4.85 KCAL/MOL
REMARK 924 INTRA-LIGAND FREE ENERGY PREDICTED BY IDOCK:    0.24 KCAL/MOL
REMARK 927      BINDING AFFINITY PREDICTED BY RF-SCORE:    0.00 PKD
ROOT
HETATM    1  C   UNL     1     -12.473  11.749  63.712  1.00  0.00    -0.327 C  
HETATM    2  N   UNL     1     -11.462  12.700  64.134  1.00  0.00    -0.357 N  
HETATM    3  C   UNL     1     -10.153  12.639  63.505  1.00  0.00     0.094 C  
ENDROOT
BRANCH   2   4
HETATM    4  C   UNL     1     -11.858  13.665  65.051  1.00  0.00    -0.360 C  
HETATM    5  O   UNL     1     -12.857  14.362  64.886  1.00  0.00    -0.645 OA 
BRANCH   4   6
HETATM    6  N   UNL     1     -11.034  13.812  66.129  1.00  0.00    -0.291 N  
HETATM    7  H   UNL     1     -10.126  14.259  65.999  1.00  0.00     0.000 HD 
BRANCH   6   8
HETATM    8  C   UNL     1     -11.408  13.351  67.463  1.00  0.00    -0.298 C  
HETATM    9  C   UNL     1     -11.752  11.857  67.448  1.00  0.00    -0.326 C  
HETATM   10  C   UNL     1     -10.523  10.986  67.182  1.00  0.00    -0.274 C  
HETATM   11  C   UNL     1      -9.357  11.277  68.145  1.00  0.00    -0.181 C  
HETATM   12  C   UNL     1     -10.279  13.644  68.457  1.00  0.00    -0.234 C  
HETATM   13  C   UNL     1      -9.043  12.782  68.204  1.00  0.00    -0.203 C  
BRANCH  11  14
HETATM   14  C   UNL     1      -9.610  10.730  69.563  1.00  0.00     0.023 C  
BRANCH  14  15
HETATM   15  C   UNL     1      -9.604   9.199  69.661  1.00  0.00    -0.176 C  
BRANCH  15  16
HETATM   16  N   UNL     1      -9.506   8.503  68.366  1.00  0.00    -0.135 NA 
HETATM   17  C   UNL     1      -8.185   7.862  68.154  1.00  0.00    -0.123 C  
HETATM   18  C   UNL     1      -7.878   6.679  69.101  1.00  0.00    -0.111 C  
HETATM   19  N   UNL     1      -8.969   5.683  69.042  1.00  0.00    -0.112 NA 
HETATM   20  C   UNL     1     -10.540   7.434  68.276  1.00  0.00    -0.157 C  
HETATM   21  C   UNL     1     -10.307   6.258  69.259  1.00  0.00    -0.218 C  
BRANCH  19  22
HETATM   22  C   UNL     1      -8.710   4.353  68.741  1.00  0.00    -0.094 A  
HETATM   23  C   UNL     1      -7.457   3.808  68.347  1.00  0.00    -0.054 A  
HETATM   24  C   UNL     1      -7.333   2.434  68.033  1.00  0.00    -0.048 A  
HETATM   25 CL   UNL     1      -5.988   4.751  68.364  1.00  0.00    -0.025 Cl 
HETATM   26  C   UNL     1      -8.420   1.570  68.162  1.00  0.00    -0.082 A  
HETATM   27 CL   UNL     1      -5.848   1.725  67.484  1.00  0.00    -0.019 Cl 
HETATM   28  C   UNL     1      -9.642   2.066  68.580  1.00  0.00    -0.127 A  
HETATM   29  C   UNL     1      -9.782   3.430  68.837  1.00  0.00     0.010 A  
ENDBRANCH  19  22
ENDBRANCH  15  16
ENDBRANCH  14  15
ENDBRANCH  11  14
ENDBRANCH   6   8
ENDBRANCH   4   6
ENDBRANCH   2   4
TORSDOF 7
ENDMDL
MODEL      181
REMARK 921   NORMALIZED FREE ENERGY PREDICTED BY IDOCK:   -2.47 KCAL/MOL
REMARK 922        TOTAL FREE ENERGY PREDICTED BY IDOCK:   -4.25 KCAL/MOL
REMARK 923 INTER-LIGAND FREE ENERGY PREDICTED BY IDOCK:   -5.16 KCAL/MOL
REMARK 924 INTRA-LIGAND FREE ENERGY PREDICTED BY IDOCK:    0.91 KCAL/MOL
REMARK 927      BINDING AFFINITY PREDICTED BY RF-SCORE:    0.00 PKD
ROOT
HETATM    1  C   UNL     1      -6.376  19.973  71.210  1.00  0.00    -0.044 C  
HETATM    2  N   UNL     1      -6.395  20.024  69.760  1.00  0.00    -0.355 N  
HETATM    3  C   UNL     1      -5.149  19.799  69.047  1.00  0.00    -0.177 C  
ENDROOT
BRANCH   2   4
HETATM    4  C   UNL     1      -7.635  20.194  69.159  1.00  0.00     0.114 C  
HETATM    5  O   UNL     1      -8.688  20.142  69.791  1.00  0.00     0.506 OA 
BRANCH   4   6
HETATM    6  N   UNL     1      -7.602  20.383  67.807  1.00  0.00    -0.281 N  
HETATM    7  H   UNL     1      -7.414  21.317  67.444  1.00  0.00     0.000 HD 
BRANCH   6   8
HETATM    8  C   UNL     1      -7.827  19.292  66.864  1.00  0.00    -0.257 C  
HETATM    9  C   UNL     1      -8.282  18.022  67.595  1.00  0.00    -0.241 C  
HETATM   10  C   UNL     1      -9.682  18.173  68.192  1.00  0.00    -0.331 C  
HETATM   11  C   UNL     1     -10.733  18.627  67.160  1.00  0.00    -0.433 C  
HETATM   12  C   UNL     1      -8.852  19.713  65.806  1.00  0.00     0.046 C  
HETATM   13  C   UNL     1     -10.257  19.868  66.387  1.00  0.00    -0.617 C  
BRANCH  11  14
HETATM   14  C   UNL     1     -11.121  17.504  66.178  1.00  0.00     0.492 C  
BRANCH  14  15
HETATM   15  C   UNL     1     -10.291  16.222  66.323  1.00  0.00    -0.326 C  
BRANCH  15  16
HETATM   16  N   UNL     1     -10.951  15.149  67.088  1.00  0.00    -0.322 NA 
HETATM   17  C   UNL     1     -11.550  14.107  66.220  1.00  0.00    -0.370 C  
HETATM   18  C   UNL     1     -10.530  13.259  65.424  1.00  0.00    -0.297 C  
HETATM   19  N   UNL     1      -9.526  12.677  66.339  1.00  0.00    -0.244 NA 
HETATM   20  C   UNL     1      -9.968  14.474  67.981  1.00  0.00    -0.222 C  
HETATM   21  C   UNL     1      -8.884  13.668  67.220  1.00  0.00    -0.224 C  
BRANCH  19  22
HETATM   22  C   UNL     1      -9.294  11.309  66.373  1.00  0.00    -0.192 A  
HETATM   23  C   UNL     1     -10.027  10.350  67.126  1.00  0.00    -0.195 A  
HETATM   24  C   UNL     1      -9.665   8.983  67.100  1.00  0.00    -0.181 A  
HETATM   25 CL   UNL     1     -11.478  10.769  68.001  1.00  0.00    -0.373 Cl 
HETATM   26  C   UNL     1      -8.624   8.534  66.289  1.00  0.00    -0.143 A  
HETATM   27 CL   UNL     1     -10.477   7.777  68.047  1.00  0.00    -0.256 Cl 
HETATM   28  C   UNL     1      -7.919   9.439  65.517  1.00  0.00    -0.111 A  
HETATM   29  C   UNL     1      -8.236  10.796  65.583  1.00  0.00    -0.127 A  
ENDBRANCH  19  22
ENDBRANCH  15  16
ENDBRANCH  14  15
ENDBRANCH  11  14
ENDBRANCH   6   8
ENDBRANCH   4   6
ENDBRANCH   2   4
TORSDOF 7
ENDMDL
MODEL      182
REMARK 921   NORMALIZED FREE ENERGY PREDICTED BY IDOCK:   -2.43 KCAL/MOL
REMARK 922        TOTAL FREE ENERGY PREDICTED BY IDOCK:   -4.20 KCAL/MOL
REMARK 923 INTER-LIGAND FREE ENERGY PREDICTED BY IDOCK:   -3.85 KCAL/MOL
REMARK 924 INTRA-LIGAND FREE ENERGY PREDICTED BY IDOCK:   -0.34 KCAL/MOL
REMARK 927      BINDING AFFINITY PREDICTED BY RF-SCORE:    0.00 PKD
ROOT
HETATM    1  C   UNL     1     -12.699  12.053  62.774  1.00  0.00     0.718 C  
HETATM    2  N   UNL     1     -12.208  12.817  63.905  1.00  0.00    -0.446 N  
HETATM    3  C   UNL     1     -12.063  14.255  63.754  1.00  0.00    -0.074 C  
ENDROOT
BRANCH   2   4
HETATM    4  C   UNL     1     -11.999  12.117  65.086  1.00  0.00    -0.262 C  
HETATM    5  O   UNL     1     -12.547  12.427  66.142  1.00  0.00    -0.358 OA 
BRANCH   4   6
HETATM    6  N   UNL     1     -11.109  11.086  64.999  1.00  0.00    -0.043 N  
HETATM    7  H   UNL     1     -11.464  10.137  64.883  1.00  0.00     0.000 HD 
BRANCH   6   8
HETATM    8  C   UNL     1      -9.667  11.296  65.067  1.00  0.00    -0.251 C  
HETATM    9  C   UNL     1      -9.299  12.189  66.259  1.00  0.00    -0.221 C  
HETATM   10  C   UNL     1      -9.547  11.492  67.598  1.00  0.00    -0.176 C  
HETATM   11  C   UNL     1      -8.857  10.118  67.700  1.00  0.00    -0.125 C  
HETATM   12  C   UNL     1      -8.942   9.949  65.147  1.00  0.00    -0.235 C  
HETATM   13  C   UNL     1      -9.179   9.239  66.480  1.00  0.00    -0.206 C  
BRANCH  11  14
HETATM   14  C   UNL     1      -7.331  10.234  67.884  1.00  0.00    -0.087 C  
BRANCH  14  15
HETATM   15  C   UNL     1      -6.902  11.141  69.045  1.00  0.00    -0.092 C  
BRANCH  15  16
HETATM   16  N   UNL     1      -5.659  11.896  68.804  1.00  0.00    -0.049 NA 
HETATM   17  C   UNL     1      -5.714  12.720  67.573  1.00  0.00    -0.116 C  
HETATM   18  C   UNL     1      -6.717  13.896  67.624  1.00  0.00    -0.175 C  
HETATM   19  N   UNL     1      -6.462  14.734  68.815  1.00  0.00    -0.084 NA 
HETATM   20  C   UNL     1      -5.385  12.815  69.945  1.00  0.00    -0.094 C  
HETATM   21  C   UNL     1      -6.410  13.971  70.073  1.00  0.00    -0.118 C  
BRANCH  19  22
HETATM   22  C   UNL     1      -6.234  16.098  68.697  1.00  0.00    -0.117 A  
HETATM   23  C   UNL     1      -5.840  16.979  69.741  1.00  0.00    -0.219 A  
HETATM   24  C   UNL     1      -5.673  18.361  69.496  1.00  0.00    -0.244 A  
HETATM   25 CL   UNL     1      -5.407  16.399  71.330  1.00  0.00     0.033 Cl 
HETATM   26  C   UNL     1      -5.829  18.884  68.212  1.00  0.00    -0.215 A  
HETATM   27 CL   UNL     1      -5.259  19.495  70.742  1.00  0.00    -0.222 Cl 
HETATM   28  C   UNL     1      -6.175  18.043  67.169  1.00  0.00    -0.177 A  
HETATM   29  C   UNL     1      -6.395  16.688  67.418  1.00  0.00    -0.200 A  
ENDBRANCH  19  22
ENDBRANCH  15  16
ENDBRANCH  14  15
ENDBRANCH  11  14
ENDBRANCH   6   8
ENDBRANCH   4   6
ENDBRANCH   2   4
TORSDOF 7
ENDMDL
MODEL      183
REMARK 921   NORMALIZED FREE ENERGY PREDICTED BY IDOCK:   -2.40 KCAL/MOL
REMARK 922        TOTAL FREE ENERGY PREDICTED BY IDOCK:   -4.15 KCAL/MOL
REMARK 923 INTER-LIGAND FREE ENERGY PREDICTED BY IDOCK:   -4.56 KCAL/MOL
REMARK 924 INTRA-LIGAND FREE ENERGY PREDICTED BY IDOCK:    0.41 KCAL/MOL
REMARK 927      BINDING AFFINITY PREDICTED BY RF-SCORE:    0.00 PKD
ROOT
HETATM    1  C   UNL     1      -8.146  10.680  62.340  1.00  0.00    -0.196 C  
HETATM    2  N   UNL     1      -8.521  10.635  63.740  1.00  0.00    -0.119 N  
HETATM    3  C   UNL     1      -9.802  11.201  64.130  1.00  0.00    -0.291 C  
ENDROOT
BRANCH   2   4
HETATM    4  C   UNL     1      -7.656   9.964  64.596  1.00  0.00    -0.139 C  
HETATM    5  O   UNL     1      -6.555  10.412  64.906  1.00  0.00    -0.121 OA 
BRANCH   4   6
HETATM    6  N   UNL     1      -8.102   8.751  65.034  1.00  0.00    -0.135 N  
HETATM    7  H   UNL     1      -8.534   8.113  64.365  1.00  0.00     0.000 HD 
BRANCH   6   8
HETATM    8  C   UNL     1      -7.981   8.335  66.428  1.00  0.00    -0.096 C  
HETATM    9  C   UNL     1      -7.943   9.552  67.361  1.00  0.00    -0.106 C  
HETATM   10  C   UNL     1      -9.284  10.288  67.400  1.00  0.00    -0.155 C  
HETATM   11  C   UNL     1     -10.469   9.365  67.740  1.00  0.00    -0.310 C  
HETATM   12  C   UNL     1      -9.133   7.395  66.799  1.00  0.00    -0.178 C  
HETATM   13  C   UNL     1     -10.480   8.115  66.843  1.00  0.00    -0.379 C  
BRANCH  11  14
HETATM   14  C   UNL     1     -10.493   8.954  69.225  1.00  0.00    -0.234 C  
BRANCH  14  15
HETATM   15  C   UNL     1     -10.415   7.441  69.464  1.00  0.00    -0.232 C  
BRANCH  15  16
HETATM   16  N   UNL     1      -9.147   6.979  70.055  1.00  0.00    -0.145 NA 
HETATM   17  C   UNL     1      -9.144   7.041  71.537  1.00  0.00    -0.139 C  
HETATM   18  C   UNL     1     -10.118   6.059  72.229  1.00  0.00    -0.180 C  
HETATM   19  N   UNL     1      -9.876   4.680  71.754  1.00  0.00    -0.175 NA 
HETATM   20  C   UNL     1      -8.883   5.565  69.668  1.00  0.00    -0.111 C  
HETATM   21  C   UNL     1      -9.880   4.552  70.287  1.00  0.00    -0.229 C  
BRANCH  19  22
HETATM   22  C   UNL     1      -9.609   3.651  72.645  1.00  0.00    -0.134 A  
HETATM   23  C   UNL     1      -8.322   3.211  73.062  1.00  0.00    -0.080 A  
HETATM   24  C   UNL     1      -8.185   2.122  73.954  1.00  0.00    -0.058 A  
HETATM   25 CL   UNL     1      -6.863   4.062  72.621  1.00  0.00    -0.048 Cl 
HETATM   26  C   UNL     1      -9.307   1.494  74.494  1.00  0.00    -0.079 A  
HETATM   27 CL   UNL     1      -6.643   1.498  74.447  1.00  0.00    -0.015 Cl 
HETATM   28  C   UNL     1     -10.571   1.927  74.136  1.00  0.00    -0.199 A  
HETATM   29  C   UNL     1     -10.711   2.964  73.213  1.00  0.00    -0.276 A  
ENDBRANCH  19  22
ENDBRANCH  15  16
ENDBRANCH  14  15
ENDBRANCH  11  14
ENDBRANCH   6   8
ENDBRANCH   4   6
ENDBRANCH   2   4
TORSDOF 7
ENDMDL
MODEL      184
REMARK 921   NORMALIZED FREE ENERGY PREDICTED BY IDOCK:   -2.28 KCAL/MOL
REMARK 922        TOTAL FREE ENERGY PREDICTED BY IDOCK:   -3.98 KCAL/MOL
REMARK 923 INTER-LIGAND FREE ENERGY PREDICTED BY IDOCK:   -4.82 KCAL/MOL
REMARK 924 INTRA-LIGAND FREE ENERGY PREDICTED BY IDOCK:    0.85 KCAL/MOL
REMARK 927      BINDING AFFINITY PREDICTED BY RF-SCORE:    0.00 PKD
ROOT
HETATM    1  C   UNL     1      -6.130   9.787  69.203  1.00  0.00    -0.037 C  
HETATM    2  N   UNL     1      -6.530   9.253  67.915  1.00  0.00    -0.059 N  
HETATM    3  C   UNL     1      -5.494   8.965  66.937  1.00  0.00    -0.040 C  
ENDROOT
BRANCH   2   4
HETATM    4  C   UNL     1      -7.880   8.970  67.749  1.00  0.00    -0.101 C  
HETATM    5  O   UNL     1      -8.470   8.141  68.440  1.00  0.00    -0.125 OA 
BRANCH   4   6
HETATM    6  N   UNL     1      -8.494   9.648  66.737  1.00  0.00    -0.126 N  
HETATM    7  H   UNL     1      -9.152   9.149  66.137  1.00  0.00     0.000 HD 
BRANCH   6   8
HETATM    8  C   UNL     1      -8.241  11.063  66.482  1.00  0.00    -0.161 C  
HETATM    9  C   UNL     1      -9.332  11.662  65.587  1.00  0.00    -0.195 C  
HETATM   10  C   UNL     1     -10.683  11.740  66.301  1.00  0.00    -0.312 C  
HETATM   11  C   UNL     1     -10.609  12.474  67.653  1.00  0.00    -0.234 C  
HETATM   12  C   UNL     1      -8.138  11.826  67.807  1.00  0.00    -0.143 C  
HETATM   13  C   UNL     1      -9.480  11.913  68.534  1.00  0.00    -0.151 C  
BRANCH  11  14
HETATM   14  C   UNL     1     -10.450  13.999  67.491  1.00  0.00    -0.252 C  
BRANCH  14  15
HETATM   15  C   UNL     1     -11.426  14.830  68.333  1.00  0.00    -0.314 C  
BRANCH  15  16
HETATM   16  N   UNL     1     -10.799  15.583  69.433  1.00  0.00    -0.242 NA 
HETATM   17  C   UNL     1      -9.376  15.220  69.643  1.00  0.00    -0.155 C  
HETATM   18  C   UNL     1      -8.427  15.619  68.489  1.00  0.00    -0.175 C  
HETATM   19  N   UNL     1      -8.569  17.059  68.187  1.00  0.00    -0.221 NA 
HETATM   20  C   UNL     1     -10.848  17.045  69.150  1.00  0.00    -0.164 C  
HETATM   21  C   UNL     1      -9.962  17.479  67.955  1.00  0.00    -0.312 C  
BRANCH  19  22
HETATM   22  C   UNL     1      -7.470  17.906  68.199  1.00  0.00    -0.250 A  
HETATM   23  C   UNL     1      -7.037  18.738  67.129  1.00  0.00    -0.204 A  
HETATM   24  C   UNL     1      -5.874  19.533  67.258  1.00  0.00    -0.178 A  
HETATM   25 CL   UNL     1      -7.974  18.937  65.670  1.00  0.00     0.110 Cl 
HETATM   26  C   UNL     1      -5.160  19.568  68.455  1.00  0.00    -0.196 A  
HETATM   27 CL   UNL     1      -5.259  20.516  65.968  1.00  0.00    -0.198 Cl 
HETATM   28  C   UNL     1      -5.582  18.798  69.525  1.00  0.00    -0.227 A  
HETATM   29  C   UNL     1      -6.696  17.970  69.384  1.00  0.00    -0.162 A  
ENDBRANCH  19  22
ENDBRANCH  15  16
ENDBRANCH  14  15
ENDBRANCH  11  14
ENDBRANCH   6   8
ENDBRANCH   4   6
ENDBRANCH   2   4
TORSDOF 7
ENDMDL
MODEL      185
REMARK 921   NORMALIZED FREE ENERGY PREDICTED BY IDOCK:   -2.25 KCAL/MOL
REMARK 922        TOTAL FREE ENERGY PREDICTED BY IDOCK:   -3.94 KCAL/MOL
REMARK 923 INTER-LIGAND FREE ENERGY PREDICTED BY IDOCK:   -4.97 KCAL/MOL
REMARK 924 INTRA-LIGAND FREE ENERGY PREDICTED BY IDOCK:    1.03 KCAL/MOL
REMARK 927      BINDING AFFINITY PREDICTED BY RF-SCORE:    0.00 PKD
ROOT
HETATM    1  C   UNL     1     -12.072  15.199  70.187  1.00  0.00    -0.343 C  
HETATM    2  N   UNL     1     -11.885  14.624  68.868  1.00  0.00    -0.314 N  
HETATM    3  C   UNL     1     -11.620  15.522  67.756  1.00  0.00    -0.187 C  
ENDROOT
BRANCH   2   4
HETATM    4  C   UNL     1     -11.882  13.237  68.787  1.00  0.00    -0.334 C  
HETATM    5  O   UNL     1     -11.808  12.518  69.781  1.00  0.00    -0.315 OA 
BRANCH   4   6
HETATM    6  N   UNL     1     -11.926  12.731  67.520  1.00  0.00    -0.341 N  
HETATM    7  H   UNL     1     -12.815  12.383  67.159  1.00  0.00     0.000 HD 
BRANCH   6   8
HETATM    8  C   UNL     1     -10.745  12.672  66.665  1.00  0.00    -0.253 C  
HETATM    9  C   UNL     1      -9.464  12.849  67.488  1.00  0.00    -0.198 C  
HETATM   10  C   UNL     1      -9.205  11.657  68.412  1.00  0.00    -0.182 C  
HETATM   11  C   UNL     1      -9.206  10.307  67.669  1.00  0.00    -0.154 C  
HETATM   12  C   UNL     1     -10.722  11.350  65.890  1.00  0.00    -0.311 C  
HETATM   13  C   UNL     1     -10.464  10.148  66.799  1.00  0.00    -0.270 C  
BRANCH  11  14
HETATM   14  C   UNL     1      -7.939  10.100  66.816  1.00  0.00    -0.115 C  
BRANCH  14  15
HETATM   15  C   UNL     1      -7.312   8.705  66.943  1.00  0.00    -0.079 C  
BRANCH  15  16
HETATM   16  N   UNL     1      -6.426   8.536  68.108  1.00  0.00    -0.056 NA 
HETATM   17  C   UNL     1      -7.065   8.943  69.383  1.00  0.00    -0.057 C  
HETATM   18  C   UNL     1      -8.247   8.050  69.831  1.00  0.00    -0.119 C  
HETATM   19  N   UNL     1      -7.827   6.634  69.875  1.00  0.00    -0.112 NA 
HETATM   20  C   UNL     1      -6.025   7.107  68.247  1.00  0.00    -0.030 C  
HETATM   21  C   UNL     1      -7.196   6.166  68.629  1.00  0.00    -0.084 C  
BRANCH  19  22
HETATM   22  C   UNL     1      -7.976   5.877  71.029  1.00  0.00    -0.116 A  
HETATM   23  C   UNL     1      -8.866   4.782  71.208  1.00  0.00    -0.127 A  
HETATM   24  C   UNL     1      -8.946   4.113  72.452  1.00  0.00    -0.111 A  
HETATM   25 CL   UNL     1      -9.793   4.114  69.888  1.00  0.00    -0.282 Cl 
HETATM   26  C   UNL     1      -8.113   4.470  73.511  1.00  0.00    -0.095 A  
HETATM   27 CL   UNL     1     -10.057   2.815  72.752  1.00  0.00    -0.210 Cl 
HETATM   28  C   UNL     1      -7.211   5.506  73.352  1.00  0.00    -0.087 A  
HETATM   29  C   UNL     1      -7.168   6.205  72.145  1.00  0.00    -0.092 A  
ENDBRANCH  19  22
ENDBRANCH  15  16
ENDBRANCH  14  15
ENDBRANCH  11  14
ENDBRANCH   6   8
ENDBRANCH   4   6
ENDBRANCH   2   4
TORSDOF 7
ENDMDL
MODEL      186
REMARK 921   NORMALIZED FREE ENERGY PREDICTED BY IDOCK:   -2.22 KCAL/MOL
REMARK 922        TOTAL FREE ENERGY PREDICTED BY IDOCK:   -3.90 KCAL/MOL
REMARK 923 INTER-LIGAND FREE ENERGY PREDICTED BY IDOCK:   -5.25 KCAL/MOL
REMARK 924 INTRA-LIGAND FREE ENERGY PREDICTED BY IDOCK:    1.35 KCAL/MOL
REMARK 927      BINDING AFFINITY PREDICTED BY RF-SCORE:    0.00 PKD
ROOT
HETATM    1  C   UNL     1     -12.955  13.154  72.002  1.00  0.00    -0.298 C  
HETATM    2  N   UNL     1     -13.191  14.447  71.388  1.00  0.00    -0.334 N  
HETATM    3  C   UNL     1     -14.318  15.237  71.858  1.00  0.00    -0.589 C  
ENDROOT
BRANCH   2   4
HETATM    4  C   UNL     1     -12.257  14.874  70.453  1.00  0.00    -0.336 C  
HETATM    5  O   UNL     1     -12.171  16.047  70.094  1.00  0.00    -0.282 OA 
BRANCH   4   6
HETATM    6  N   UNL     1     -11.469  13.890  69.931  1.00  0.00    -0.431 N  
HETATM    7  H   UNL     1     -10.546  13.731  70.336  1.00  0.00     0.000 HD 
BRANCH   6   8
HETATM    8  C   UNL     1     -11.902  13.059  68.812  1.00  0.00    -0.317 C  
HETATM    9  C   UNL     1     -10.946  13.202  67.622  1.00  0.00    -0.282 C  
HETATM   10  C   UNL     1      -9.572  12.594  67.911  1.00  0.00    -0.211 C  
HETATM   11  C   UNL     1      -9.648  11.132  68.390  1.00  0.00    -0.192 C  
HETATM   12  C   UNL     1     -12.012  11.596  69.255  1.00  0.00    -0.382 C  
HETATM   13  C   UNL     1     -10.647  10.973  69.548  1.00  0.00    -0.182 C  
BRANCH  11  14
HETATM   14  C   UNL     1      -9.995  10.154  67.250  1.00  0.00    -0.241 C  
BRANCH  14  15
HETATM   15  C   UNL     1      -8.780   9.473  66.609  1.00  0.00    -0.134 C  
BRANCH  15  16
HETATM   16  N   UNL     1      -7.621   9.316  67.506  1.00  0.00    -0.088 NA 
HETATM   17  C   UNL     1      -8.011   9.124  68.923  1.00  0.00    -0.099 C  
HETATM   18  C   UNL     1      -8.742   7.793  69.220  1.00  0.00    -0.139 C  
HETATM   19  N   UNL     1      -7.943   6.651  68.728  1.00  0.00    -0.117 NA 
HETATM   20  C   UNL     1      -6.812   8.133  67.101  1.00  0.00    -0.070 C  
HETATM   21  C   UNL     1      -7.536   6.779  67.318  1.00  0.00    -0.096 C  
BRANCH  19  22
HETATM   22  C   UNL     1      -7.580   5.612  69.574  1.00  0.00    -0.072 A  
HETATM   23  C   UNL     1      -7.497   4.235  69.228  1.00  0.00    -0.055 A  
HETATM   24  C   UNL     1      -7.147   3.267  70.197  1.00  0.00    -0.041 A  
HETATM   25 CL   UNL     1      -7.678   3.679  67.582  1.00  0.00    -0.073 Cl 
HETATM   26  C   UNL     1      -6.815   3.644  71.498  1.00  0.00    -0.031 A  
HETATM   27 CL   UNL     1      -7.093   1.567  69.852  1.00  0.00    -0.033 Cl 
HETATM   28  C   UNL     1      -6.850   4.981  71.852  1.00  0.00    -0.053 A  
HETATM   29  C   UNL     1      -7.249   5.933  70.914  1.00  0.00    -0.077 A  
ENDBRANCH  19  22
ENDBRANCH  15  16
ENDBRANCH  14  15
ENDBRANCH  11  14
ENDBRANCH   6   8
ENDBRANCH   4   6
ENDBRANCH   2   4
TORSDOF 7
ENDMDL
MODEL      187
REMARK 921   NORMALIZED FREE ENERGY PREDICTED BY IDOCK:   -2.16 KCAL/MOL
REMARK 922        TOTAL FREE ENERGY PREDICTED BY IDOCK:   -3.81 KCAL/MOL
REMARK 923 INTER-LIGAND FREE ENERGY PREDICTED BY IDOCK:   -5.00 KCAL/MOL
REMARK 924 INTRA-LIGAND FREE ENERGY PREDICTED BY IDOCK:    1.19 KCAL/MOL
REMARK 927      BINDING AFFINITY PREDICTED BY RF-SCORE:    0.00 PKD
ROOT
HETATM    1  C   UNL     1     -10.299  18.242  69.295  1.00  0.00     0.152 C  
HETATM    2  N   UNL     1     -10.738  16.946  68.814  1.00  0.00    -0.341 N  
HETATM    3  C   UNL     1     -10.860  16.749  67.379  1.00  0.00    -0.176 C  
ENDROOT
BRANCH   2   4
HETATM    4  C   UNL     1     -10.919  15.955  69.769  1.00  0.00    -0.328 C  
HETATM    5  O   UNL     1     -11.253  16.206  70.926  1.00  0.00    -0.361 OA 
BRANCH   4   6
HETATM    6  N   UNL     1     -10.660  14.685  69.343  1.00  0.00    -0.343 N  
HETATM    7  H   UNL     1     -10.550  13.944  70.037  1.00  0.00     0.000 HD 
BRANCH   6   8
HETATM    8  C   UNL     1     -10.533  14.350  67.928  1.00  0.00    -0.239 C  
HETATM    9  C   UNL     1      -9.108  13.888  67.600  1.00  0.00    -0.197 C  
HETATM   10  C   UNL     1      -8.779  12.539  68.241  1.00  0.00    -0.171 C  
HETATM   11  C   UNL     1      -9.808  11.443  67.904  1.00  0.00    -0.188 C  
HETATM   12  C   UNL     1     -11.559  13.277  67.548  1.00  0.00    -0.388 C  
HETATM   13  C   UNL     1     -11.244  11.921  68.180  1.00  0.00    -0.316 C  
BRANCH  11  14
HETATM   14  C   UNL     1      -9.684  10.942  66.452  1.00  0.00    -0.240 C  
BRANCH  14  15
HETATM   15  C   UNL     1      -8.539   9.948  66.221  1.00  0.00    -0.128 C  
BRANCH  15  16
HETATM   16  N   UNL     1      -8.248   9.072  67.370  1.00  0.00    -0.108 NA 
HETATM   17  C   UNL     1      -9.435   8.311  67.830  1.00  0.00    -0.146 C  
HETATM   18  C   UNL     1      -9.956   7.253  66.830  1.00  0.00    -0.217 C  
HETATM   19  N   UNL     1      -8.860   6.342  66.435  1.00  0.00    -0.137 NA 
HETATM   20  C   UNL     1      -7.196   8.080  67.008  1.00  0.00    -0.087 C  
HETATM   21  C   UNL     1      -7.656   7.040  65.955  1.00  0.00    -0.097 C  
BRANCH  19  22
HETATM   22  C   UNL     1      -8.982   4.968  66.585  1.00  0.00    -0.114 A  
HETATM   23  C   UNL     1      -8.982   4.251  67.814  1.00  0.00    -0.118 A  
HETATM   24  C   UNL     1      -9.079   2.841  67.827  1.00  0.00    -0.182 A  
HETATM   25 CL   UNL     1      -9.008   5.062  69.360  1.00  0.00    -0.116 Cl 
HETATM   26  C   UNL     1      -9.238   2.123  66.643  1.00  0.00    -0.016 A  
HETATM   27 CL   UNL     1      -9.018   1.908  69.289  1.00  0.00    -0.134 Cl 
HETATM   28  C   UNL     1      -9.280   2.797  65.435  1.00  0.00    -0.124 A  
HETATM   29  C   UNL     1      -9.128   4.184  65.413  1.00  0.00    -0.139 A  
ENDBRANCH  19  22
ENDBRANCH  15  16
ENDBRANCH  14  15
ENDBRANCH  11  14
ENDBRANCH   6   8
ENDBRANCH   4   6
ENDBRANCH   2   4
TORSDOF 7
ENDMDL
MODEL      188
REMARK 921   NORMALIZED FREE ENERGY PREDICTED BY IDOCK:   -2.14 KCAL/MOL
REMARK 922        TOTAL FREE ENERGY PREDICTED BY IDOCK:   -3.79 KCAL/MOL
REMARK 923 INTER-LIGAND FREE ENERGY PREDICTED BY IDOCK:   -3.81 KCAL/MOL
REMARK 924 INTRA-LIGAND FREE ENERGY PREDICTED BY IDOCK:    0.02 KCAL/MOL
REMARK 927      BINDING AFFINITY PREDICTED BY RF-SCORE:    0.00 PKD
ROOT
HETATM    1  C   UNL     1      -5.543  10.149  64.575  1.00  0.00    -0.119 C  
HETATM    2  N   UNL     1      -6.601  10.354  65.547  1.00  0.00    -0.127 N  
HETATM    3  C   UNL     1      -7.976  10.149  65.121  1.00  0.00    -0.146 C  
ENDROOT
BRANCH   2   4
HETATM    4  C   UNL     1      -6.207  10.644  66.846  1.00  0.00    -0.070 C  
HETATM    5  O   UNL     1      -6.085   9.776  67.708  1.00  0.00    -0.051 OA 
BRANCH   4   6
HETATM    6  N   UNL     1      -6.004  11.968  67.109  1.00  0.00    -0.146 N  
HETATM    7  H   UNL     1      -5.292  12.472  66.580  1.00  0.00     0.000 HD 
BRANCH   6   8
HETATM    8  C   UNL     1      -6.773  12.686  68.120  1.00  0.00    -0.082 C  
HETATM    9  C   UNL     1      -6.022  13.938  68.591  1.00  0.00    -0.088 C  
HETATM   10  C   UNL     1      -5.933  15.001  67.495  1.00  0.00     0.008 C  
HETATM   11  C   UNL     1      -7.305  15.369  66.898  1.00  0.00     0.016 C  
HETATM   12  C   UNL     1      -8.156  13.050  67.571  1.00  0.00    -0.179 C  
HETATM   13  C   UNL     1      -8.085  14.113  66.474  1.00  0.00     0.679 C  
BRANCH  11  14
HETATM   14  C   UNL     1      -8.156  16.226  67.854  1.00  0.00    -0.153 C  
BRANCH  14  15
HETATM   15  C   UNL     1      -9.170  17.139  67.153  1.00  0.00    -0.236 C  
BRANCH  15  16
HETATM   16  N   UNL     1     -10.178  17.735  68.047  1.00  0.00    -0.356 NA 
HETATM   17  C   UNL     1     -11.514  17.106  67.912  1.00  0.00     0.438 C  
HETATM   18  C   UNL     1     -11.590  15.636  68.389  1.00  0.00    -0.350 C  
HETATM   19  N   UNL     1     -11.086  15.524  69.775  1.00  0.00    -0.269 NA 
HETATM   20  C   UNL     1      -9.758  17.589  69.469  1.00  0.00     0.267 C  
HETATM   21  C   UNL     1      -9.754  16.121  69.969  1.00  0.00     0.327 C  
BRANCH  19  22
HETATM   22  C   UNL     1     -11.863  14.959  70.776  1.00  0.00    -0.312 A  
HETATM   23  C   UNL     1     -12.228  13.588  70.886  1.00  0.00    -0.305 A  
HETATM   24  C   UNL     1     -13.057  13.144  71.942  1.00  0.00    -0.385 A  
HETATM   25 CL   UNL     1     -11.572  12.365  69.827  1.00  0.00    -0.337 Cl 
HETATM   26  C   UNL     1     -13.485  14.025  72.935  1.00  0.00    -0.421 A  
HETATM   27 CL   UNL     1     -13.590  11.500  72.092  1.00  0.00    -0.294 Cl 
HETATM   28  C   UNL     1     -13.113  15.356  72.874  1.00  0.00    -0.598 A  
HETATM   29  C   UNL     1     -12.341  15.810  71.803  1.00  0.00    -0.523 A  
ENDBRANCH  19  22
ENDBRANCH  15  16
ENDBRANCH  14  15
ENDBRANCH  11  14
ENDBRANCH   6   8
ENDBRANCH   4   6
ENDBRANCH   2   4
TORSDOF 7
ENDMDL
MODEL      189
REMARK 921   NORMALIZED FREE ENERGY PREDICTED BY IDOCK:   -1.67 KCAL/MOL
REMARK 922        TOTAL FREE ENERGY PREDICTED BY IDOCK:   -3.13 KCAL/MOL
REMARK 923 INTER-LIGAND FREE ENERGY PREDICTED BY IDOCK:   -2.90 KCAL/MOL
REMARK 924 INTRA-LIGAND FREE ENERGY PREDICTED BY IDOCK:   -0.23 KCAL/MOL
REMARK 927      BINDING AFFINITY PREDICTED BY RF-SCORE:    0.00 PKD
ROOT
HETATM    1  C   UNL     1     -12.066   6.645  70.697  1.00  0.00    -0.281 C  
HETATM    2  N   UNL     1     -11.453   6.996  71.964  1.00  0.00    -0.262 N  
HETATM    3  C   UNL     1     -11.568   8.369  72.428  1.00  0.00    -0.380 C  
ENDROOT
BRANCH   2   4
HETATM    4  C   UNL     1     -10.877   5.959  72.687  1.00  0.00    -0.251 C  
HETATM    5  O   UNL     1     -10.703   6.018  73.902  1.00  0.00    -0.252 OA 
BRANCH   4   6
HETATM    6  N   UNL     1     -10.481   4.885  71.943  1.00  0.00    -0.192 N  
HETATM    7  H   UNL     1     -11.126   4.104  71.822  1.00  0.00     0.000 HD 
BRANCH   6   8
HETATM    8  C   UNL     1      -9.165   4.817  71.316  1.00  0.00    -0.142 C  
HETATM    9  C   UNL     1      -8.132   4.212  72.274  1.00  0.00    -0.091 C  
HETATM   10  C   UNL     1      -8.395   2.729  72.541  1.00  0.00    -0.070 C  
HETATM   11  C   UNL     1      -8.511   1.895  71.252  1.00  0.00    -0.079 C  
HETATM   12  C   UNL     1      -9.243   4.013  70.014  1.00  0.00    -0.215 C  
HETATM   13  C   UNL     1      -9.505   2.528  70.264  1.00  0.00    -0.164 C  
BRANCH  11  14
HETATM   14  C   UNL     1      -7.148   1.673  70.566  1.00  0.00    -0.033 C  
BRANCH  14  15
HETATM   15  C   UNL     1      -7.186   1.771  69.036  1.00  0.00    -0.039 C  
BRANCH  15  16
HETATM   16  N   UNL     1      -5.908   2.159  68.415  1.00  0.00    -0.023 NA 
HETATM   17  C   UNL     1      -6.029   2.423  66.961  1.00  0.00    -0.023 C  
HETATM   18  C   UNL     1      -6.875   3.666  66.595  1.00  0.00    -0.054 C  
HETATM   19  N   UNL     1      -6.369   4.856  67.312  1.00  0.00    -0.039 NA 
HETATM   20  C   UNL     1      -5.381   3.400  69.051  1.00  0.00    -0.012 C  
HETATM   21  C   UNL     1      -6.239   4.659  68.766  1.00  0.00    -0.031 C  
BRANCH  19  22
HETATM   22  C   UNL     1      -6.002   6.005  66.625  1.00  0.00    -0.022 A  
HETATM   23  C   UNL     1      -6.003   7.330  67.141  1.00  0.00    -0.041 A  
HETATM   24  C   UNL     1      -5.637   8.424  66.323  1.00  0.00    -0.039 A  
HETATM   25 CL   UNL     1      -6.309   7.670  68.826  1.00  0.00    -0.039 Cl 
HETATM   26  C   UNL     1      -5.209   8.224  65.011  1.00  0.00    -0.035 A  
HETATM   27 CL   UNL     1      -5.681  10.068  66.874  1.00  0.00    -0.049 Cl 
HETATM   28  C   UNL     1      -5.163   6.941  64.495  1.00  0.00    -0.027 A  
HETATM   29  C   UNL     1      -5.575   5.865  65.281  1.00  0.00    -0.020 A  
ENDBRANCH  19  22
ENDBRANCH  15  16
ENDBRANCH  14  15
ENDBRANCH  11  14
ENDBRANCH   6   8
ENDBRANCH   4   6
ENDBRANCH   2   4
TORSDOF 7
ENDMDL
MODEL      190
REMARK 921   NORMALIZED FREE ENERGY PREDICTED BY IDOCK:   -1.56 KCAL/MOL
REMARK 922        TOTAL FREE ENERGY PREDICTED BY IDOCK:   -2.97 KCAL/MOL
REMARK 923 INTER-LIGAND FREE ENERGY PREDICTED BY IDOCK:   -3.41 KCAL/MOL
REMARK 924 INTRA-LIGAND FREE ENERGY PREDICTED BY IDOCK:    0.44 KCAL/MOL
REMARK 927      BINDING AFFINITY PREDICTED BY RF-SCORE:    0.00 PKD
ROOT
HETATM    1  C   UNL     1     -12.827   8.856  71.209  1.00  0.00    -0.229 C  
HETATM    2  N   UNL     1     -11.494   8.371  71.515  1.00  0.00    -0.264 N  
HETATM    3  C   UNL     1     -10.388   9.312  71.453  1.00  0.00    -0.321 C  
ENDROOT
BRANCH   2   4
HETATM    4  C   UNL     1     -11.392   7.051  71.937  1.00  0.00    -0.257 C  
HETATM    5  O   UNL     1     -11.599   6.713  73.100  1.00  0.00     0.012 OA 
BRANCH   4   6
HETATM    6  N   UNL     1     -11.004   6.164  70.975  1.00  0.00    -0.280 N  
HETATM    7  H   UNL     1     -11.674   5.468  70.647  1.00  0.00     0.000 HD 
BRANCH   6   8
HETATM    8  C   UNL     1      -9.662   6.177  70.401  1.00  0.00    -0.169 C  
HETATM    9  C   UNL     1      -8.921   4.871  70.713  1.00  0.00    -0.167 C  
HETATM   10  C   UNL     1      -9.531   3.675  69.980  1.00  0.00    -0.260 C  
HETATM   11  C   UNL     1      -9.651   3.896  68.460  1.00  0.00    -0.179 C  
HETATM   12  C   UNL     1      -9.738   6.418  68.890  1.00  0.00    -0.134 C  
HETATM   13  C   UNL     1     -10.345   5.231  68.142  1.00  0.00    -0.181 C  
BRANCH  11  14
HETATM   14  C   UNL     1      -8.290   3.820  67.741  1.00  0.00    -0.099 C  
BRANCH  14  15
HETATM   15  C   UNL     1      -7.094   4.242  68.604  1.00  0.00    -0.052 C  
BRANCH  15  16
HETATM   16  N   UNL     1      -5.972   4.829  67.851  1.00  0.00    -0.022 NA 
HETATM   17  C   UNL     1      -6.415   5.598  66.663  1.00  0.00    -0.050 C  
HETATM   18  C   UNL     1      -7.208   6.888  66.983  1.00  0.00    -0.084 C  
HETATM   19  N   UNL     1      -6.440   7.741  67.913  1.00  0.00    -0.050 NA 
HETATM   20  C   UNL     1      -5.198   5.759  68.721  1.00  0.00    -0.003 C  
HETATM   21  C   UNL     1      -5.982   7.035  69.122  1.00  0.00    -0.022 C  
BRANCH  19  22
HETATM   22  C   UNL     1      -6.146   9.061  67.599  1.00  0.00    -0.051 A  
HETATM   23  C   UNL     1      -5.976  10.128  68.524  1.00  0.00    -0.041 A  
HETATM   24  C   UNL     1      -5.712  11.442  68.071  1.00  0.00    -0.042 A  
HETATM   25 CL   UNL     1      -5.940   9.864  70.249  1.00  0.00    -0.056 Cl 
HETATM   26  C   UNL     1      -5.551  11.710  66.712  1.00  0.00    -0.134 A  
HETATM   27 CL   UNL     1      -5.560  12.795  69.145  1.00  0.00    -0.070 Cl 
HETATM   28  C   UNL     1      -5.673  10.684  65.793  1.00  0.00    -0.139 A  
HETATM   29  C   UNL     1      -5.989   9.398  66.232  1.00  0.00    -0.059 A  
ENDBRANCH  19  22
ENDBRANCH  15  16
ENDBRANCH  14  15
ENDBRANCH  11  14
ENDBRANCH   6   8
ENDBRANCH   4   6
ENDBRANCH   2   4
TORSDOF 7
ENDMDL
MODEL      191
REMARK 921   NORMALIZED FREE ENERGY PREDICTED BY IDOCK:   -1.44 KCAL/MOL
REMARK 922        TOTAL FREE ENERGY PREDICTED BY IDOCK:   -2.80 KCAL/MOL
REMARK 923 INTER-LIGAND FREE ENERGY PREDICTED BY IDOCK:   -2.68 KCAL/MOL
REMARK 924 INTRA-LIGAND FREE ENERGY PREDICTED BY IDOCK:   -0.12 KCAL/MOL
REMARK 927      BINDING AFFINITY PREDICTED BY RF-SCORE:    0.00 PKD
ROOT
HETATM    1  C   UNL     1     -11.435  14.247  63.552  1.00  0.00     0.900 C  
HETATM    2  N   UNL     1     -11.830  13.814  64.879  1.00  0.00    -0.358 N  
HETATM    3  C   UNL     1     -13.248  13.666  65.161  1.00  0.00     0.141 C  
ENDROOT
BRANCH   2   4
HETATM    4  C   UNL     1     -10.807  13.483  65.757  1.00  0.00    -0.275 C  
HETATM    5  O   UNL     1     -10.469  14.217  66.684  1.00  0.00    -0.274 OA 
BRANCH   4   6
HETATM    6  N   UNL     1     -10.175  12.303  65.492  1.00  0.00    -0.265 N  
HETATM    7  H   UNL     1     -10.699  11.555  65.037  1.00  0.00     0.000 HD 
BRANCH   6   8
HETATM    8  C   UNL     1      -8.776  12.074  65.838  1.00  0.00     0.207 C  
HETATM    9  C   UNL     1      -8.564  12.175  67.354  1.00  0.00    -0.175 C  
HETATM   10  C   UNL     1      -9.233  11.023  68.106  1.00  0.00    -0.165 C  
HETATM   11  C   UNL     1      -8.819   9.636  67.579  1.00  0.00    -0.129 C  
HETATM   12  C   UNL     1      -8.319  10.711  65.310  1.00  0.00    -0.127 C  
HETATM   13  C   UNL     1      -8.978   9.548  66.051  1.00  0.00    -0.198 C  
BRANCH  11  14
HETATM   14  C   UNL     1      -7.383   9.253  67.986  1.00  0.00    -0.080 C  
BRANCH  14  15
HETATM   15  C   UNL     1      -7.156   7.746  68.160  1.00  0.00    -0.085 C  
BRANCH  15  16
HETATM   16  N   UNL     1      -6.539   7.363  69.442  1.00  0.00    -0.036 NA 
HETATM   17  C   UNL     1      -7.264   7.905  70.617  1.00  0.00    -0.053 C  
HETATM   18  C   UNL     1      -8.679   7.319  70.833  1.00  0.00    -0.148 C  
HETATM   19  N   UNL     1      -8.617   5.842  70.880  1.00  0.00    -0.129 NA 
HETATM   20  C   UNL     1      -6.513   5.880  69.580  1.00  0.00    -0.042 C  
HETATM   21  C   UNL     1      -7.918   5.243  69.730  1.00  0.00    -0.080 C  
BRANCH  19  22
HETATM   22  C   UNL     1      -9.127   5.138  71.961  1.00  0.00    -0.137 A  
HETATM   23  C   UNL     1      -8.504   4.042  72.622  1.00  0.00    -0.100 A  
HETATM   24  C   UNL     1      -9.148   3.385  73.696  1.00  0.00    -0.093 A  
HETATM   25 CL   UNL     1      -6.873   3.541  72.250  1.00  0.00    -0.029 Cl 
HETATM   26  C   UNL     1     -10.379   3.833  74.173  1.00  0.00    -0.249 A  
HETATM   27 CL   UNL     1      -8.469   2.004  74.496  1.00  0.00    -0.057 Cl 
HETATM   28  C   UNL     1     -10.990   4.920  73.575  1.00  0.00    -0.397 A  
HETATM   29  C   UNL     1     -10.385   5.536  72.479  1.00  0.00    -0.246 A  
ENDBRANCH  19  22
ENDBRANCH  15  16
ENDBRANCH  14  15
ENDBRANCH  11  14
ENDBRANCH   6   8
ENDBRANCH   4   6
ENDBRANCH   2   4
TORSDOF 7
ENDMDL
MODEL      192
REMARK 921   NORMALIZED FREE ENERGY PREDICTED BY IDOCK:   -1.11 KCAL/MOL
REMARK 922        TOTAL FREE ENERGY PREDICTED BY IDOCK:   -2.33 KCAL/MOL
REMARK 923 INTER-LIGAND FREE ENERGY PREDICTED BY IDOCK:   -3.91 KCAL/MOL
REMARK 924 INTRA-LIGAND FREE ENERGY PREDICTED BY IDOCK:    1.58 KCAL/MOL
REMARK 927      BINDING AFFINITY PREDICTED BY RF-SCORE:    0.00 PKD
ROOT
HETATM    1  C   UNL     1     -12.850  15.762  71.117  1.00  0.00    -0.410 C  
HETATM    2  N   UNL     1     -11.830  15.508  70.117  1.00  0.00    -0.329 N  
HETATM    3  C   UNL     1     -10.806  16.518  69.905  1.00  0.00    -0.283 C  
ENDROOT
BRANCH   2   4
HETATM    4  C   UNL     1     -11.859  14.264  69.500  1.00  0.00    -0.329 C  
HETATM    5  O   UNL     1     -11.764  13.212  70.129  1.00  0.00    -0.272 OA 
BRANCH   4   6
HETATM    6  N   UNL     1     -11.958  14.295  68.139  1.00  0.00    -0.490 N  
HETATM    7  H   UNL     1     -12.878  14.198  67.709  1.00  0.00     0.000 HD 
BRANCH   6   8
HETATM    8  C   UNL     1     -10.792  14.463  67.278  1.00  0.00    -0.290 C  
HETATM    9  C   UNL     1      -9.505  14.536  68.108  1.00  0.00    -0.208 C  
HETATM   10  C   UNL     1      -9.174  13.199  68.775  1.00  0.00     0.144 C  
HETATM   11  C   UNL     1      -9.127  12.024  67.780  1.00  0.00    -0.187 C  
HETATM   12  C   UNL     1     -10.722  13.323  66.257  1.00  0.00    -0.293 C  
HETATM   13  C   UNL     1     -10.393  11.979  66.907  1.00  0.00    -0.238 C  
BRANCH  11  14
HETATM   14  C   UNL     1      -7.868  12.050  66.891  1.00  0.00    -0.095 C  
BRANCH  14  15
HETATM   15  C   UNL     1      -7.227  10.676  66.661  1.00  0.00    -0.128 C  
BRANCH  15  16
HETATM   16  N   UNL     1      -5.961  10.462  67.384  1.00  0.00    -0.052 NA 
HETATM   17  C   UNL     1      -6.069  10.748  68.835  1.00  0.00    -0.040 C  
HETATM   18  C   UNL     1      -6.977   9.774  69.622  1.00  0.00    -0.078 C  
HETATM   19  N   UNL     1      -6.554   8.378  69.385  1.00  0.00    -0.041 NA 
HETATM   20  C   UNL     1      -5.518   9.047  67.240  1.00  0.00    -0.041 C  
HETATM   21  C   UNL     1      -6.440   8.029  67.959  1.00  0.00    -0.056 C  
BRANCH  19  22
HETATM   22  C   UNL     1      -6.240   7.534  70.441  1.00  0.00    -0.034 A  
HETATM   23  C   UNL     1      -5.836   6.174  70.341  1.00  0.00    -0.018 A  
HETATM   24  C   UNL     1      -5.577   5.410  71.503  1.00  0.00    -0.009 A  
HETATM   25 CL   UNL     1      -5.501   5.416  68.804  1.00  0.00    -0.007 Cl 
HETATM   26  C   UNL     1      -5.650   5.988  72.770  1.00  0.00    -0.036 A  
HETATM   27 CL   UNL     1      -5.145   3.731  71.448  1.00  0.00     0.000 Cl 
HETATM   28  C   UNL     1      -6.004   7.319  72.895  1.00  0.00    -0.048 A  
HETATM   29  C   UNL     1      -6.314   8.061  71.755  1.00  0.00    -0.043 A  
ENDBRANCH  19  22
ENDBRANCH  15  16
ENDBRANCH  14  15
ENDBRANCH  11  14
ENDBRANCH   6   8
ENDBRANCH   4   6
ENDBRANCH   2   4
TORSDOF 7
ENDMDL
MODEL      193
REMARK 921   NORMALIZED FREE ENERGY PREDICTED BY IDOCK:   -1.01 KCAL/MOL
REMARK 922        TOTAL FREE ENERGY PREDICTED BY IDOCK:   -2.19 KCAL/MOL
REMARK 923 INTER-LIGAND FREE ENERGY PREDICTED BY IDOCK:   -3.58 KCAL/MOL
REMARK 924 INTRA-LIGAND FREE ENERGY PREDICTED BY IDOCK:    1.39 KCAL/MOL
REMARK 927      BINDING AFFINITY PREDICTED BY RF-SCORE:    0.00 PKD
ROOT
HETATM    1  C   UNL     1      -8.948   6.681  72.189  1.00  0.00    -0.138 C  
HETATM    2  N   UNL     1     -10.251   6.323  72.717  1.00  0.00    -0.181 N  
HETATM    3  C   UNL     1     -10.312   5.666  74.013  1.00  0.00    -0.279 C  
ENDROOT
BRANCH   2   4
HETATM    4  C   UNL     1     -11.356   6.723  71.977  1.00  0.00    -0.272 C  
HETATM    5  O   UNL     1     -11.557   6.334  70.828  1.00  0.00    -0.344 OA 
BRANCH   4   6
HETATM    6  N   UNL     1     -12.180   7.613  72.602  1.00  0.00    -0.566 N  
HETATM    7  H   UNL     1     -12.990   7.260  73.113  1.00  0.00     0.000 HD 
BRANCH   6   8
HETATM    8  C   UNL     1     -11.944   9.053  72.562  1.00  0.00    -0.054 C  
HETATM    9  C   UNL     1     -10.642   9.373  71.818  1.00  0.00    -0.133 C  
HETATM   10  C   UNL     1     -10.742   9.062  70.324  1.00  0.00    -0.262 C  
HETATM   11  C   UNL     1     -11.949   9.737  69.646  1.00  0.00     0.226 C  
HETATM   12  C   UNL     1     -13.136   9.765  71.914  1.00  0.00    -0.544 C  
HETATM   13  C   UNL     1     -13.250   9.464  70.419  1.00  0.00     0.541 C  
BRANCH  11  14
HETATM   14  C   UNL     1     -11.750  11.254  69.458  1.00  0.00    -0.415 C  
BRANCH  14  15
HETATM   15  C   UNL     1     -10.299  11.674  69.193  1.00  0.00    -0.014 C  
BRANCH  15  16
HETATM   16  N   UNL     1     -10.088  12.379  67.917  1.00  0.00    -0.203 NA 
HETATM   17  C   UNL     1      -8.664  12.418  67.507  1.00  0.00    -0.179 C  
HETATM   18  C   UNL     1      -8.056  11.044  67.139  1.00  0.00    -0.134 C  
HETATM   19  N   UNL     1      -8.887  10.377  66.115  1.00  0.00    -0.153 NA 
HETATM   20  C   UNL     1     -10.848  11.708  66.825  1.00  0.00    -0.277 C  
HETATM   21  C   UNL     1     -10.314  10.296  66.471  1.00  0.00    -0.211 C  
BRANCH  19  22
HETATM   22  C   UNL     1      -8.337   9.945  64.916  1.00  0.00    -0.150 A  
HETATM   23  C   UNL     1      -7.073  10.322  64.385  1.00  0.00    -0.064 A  
HETATM   24  C   UNL     1      -6.642   9.835  63.130  1.00  0.00    -0.116 A  
HETATM   25 CL   UNL     1      -5.932  11.278  65.298  1.00  0.00     0.397 Cl 
HETATM   26  C   UNL     1      -7.417   8.926  62.411  1.00  0.00    -0.103 A  
HETATM   27 CL   UNL     1      -5.141  10.310  62.401  1.00  0.00    -0.092 Cl 
HETATM   28  C   UNL     1      -8.634   8.512  62.921  1.00  0.00    -0.026 A  
HETATM   29  C   UNL     1      -9.088   9.034  64.133  1.00  0.00     0.166 A  
ENDBRANCH  19  22
ENDBRANCH  15  16
ENDBRANCH  14  15
ENDBRANCH  11  14
ENDBRANCH   6   8
ENDBRANCH   4   6
ENDBRANCH   2   4
TORSDOF 7
ENDMDL
MODEL      194
REMARK 921   NORMALIZED FREE ENERGY PREDICTED BY IDOCK:   -0.65 KCAL/MOL
REMARK 922        TOTAL FREE ENERGY PREDICTED BY IDOCK:   -1.69 KCAL/MOL
REMARK 923 INTER-LIGAND FREE ENERGY PREDICTED BY IDOCK:   -2.26 KCAL/MOL
REMARK 924 INTRA-LIGAND FREE ENERGY PREDICTED BY IDOCK:    0.57 KCAL/MOL
REMARK 927      BINDING AFFINITY PREDICTED BY RF-SCORE:    0.00 PKD
ROOT
HETATM    1  C   UNL     1      -8.586  11.527  65.592  1.00  0.00     0.120 C  
HETATM    2  N   UNL     1      -9.557  12.276  66.367  1.00  0.00    -0.233 N  
HETATM    3  C   UNL     1     -10.717  12.819  65.679  1.00  0.00    -0.273 C  
ENDROOT
BRANCH   2   4
HETATM    4  C   UNL     1      -9.347  12.337  67.738  1.00  0.00    -0.194 C  
HETATM    5  O   UNL     1     -10.134  12.892  68.503  1.00  0.00    -0.233 OA 
BRANCH   4   6
HETATM    6  N   UNL     1      -8.183  11.771  68.172  1.00  0.00    -0.146 N  
HETATM    7  H   UNL     1      -7.300  12.104  67.785  1.00  0.00     0.000 HD 
BRANCH   6   8
HETATM    8  C   UNL     1      -8.160  10.706  69.169  1.00  0.00    -0.141 C  
HETATM    9  C   UNL     1      -8.923   9.473  68.670  1.00  0.00    -0.132 C  
HETATM   10  C   UNL     1      -8.207   8.786  67.506  1.00  0.00    -0.110 C  
HETATM   11  C   UNL     1      -6.739   8.441  67.819  1.00  0.00    -0.066 C  
HETATM   12  C   UNL     1      -6.713  10.349  69.525  1.00  0.00    -0.081 C  
HETATM   13  C   UNL     1      -5.983   9.661  68.371  1.00  0.00    -0.043 C  
BRANCH  11  14
HETATM   14  C   UNL     1      -6.605   7.249  68.788  1.00  0.00    -0.048 C  
BRANCH  14  15
HETATM   15  C   UNL     1      -5.864   6.040  68.203  1.00  0.00    -0.016 C  
BRANCH  15  16
HETATM   16  N   UNL     1      -6.042   4.788  68.959  1.00  0.00    -0.028 NA 
HETATM   17  C   UNL     1      -6.160   5.009  70.421  1.00  0.00    -0.018 C  
HETATM   18  C   UNL     1      -7.439   5.757  70.864  1.00  0.00    -0.090 C  
HETATM   19  N   UNL     1      -8.638   5.076  70.330  1.00  0.00    -0.106 NA 
HETATM   20  C   UNL     1      -7.280   4.088  68.514  1.00  0.00    -0.055 C  
HETATM   21  C   UNL     1      -8.586   4.840  68.878  1.00  0.00    -0.084 C  
BRANCH  19  22
HETATM   22  C   UNL     1      -9.660   4.659  71.172  1.00  0.00    -0.171 A  
HETATM   23  C   UNL     1      -9.804   3.364  71.743  1.00  0.00    -0.159 A  
HETATM   24  C   UNL     1     -10.916   3.055  72.561  1.00  0.00     0.347 A  
HETATM   25 CL   UNL     1      -8.569   2.140  71.591  1.00  0.00    -0.083 Cl 
HETATM   26  C   UNL     1     -11.863   4.029  72.878  1.00  0.00     0.379 A  
HETATM   27 CL   UNL     1     -11.182   1.478  73.231  1.00  0.00    -0.260 Cl 
HETATM   28  C   UNL     1     -11.727   5.307  72.367  1.00  0.00    -0.032 A  
HETATM   29  C   UNL     1     -10.662   5.600  71.515  1.00  0.00    -0.306 A  
ENDBRANCH  19  22
ENDBRANCH  15  16
ENDBRANCH  14  15
ENDBRANCH  11  14
ENDBRANCH   6   8
ENDBRANCH   4   6
ENDBRANCH   2   4
TORSDOF 7
ENDMDL
MODEL      195
REMARK 921   NORMALIZED FREE ENERGY PREDICTED BY IDOCK:   -0.45 KCAL/MOL
REMARK 922        TOTAL FREE ENERGY PREDICTED BY IDOCK:   -1.40 KCAL/MOL
REMARK 923 INTER-LIGAND FREE ENERGY PREDICTED BY IDOCK:   -5.47 KCAL/MOL
REMARK 924 INTRA-LIGAND FREE ENERGY PREDICTED BY IDOCK:    4.07 KCAL/MOL
REMARK 927      BINDING AFFINITY PREDICTED BY RF-SCORE:    0.00 PKD
ROOT
HETATM    1  C   UNL     1      -9.953   4.663  74.413  1.00  0.00    -0.194 C  
HETATM    2  N   UNL     1      -9.833   3.285  73.976  1.00  0.00    -0.102 N  
HETATM    3  C   UNL     1     -10.959   2.392  74.196  1.00  0.00    -0.124 C  
ENDROOT
BRANCH   2   4
HETATM    4  C   UNL     1      -8.674   2.947  73.290  1.00  0.00    -0.079 C  
HETATM    5  O   UNL     1      -8.358   1.781  73.062  1.00  0.00    -0.055 OA 
BRANCH   4   6
HETATM    6  N   UNL     1      -7.889   4.001  72.923  1.00  0.00    -0.079 N  
HETATM    7  H   UNL     1      -6.878   3.872  72.879  1.00  0.00     0.000 HD 
BRANCH   6   8
HETATM    8  C   UNL     1      -8.448   5.309  72.593  1.00  0.00    -0.117 C  
HETATM    9  C   UNL     1      -7.515   6.080  71.652  1.00  0.00    -0.094 C  
HETATM   10  C   UNL     1      -7.445   5.444  70.263  1.00  0.00    -0.072 C  
HETATM   11  C   UNL     1      -8.831   5.236  69.623  1.00  0.00    -0.126 C  
HETATM   12  C   UNL     1      -9.840   5.145  71.974  1.00  0.00    -0.221 C  
HETATM   13  C   UNL     1      -9.787   4.510  70.584  1.00  0.00    -0.292 C  
BRANCH  11  14
HETATM   14  C   UNL     1      -9.463   6.556  69.139  1.00  0.00    -0.136 C  
BRANCH  14  15
HETATM   15  C   UNL     1      -8.652   7.810  69.487  1.00  0.00    -0.135 C  
BRANCH  15  16
HETATM   16  N   UNL     1      -8.025   8.474  68.331  1.00  0.00    -0.116 NA 
HETATM   17  C   UNL     1      -8.665   8.116  67.042  1.00  0.00    -0.131 C  
HETATM   18  C   UNL     1     -10.115   8.629  66.873  1.00  0.00    -0.285 C  
HETATM   19  N   UNL     1     -10.170  10.087  67.107  1.00  0.00    -0.215 NA 
HETATM   20  C   UNL     1      -8.114   9.955  68.476  1.00  0.00    -0.101 C  
HETATM   21  C   UNL     1      -9.560  10.505  68.380  1.00  0.00    -0.160 C  
BRANCH  19  22
HETATM   22  C   UNL     1     -10.698  10.947  66.154  1.00  0.00    -0.159 A  
HETATM   23  C   UNL     1     -11.634  11.992  66.389  1.00  0.00    -0.313 A  
HETATM   24  C   UNL     1     -12.122  12.778  65.320  1.00  0.00    -0.457 A  
HETATM   25 CL   UNL     1     -12.120  12.457  68.001  1.00  0.00    -0.244 Cl 
HETATM   26  C   UNL     1     -11.654  12.590  64.021  1.00  0.00    -0.485 A  
HETATM   27 CL   UNL     1     -13.312  14.023  65.535  1.00  0.00    -0.092 Cl 
HETATM   28  C   UNL     1     -10.715  11.605  63.769  1.00  0.00    -0.482 A  
HETATM   29  C   UNL     1     -10.272  10.790  64.811  1.00  0.00    -0.403 A  
ENDBRANCH  19  22
ENDBRANCH  15  16
ENDBRANCH  14  15
ENDBRANCH  11  14
ENDBRANCH   6   8
ENDBRANCH   4   6
ENDBRANCH   2   4
TORSDOF 7
ENDMDL
MODEL      196
REMARK 921   NORMALIZED FREE ENERGY PREDICTED BY IDOCK:   -0.41 KCAL/MOL
REMARK 922        TOTAL FREE ENERGY PREDICTED BY IDOCK:   -1.35 KCAL/MOL
REMARK 923 INTER-LIGAND FREE ENERGY PREDICTED BY IDOCK:   -2.12 KCAL/MOL
REMARK 924 INTRA-LIGAND FREE ENERGY PREDICTED BY IDOCK:    0.77 KCAL/MOL
REMARK 927      BINDING AFFINITY PREDICTED BY RF-SCORE:    0.00 PKD
ROOT
HETATM    1  C   UNL     1     -12.877   8.464  70.421  1.00  0.00     0.933 C  
HETATM    2  N   UNL     1     -11.687   8.023  71.124  1.00  0.00    -0.284 N  
HETATM    3  C   UNL     1     -10.579   8.955  71.254  1.00  0.00    -0.281 C  
ENDROOT
BRANCH   2   4
HETATM    4  C   UNL     1     -11.736   6.762  71.703  1.00  0.00    -0.314 C  
HETATM    5  O   UNL     1     -12.284   6.553  72.783  1.00  0.00     0.113 OA 
BRANCH   4   6
HETATM    6  N   UNL     1     -11.095   5.779  71.006  1.00  0.00    -0.237 N  
HETATM    7  H   UNL     1     -11.650   5.053  70.554  1.00  0.00     0.000 HD 
BRANCH   6   8
HETATM    8  C   UNL     1      -9.641   5.732  70.886  1.00  0.00    -0.168 C  
HETATM    9  C   UNL     1      -9.081   4.453  71.520  1.00  0.00    -0.177 C  
HETATM   10  C   UNL     1      -9.470   3.202  70.730  1.00  0.00    -0.231 C  
HETATM   11  C   UNL     1      -9.099   3.291  69.238  1.00  0.00    -0.200 C  
HETATM   12  C   UNL     1      -9.230   5.841  69.414  1.00  0.00    -0.144 C  
HETATM   13  C   UNL     1      -9.612   4.598  68.611  1.00  0.00    -0.226 C  
BRANCH  11  14
HETATM   14  C   UNL     1      -7.584   3.142  68.994  1.00  0.00    -0.048 C  
BRANCH  14  15
HETATM   15  C   UNL     1      -6.779   4.429  69.214  1.00  0.00    -0.045 C  
BRANCH  15  16
HETATM   16  N   UNL     1      -5.732   4.676  68.207  1.00  0.00    -0.016 NA 
HETATM   17  C   UNL     1      -6.090   4.158  66.864  1.00  0.00    -0.028 C  
HETATM   18  C   UNL     1      -7.273   4.886  66.182  1.00  0.00    -0.077 C  
HETATM   19  N   UNL     1      -7.021   6.342  66.142  1.00  0.00    -0.064 NA 
HETATM   20  C   UNL     1      -5.483   6.138  68.069  1.00  0.00    -0.004 C  
HETATM   21  C   UNL     1      -6.673   6.918  67.452  1.00  0.00    -0.067 C  
BRANCH  19  22
HETATM   22  C   UNL     1      -7.057   7.043  64.945  1.00  0.00    -0.064 A  
HETATM   23  C   UNL     1      -7.375   8.420  64.785  1.00  0.00    -0.088 A  
HETATM   24  C   UNL     1      -7.409   9.009  63.499  1.00  0.00    -0.097 A  
HETATM   25 CL   UNL     1      -7.597   9.486  66.150  1.00  0.00    -0.099 Cl 
HETATM   26  C   UNL     1      -7.073   8.270  62.365  1.00  0.00    -0.090 A  
HETATM   27 CL   UNL     1      -7.854  10.664  63.234  1.00  0.00    -0.036 Cl 
HETATM   28  C   UNL     1      -6.723   6.939  62.495  1.00  0.00    -0.047 A  
HETATM   29  C   UNL     1      -6.741   6.340  63.755  1.00  0.00    -0.037 A  
ENDBRANCH  19  22
ENDBRANCH  15  16
ENDBRANCH  14  15
ENDBRANCH  11  14
ENDBRANCH   6   8
ENDBRANCH   4   6
ENDBRANCH   2   4
TORSDOF 7
ENDMDL
MODEL      197
REMARK 921   NORMALIZED FREE ENERGY PREDICTED BY IDOCK:   -0.34 KCAL/MOL
REMARK 922        TOTAL FREE ENERGY PREDICTED BY IDOCK:   -1.26 KCAL/MOL
REMARK 923 INTER-LIGAND FREE ENERGY PREDICTED BY IDOCK:   -1.93 KCAL/MOL
REMARK 924 INTRA-LIGAND FREE ENERGY PREDICTED BY IDOCK:    0.67 KCAL/MOL
REMARK 927      BINDING AFFINITY PREDICTED BY RF-SCORE:    0.00 PKD
ROOT
HETATM    1  C   UNL     1     -13.650  14.555  64.639  1.00  0.00     2.074 C  
HETATM    2  N   UNL     1     -12.784  13.416  64.875  1.00  0.00    -0.351 N  
HETATM    3  C   UNL     1     -13.035  12.194  64.129  1.00  0.00    -0.137 C  
ENDROOT
BRANCH   2   4
HETATM    4  C   UNL     1     -11.714  13.614  65.739  1.00  0.00    -0.348 C  
HETATM    5  O   UNL     1     -10.757  14.329  65.450  1.00  0.00    -0.306 OA 
BRANCH   4   6
HETATM    6  N   UNL     1     -11.782  12.923  66.914  1.00  0.00    -0.366 N  
HETATM    7  H   UNL     1     -12.253  13.351  67.711  1.00  0.00     0.000 HD 
BRANCH   6   8
HETATM    8  C   UNL     1     -11.205  11.591  67.068  1.00  0.00    -0.300 C  
HETATM    9  C   UNL     1      -9.974  11.421  66.169  1.00  0.00    -0.265 C  
HETATM   10  C   UNL     1      -8.803  12.292  66.627  1.00  0.00    -0.167 C  
HETATM   11  C   UNL     1      -8.440  12.085  68.109  1.00  0.00    -0.171 C  
HETATM   12  C   UNL     1     -10.851  11.338  68.537  1.00  0.00    -0.245 C  
HETATM   13  C   UNL     1      -9.681  12.201  69.010  1.00  0.00     0.232 C  
BRANCH  11  14
HETATM   14  C   UNL     1      -7.723  10.745  68.362  1.00  0.00    -0.113 C  
BRANCH  14  15
HETATM   15  C   UNL     1      -7.277  10.529  69.813  1.00  0.00    -0.149 C  
BRANCH  15  16
HETATM   16  N   UNL     1      -7.833   9.323  70.452  1.00  0.00    -0.131 NA 
HETATM   17  C   UNL     1      -8.895   8.679  69.642  1.00  0.00    -0.137 C  
HETATM   18  C   UNL     1      -8.409   8.059  68.310  1.00  0.00    -0.123 C  
HETATM   19  N   UNL     1      -7.291   7.126  68.561  1.00  0.00    -0.097 NA 
HETATM   20  C   UNL     1      -6.761   8.312  70.666  1.00  0.00    -0.037 C  
HETATM   21  C   UNL     1      -6.196   7.714  69.352  1.00  0.00    -0.034 C  
BRANCH  19  22
HETATM   22  C   UNL     1      -7.345   5.808  68.127  1.00  0.00    -0.077 A  
HETATM   23  C   UNL     1      -8.225   4.799  68.606  1.00  0.00    -0.083 A  
HETATM   24  C   UNL     1      -8.155   3.480  68.102  1.00  0.00    -0.078 A  
HETATM   25 CL   UNL     1      -9.520   5.152  69.723  1.00  0.00    -0.192 Cl 
HETATM   26  C   UNL     1      -7.265   3.152  67.080  1.00  0.00    -0.058 A  
HETATM   27 CL   UNL     1      -9.156   2.192  68.693  1.00  0.00    -0.182 Cl 
HETATM   28  C   UNL     1      -6.423   4.123  66.568  1.00  0.00    -0.037 A  
HETATM   29  C   UNL     1      -6.450   5.411  67.101  1.00  0.00    -0.048 A  
ENDBRANCH  19  22
ENDBRANCH  15  16
ENDBRANCH  14  15
ENDBRANCH  11  14
ENDBRANCH   6   8
ENDBRANCH   4   6
ENDBRANCH   2   4
TORSDOF 7
ENDMDL
MODEL      198
REMARK 921   NORMALIZED FREE ENERGY PREDICTED BY IDOCK:   -0.32 KCAL/MOL
REMARK 922        TOTAL FREE ENERGY PREDICTED BY IDOCK:   -1.23 KCAL/MOL
REMARK 923 INTER-LIGAND FREE ENERGY PREDICTED BY IDOCK:   -1.98 KCAL/MOL
REMARK 924 INTRA-LIGAND FREE ENERGY PREDICTED BY IDOCK:    0.75 KCAL/MOL
REMARK 927      BINDING AFFINITY PREDICTED BY RF-SCORE:    0.00 PKD
ROOT
HETATM    1  C   UNL     1      -7.876  11.769  66.037  1.00  0.00     0.429 C  
HETATM    2  N   UNL     1      -8.668  12.745  66.762  1.00  0.00    -0.168 N  
HETATM    3  C   UNL     1      -9.815  13.335  66.092  1.00  0.00    -0.280 C  
ENDROOT
BRANCH   2   4
HETATM    4  C   UNL     1      -8.318  12.971  68.086  1.00  0.00    -0.164 C  
HETATM    5  O   UNL     1      -8.923  13.767  68.802  1.00  0.00    -0.096 OA 
BRANCH   4   6
HETATM    6  N   UNL     1      -7.228  12.277  68.525  1.00  0.00    -0.098 N  
HETATM    7  H   UNL     1      -6.322  12.456  68.089  1.00  0.00     0.000 HD 
BRANCH   6   8
HETATM    8  C   UNL     1      -7.314  11.288  69.594  1.00  0.00     0.104 C  
HETATM    9  C   UNL     1      -8.236  10.130  69.196  1.00  0.00    -0.145 C  
HETATM   10  C   UNL     1      -7.640   9.280  68.072  1.00  0.00    -0.084 C  
HETATM   11  C   UNL     1      -6.219   8.775  68.387  1.00  0.00    -0.054 C  
HETATM   12  C   UNL     1      -5.914  10.777  69.952  1.00  0.00    -0.082 C  
HETATM   13  C   UNL     1      -5.304   9.925  68.839  1.00  0.00    -0.036 C  
BRANCH  11  14
HETATM   14  C   UNL     1      -6.211   7.645  69.435  1.00  0.00    -0.034 C  
BRANCH  14  15
HETATM   15  C   UNL     1      -5.580   6.335  68.947  1.00  0.00    -0.015 C  
BRANCH  15  16
HETATM   16  N   UNL     1      -6.032   5.132  69.668  1.00  0.00    -0.020 NA 
HETATM   17  C   UNL     1      -6.220   5.367  71.120  1.00  0.00    -0.033 C  
HETATM   18  C   UNL     1      -7.379   6.326  71.478  1.00  0.00    -0.088 C  
HETATM   19  N   UNL     1      -8.634   5.867  70.846  1.00  0.00    -0.129 NA 
HETATM   20  C   UNL     1      -7.335   4.660  69.121  1.00  0.00    -0.053 C  
HETATM   21  C   UNL     1      -8.514   5.628  69.398  1.00  0.00    -0.106 C  
BRANCH  19  22
HETATM   22  C   UNL     1      -9.774   5.633  71.602  1.00  0.00    -0.159 A  
HETATM   23  C   UNL     1     -10.970   6.403  71.582  1.00  0.00    -0.257 A  
HETATM   24  C   UNL     1     -12.053   6.078  72.432  1.00  0.00    -0.115 A  
HETATM   25 CL   UNL     1     -11.228   7.687  70.428  1.00  0.00    -0.274 Cl 
HETATM   26  C   UNL     1     -11.999   4.960  73.264  1.00  0.00     0.110 A  
HETATM   27 CL   UNL     1     -13.510   7.017  72.501  1.00  0.00     0.381 Cl 
HETATM   28  C   UNL     1     -10.863   4.171  73.275  1.00  0.00    -0.315 A  
HETATM   29  C   UNL     1      -9.771   4.520  72.480  1.00  0.00    -0.200 A  
ENDBRANCH  19  22
ENDBRANCH  15  16
ENDBRANCH  14  15
ENDBRANCH  11  14
ENDBRANCH   6   8
ENDBRANCH   4   6
ENDBRANCH   2   4
TORSDOF 7
ENDMDL
MODEL      199
REMARK 921   NORMALIZED FREE ENERGY PREDICTED BY IDOCK:   -0.14 KCAL/MOL
REMARK 922        TOTAL FREE ENERGY PREDICTED BY IDOCK:   -0.96 KCAL/MOL
REMARK 923 INTER-LIGAND FREE ENERGY PREDICTED BY IDOCK:   -4.62 KCAL/MOL
REMARK 924 INTRA-LIGAND FREE ENERGY PREDICTED BY IDOCK:    3.66 KCAL/MOL
REMARK 927      BINDING AFFINITY PREDICTED BY RF-SCORE:    0.00 PKD
ROOT
HETATM    1  C   UNL     1     -12.243  12.484  65.815  1.00  0.00    -0.292 C  
HETATM    2  N   UNL     1     -11.259  13.295  65.125  1.00  0.00    -0.297 N  
HETATM    3  C   UNL     1     -11.098  13.112  63.692  1.00  0.00    -0.132 C  
ENDROOT
BRANCH   2   4
HETATM    4  C   UNL     1     -10.605  14.260  65.880  1.00  0.00    -0.302 C  
HETATM    5  O   UNL     1     -11.189  15.226  66.367  1.00  0.00    -0.315 OA 
BRANCH   4   6
HETATM    6  N   UNL     1      -9.258  14.080  66.009  1.00  0.00    -0.503 N  
HETATM    7  H   UNL     1      -8.654  14.294  65.215  1.00  0.00     0.000 HD 
BRANCH   6   8
HETATM    8  C   UNL     1      -8.653  13.591  67.244  1.00  0.00    -0.213 C  
HETATM    9  C   UNL     1      -9.717  13.375  68.326  1.00  0.00    -0.226 C  
HETATM   10  C   UNL     1     -10.652  12.211  67.990  1.00  0.00    -0.232 C  
HETATM   11  C   UNL     1      -9.899  10.903  67.681  1.00  0.00    -0.192 C  
HETATM   12  C   UNL     1      -7.874  12.299  66.974  1.00  0.00    -0.108 C  
HETATM   13  C   UNL     1      -8.794  11.126  66.636  1.00  0.00    -0.168 C  
BRANCH  11  14
HETATM   14  C   UNL     1      -9.311  10.246  68.946  1.00  0.00    -0.180 C  
BRANCH  14  15
HETATM   15  C   UNL     1     -10.359   9.668  69.905  1.00  0.00    -0.249 C  
BRANCH  15  16
HETATM   16  N   UNL     1     -10.535   8.208  69.812  1.00  0.00    -0.224 NA 
HETATM   17  C   UNL     1     -11.064   7.773  68.496  1.00  0.00     0.328 C  
HETATM   18  C   UNL     1     -10.099   7.988  67.306  1.00  0.00    -0.240 C  
HETATM   19  N   UNL     1      -8.792   7.359  67.589  1.00  0.00    -0.128 NA 
HETATM   20  C   UNL     1      -9.231   7.518  70.018  1.00  0.00    -0.151 C  
HETATM   21  C   UNL     1      -8.208   7.763  68.879  1.00  0.00    -0.127 C  
BRANCH  19  22
HETATM   22  C   UNL     1      -8.241   6.429  66.718  1.00  0.00    -0.110 A  
HETATM   23  C   UNL     1      -7.802   5.118  67.054  1.00  0.00    -0.096 A  
HETATM   24  C   UNL     1      -7.223   4.278  66.075  1.00  0.00    -0.072 A  
HETATM   25 CL   UNL     1      -8.076   4.424  68.632  1.00  0.00    -0.077 Cl 
HETATM   26  C   UNL     1      -7.126   4.689  64.746  1.00  0.00    -0.062 A  
HETATM   27 CL   UNL     1      -6.610   2.696  66.436  1.00  0.00    -0.035 Cl 
HETATM   28  C   UNL     1      -7.580   5.944  64.384  1.00  0.00    -0.087 A  
HETATM   29  C   UNL     1      -8.100   6.798  65.357  1.00  0.00    -0.129 A  
ENDBRANCH  19  22
ENDBRANCH  15  16
ENDBRANCH  14  15
ENDBRANCH  11  14
ENDBRANCH   6   8
ENDBRANCH   4   6
ENDBRANCH   2   4
TORSDOF 7
ENDMDL
MODEL      200
REMARK 921   NORMALIZED FREE ENERGY PREDICTED BY IDOCK:   -0.01 KCAL/MOL
REMARK 922        TOTAL FREE ENERGY PREDICTED BY IDOCK:   -0.79 KCAL/MOL
REMARK 923 INTER-LIGAND FREE ENERGY PREDICTED BY IDOCK:   -1.55 KCAL/MOL
REMARK 924 INTRA-LIGAND FREE ENERGY PREDICTED BY IDOCK:    0.76 KCAL/MOL
REMARK 927      BINDING AFFINITY PREDICTED BY RF-SCORE:    0.00 PKD
ROOT
HETATM    1  C   UNL     1      -9.540  17.751  68.164  1.00  0.00    -0.303 C  
HETATM    2  N   UNL     1      -9.412  16.537  67.380  1.00  0.00    -0.226 N  
HETATM    3  C   UNL     1      -9.839  16.566  65.991  1.00  0.00    -0.322 C  
ENDROOT
BRANCH   2   4
HETATM    4  C   UNL     1      -8.800  15.456  68.000  1.00  0.00    -0.165 C  
HETATM    5  O   UNL     1      -9.298  14.878  68.964  1.00  0.00    -0.197 OA 
BRANCH   4   6
HETATM    6  N   UNL     1      -7.584  15.107  67.487  1.00  0.00    -0.175 N  
HETATM    7  H   UNL     1      -6.757  15.625  67.784  1.00  0.00     0.000 HD 
BRANCH   6   8
HETATM    8  C   UNL     1      -7.427  14.018  66.528  1.00  0.00     1.677 C  
HETATM    9  C   UNL     1      -6.471  12.948  67.067  1.00  0.00     0.355 C  
HETATM   10  C   UNL     1      -7.064  12.193  68.258  1.00  0.00    -0.084 C  
HETATM   11  C   UNL     1      -8.454  11.597  67.963  1.00  0.00    -0.151 C  
HETATM   12  C   UNL     1      -8.794  13.413  66.191  1.00  0.00     0.367 C  
HETATM   13  C   UNL     1      -9.401  12.654  67.372  1.00  0.00    -0.189 C  
BRANCH  11  14
HETATM   14  C   UNL     1      -8.386  10.366  67.039  1.00  0.00    -0.127 C  
BRANCH  14  15
HETATM   15  C   UNL     1      -9.472   9.315  67.304  1.00  0.00    -0.144 C  
BRANCH  15  16
HETATM   16  N   UNL     1      -9.637   8.950  68.722  1.00  0.00    -0.155 NA 
HETATM   17  C   UNL     1     -10.728   7.970  68.941  1.00  0.00    -0.065 C  
HETATM   18  C   UNL     1     -10.469   6.566  68.347  1.00  0.00    -0.218 C  
HETATM   19  N   UNL     1      -9.175   6.039  68.829  1.00  0.00    -0.123 NA 
HETATM   20  C   UNL     1      -8.382   8.344  69.248  1.00  0.00    -0.121 C  
HETATM   21  C   UNL     1      -8.047   6.964  68.626  1.00  0.00    -0.121 C  
BRANCH  19  22
HETATM   22  C   UNL     1      -9.095   4.809  69.468  1.00  0.00    -0.103 A  
HETATM   23  C   UNL     1      -8.970   4.594  70.868  1.00  0.00    -0.120 A  
HETATM   24  C   UNL     1      -8.862   3.284  71.391  1.00  0.00    -0.085 A  
HETATM   25 CL   UNL     1      -9.084   5.900  72.021  1.00  0.00    -0.144 Cl 
HETATM   26  C   UNL     1      -8.938   2.171  70.555  1.00  0.00    -0.150 A  
HETATM   27 CL   UNL     1      -8.642   2.961  73.081  1.00  0.00    -0.079 Cl 
HETATM   28  C   UNL     1      -9.098   2.350  69.192  1.00  0.00    -0.186 A  
HETATM   29  C   UNL     1      -9.148   3.641  68.666  1.00  0.00    -0.199 A  
ENDBRANCH  19  22
ENDBRANCH  15  16
ENDBRANCH  14  15
ENDBRANCH  11  14
ENDBRANCH   6   8
ENDBRANCH   4   6
ENDBRANCH   2   4
TORSDOF 7
ENDMDL
MODEL      201
REMARK 921   NORMALIZED FREE ENERGY PREDICTED BY IDOCK:    0.09 KCAL/MOL
REMARK 922        TOTAL FREE ENERGY PREDICTED BY IDOCK:   -0.64 KCAL/MOL
REMARK 923 INTER-LIGAND FREE ENERGY PREDICTED BY IDOCK:   -4.49 KCAL/MOL
REMARK 924 INTRA-LIGAND FREE ENERGY PREDICTED BY IDOCK:    3.84 KCAL/MOL
REMARK 927      BINDING AFFINITY PREDICTED BY RF-SCORE:    0.00 PKD
ROOT
HETATM    1  C   UNL     1     -11.093   6.345  71.979  1.00  0.00    -0.265 C  
HETATM    2  N   UNL     1     -10.188   5.235  72.211  1.00  0.00    -0.193 N  
HETATM    3  C   UNL     1     -10.261   4.542  73.487  1.00  0.00    -0.172 C  
ENDROOT
BRANCH   2   4
HETATM    4  C   UNL     1      -9.377   4.859  71.149  1.00  0.00    -0.150 C  
HETATM    5  O   UNL     1      -8.149   4.903  71.207  1.00  0.00    -0.100 OA 
BRANCH   4   6
HETATM    6  N   UNL     1     -10.041   4.476  70.020  1.00  0.00    -0.207 N  
HETATM    7  H   UNL     1     -10.801   3.800  70.100  1.00  0.00     0.000 HD 
BRANCH   6   8
HETATM    8  C   UNL     1      -9.701   5.001  68.701  1.00  0.00    -0.158 C  
HETATM    9  C   UNL     1      -9.568   6.528  68.738  1.00  0.00    -0.126 C  
HETATM   10  C   UNL     1      -8.350   6.980  69.545  1.00  0.00    -0.133 C  
HETATM   11  C   UNL     1      -7.038   6.320  69.079  1.00  0.00    -0.081 C  
HETATM   12  C   UNL     1      -8.411   4.350  68.191  1.00  0.00    -0.100 C  
HETATM   13  C   UNL     1      -7.183   4.791  68.988  1.00  0.00    -0.053 C  
BRANCH  11  14
HETATM   14  C   UNL     1      -6.535   6.888  67.737  1.00  0.00    -0.050 C  
BRANCH  14  15
HETATM   15  C   UNL     1      -6.699   8.405  67.591  1.00  0.00    -0.066 C  
BRANCH  15  16
HETATM   16  N   UNL     1      -7.674   8.820  66.567  1.00  0.00    -0.098 NA 
HETATM   17  C   UNL     1      -8.949   9.307  67.148  1.00  0.00    -0.126 C  
HETATM   18  C   UNL     1      -8.837  10.630  67.942  1.00  0.00    -0.131 C  
HETATM   19  N   UNL     1      -8.199  11.672  67.109  1.00  0.00    -0.158 NA 
HETATM   20  C   UNL     1      -7.112   9.923  65.737  1.00  0.00    -0.110 C  
HETATM   21  C   UNL     1      -6.920  11.251  66.514  1.00  0.00    -0.100 C  
BRANCH  19  22
HETATM   22  C   UNL     1      -8.822  12.892  66.886  1.00  0.00    -0.187 A  
HETATM   23  C   UNL     1     -10.199  13.093  66.591  1.00  0.00    -0.259 A  
HETATM   24  C   UNL     1     -10.704  14.392  66.350  1.00  0.00    -0.306 A  
HETATM   25 CL   UNL     1     -11.360  11.790  66.648  1.00  0.00    -0.392 Cl 
HETATM   26  C   UNL     1      -9.879  15.511  66.457  1.00  0.00    -0.281 A  
HETATM   27 CL   UNL     1     -12.357  14.694  65.921  1.00  0.00    -0.202 Cl 
HETATM   28  C   UNL     1      -8.544  15.348  66.781  1.00  0.00    -0.308 A  
HETATM   29  C   UNL     1      -8.029  14.064  66.964  1.00  0.00     0.028 A  
ENDBRANCH  19  22
ENDBRANCH  15  16
ENDBRANCH  14  15
ENDBRANCH  11  14
ENDBRANCH   6   8
ENDBRANCH   4   6
ENDBRANCH   2   4
TORSDOF 7
ENDMDL
MODEL      202
REMARK 921   NORMALIZED FREE ENERGY PREDICTED BY IDOCK:    0.80 KCAL/MOL
REMARK 922        TOTAL FREE ENERGY PREDICTED BY IDOCK:    0.35 KCAL/MOL
REMARK 923 INTER-LIGAND FREE ENERGY PREDICTED BY IDOCK:   -2.50 KCAL/MOL
REMARK 924 INTRA-LIGAND FREE ENERGY PREDICTED BY IDOCK:    2.85 KCAL/MOL
REMARK 927      BINDING AFFINITY PREDICTED BY RF-SCORE:    0.00 PKD
ROOT
HETATM    1  C   UNL     1     -12.515  13.728  63.228  1.00  0.00     0.284 C  
HETATM    2  N   UNL     1     -12.225  12.307  63.267  1.00  0.00    -0.489 N  
HETATM    3  C   UNL     1     -13.317  11.375  63.041  1.00  0.00     1.676 C  
ENDROOT
BRANCH   2   4
HETATM    4  C   UNL     1     -10.894  11.946  63.427  1.00  0.00    -0.399 C  
HETATM    5  O   UNL     1     -10.302  11.232  62.621  1.00  0.00    -0.041 OA 
BRANCH   4   6
HETATM    6  N   UNL     1     -10.302  12.408  64.567  1.00  0.00    -0.313 N  
HETATM    7  H   UNL     1      -9.827  13.311  64.545  1.00  0.00     0.000 HD 
BRANCH   6   8
HETATM    8  C   UNL     1     -10.324  11.654  65.816  1.00  0.00    -0.249 C  
HETATM    9  C   UNL     1      -9.111  10.721  65.914  1.00  0.00    -0.208 C  
HETATM   10  C   UNL     1      -7.802  11.496  66.076  1.00  0.00     0.216 C  
HETATM   11  C   UNL     1      -7.832  12.494  67.249  1.00  0.00    -0.160 C  
HETATM   12  C   UNL     1     -10.378  12.613  67.010  1.00  0.00    -0.241 C  
HETATM   13  C   UNL     1      -9.076  13.396  67.185  1.00  0.00    -0.235 C  
BRANCH  11  14
HETATM   14  C   UNL     1      -7.750  11.797  68.621  1.00  0.00    -0.126 C  
BRANCH  14  15
HETATM   15  C   UNL     1      -7.012  12.603  69.697  1.00  0.00     0.275 C  
BRANCH  15  16
HETATM   16  N   UNL     1      -5.789  13.277  69.226  1.00  0.00    -0.083 NA 
HETATM   17  C   UNL     1      -5.969  13.948  67.916  1.00  0.00    -0.138 C  
HETATM   18  C   UNL     1      -6.934  15.157  67.933  1.00  0.00    -0.151 C  
HETATM   19  N   UNL     1      -6.523  16.123  68.975  1.00  0.00    -0.144 NA 
HETATM   20  C   UNL     1      -5.364  14.317  70.205  1.00  0.00    -0.104 C  
HETATM   21  C   UNL     1      -6.341  15.516  70.304  1.00  0.00    -0.004 C  
BRANCH  19  22
HETATM   22  C   UNL     1      -6.280  17.453  68.663  1.00  0.00    -0.175 A  
HETATM   23  C   UNL     1      -6.585  18.099  67.432  1.00  0.00    -0.185 A  
HETATM   24  C   UNL     1      -6.253  19.458  67.228  1.00  0.00    -0.186 A  
HETATM   25 CL   UNL     1      -7.500  17.310  66.173  1.00  0.00    -0.347 Cl 
HETATM   26  C   UNL     1      -5.676  20.214  68.248  1.00  0.00    -0.264 A  
HETATM   27 CL   UNL     1      -6.539  20.282  65.729  1.00  0.00    -0.258 Cl 
HETATM   28  C   UNL     1      -5.404  19.622  69.468  1.00  0.00    -0.219 A  
HETATM   29  C   UNL     1      -5.679  18.267  69.655  1.00  0.00    -0.234 A  
ENDBRANCH  19  22
ENDBRANCH  15  16
ENDBRANCH  14  15
ENDBRANCH  11  14
ENDBRANCH   6   8
ENDBRANCH   4   6
ENDBRANCH   2   4
TORSDOF 7
ENDMDL
MODEL      203
REMARK 921   NORMALIZED FREE ENERGY PREDICTED BY IDOCK:    1.27 KCAL/MOL
REMARK 922        TOTAL FREE ENERGY PREDICTED BY IDOCK:    1.02 KCAL/MOL
REMARK 923 INTER-LIGAND FREE ENERGY PREDICTED BY IDOCK:   -2.83 KCAL/MOL
REMARK 924 INTRA-LIGAND FREE ENERGY PREDICTED BY IDOCK:    3.86 KCAL/MOL
REMARK 927      BINDING AFFINITY PREDICTED BY RF-SCORE:    0.00 PKD
ROOT
HETATM    1  C   UNL     1     -11.264  10.763  66.897  1.00  0.00    -0.032 C  
HETATM    2  N   UNL     1     -10.845  12.130  67.140  1.00  0.00    -0.235 N  
HETATM    3  C   UNL     1     -11.483  13.192  66.379  1.00  0.00    -0.334 C  
ENDROOT
BRANCH   2   4
HETATM    4  C   UNL     1      -9.923  12.329  68.160  1.00  0.00    -0.210 C  
HETATM    5  O   UNL     1      -8.979  13.108  68.053  1.00  0.00    -0.181 OA 
BRANCH   4   6
HETATM    6  N   UNL     1     -10.117  11.564  69.273  1.00  0.00    -0.423 N  
HETATM    7  H   UNL     1     -10.330  12.026  70.158  1.00  0.00     0.000 HD 
BRANCH   6   8
HETATM    8  C   UNL     1     -10.031  10.107  69.241  1.00  0.00    -0.219 C  
HETATM    9  C   UNL     1      -9.270   9.578  70.462  1.00  0.00    -0.284 C  
HETATM   10  C   UNL     1     -10.050   9.786  71.762  1.00  0.00     1.146 C  
HETATM   11  C   UNL     1     -11.478   9.213  71.707  1.00  0.00    -0.452 C  
HETATM   12  C   UNL     1     -11.435   9.499  69.164  1.00  0.00     0.200 C  
HETATM   13  C   UNL     1     -12.228   9.699  70.455  1.00  0.00    -0.065 C  
BRANCH  11  14
HETATM   14  C   UNL     1     -11.501   7.674  71.777  1.00  0.00    -0.302 C  
BRANCH  14  15
HETATM   15  C   UNL     1     -10.892   7.090  73.058  1.00  0.00    -0.309 C  
BRANCH  15  16
HETATM   16  N   UNL     1      -9.422   6.985  73.045  1.00  0.00    -0.144 NA 
HETATM   17  C   UNL     1      -8.926   5.744  73.686  1.00  0.00    -0.127 C  
HETATM   18  C   UNL     1      -9.279   4.439  72.934  1.00  0.00    -0.119 C  
HETATM   19  N   UNL     1      -8.835   4.525  71.527  1.00  0.00    -0.117 NA 
HETATM   20  C   UNL     1      -8.917   6.995  71.643  1.00  0.00    -0.134 C  
HETATM   21  C   UNL     1      -9.308   5.734  70.831  1.00  0.00    -0.160 C  
BRANCH  19  22
HETATM   22  C   UNL     1      -7.996   3.565  70.980  1.00  0.00    -0.058 A  
HETATM   23  C   UNL     1      -7.639   3.441  69.609  1.00  0.00    -0.044 A  
HETATM   24  C   UNL     1      -6.798   2.391  69.173  1.00  0.00    -0.033 A  
HETATM   25 CL   UNL     1      -8.092   4.637  68.421  1.00  0.00    -0.083 Cl 
HETATM   26  C   UNL     1      -6.248   1.490  70.084  1.00  0.00    -0.024 A  
HETATM   27 CL   UNL     1      -6.381   2.149  67.507  1.00  0.00    -0.024 Cl 
HETATM   28  C   UNL     1      -6.547   1.610  71.430  1.00  0.00    -0.019 A  
HETATM   29  C   UNL     1      -7.421   2.610  71.856  1.00  0.00    -0.044 A  
ENDBRANCH  19  22
ENDBRANCH  15  16
ENDBRANCH  14  15
ENDBRANCH  11  14
ENDBRANCH   6   8
ENDBRANCH   4   6
ENDBRANCH   2   4
TORSDOF 7
ENDMDL
MODEL      204
REMARK 921   NORMALIZED FREE ENERGY PREDICTED BY IDOCK:    1.43 KCAL/MOL
REMARK 922        TOTAL FREE ENERGY PREDICTED BY IDOCK:    1.25 KCAL/MOL
REMARK 923 INTER-LIGAND FREE ENERGY PREDICTED BY IDOCK:   -0.79 KCAL/MOL
REMARK 924 INTRA-LIGAND FREE ENERGY PREDICTED BY IDOCK:    2.03 KCAL/MOL
REMARK 927      BINDING AFFINITY PREDICTED BY RF-SCORE:    0.00 PKD
ROOT
HETATM    1  C   UNL     1     -11.348   5.043  69.904  1.00  0.00     2.161 C  
HETATM    2  N   UNL     1     -11.102   6.388  69.418  1.00  0.00    -0.360 N  
HETATM    3  C   UNL     1     -11.458   6.699  68.043  1.00  0.00     0.265 C  
ENDROOT
BRANCH   2   4
HETATM    4  C   UNL     1     -10.627   7.308  70.343  1.00  0.00    -0.226 C  
HETATM    5  O   UNL     1      -9.805   7.011  71.208  1.00  0.00    -0.176 OA 
BRANCH   4   6
HETATM    6  N   UNL     1     -11.169   8.557  70.250  1.00  0.00    -0.372 N  
HETATM    7  H   UNL     1     -12.180   8.664  70.343  1.00  0.00     0.000 HD 
BRANCH   6   8
HETATM    8  C   UNL     1     -10.353   9.745  70.019  1.00  0.00    -0.263 C  
HETATM    9  C   UNL     1     -10.548  10.274  68.593  1.00  0.00    -0.232 C  
HETATM   10  C   UNL     1     -11.949  10.848  68.379  1.00  0.00    -0.081 C  
HETATM   11  C   UNL     1     -12.331  11.914  69.424  1.00  0.00    -0.056 C  
HETATM   12  C   UNL     1     -10.688  10.823  71.055  1.00  0.00     1.368 C  
HETATM   13  C   UNL     1     -12.086  11.407  70.855  1.00  0.00    -0.383 C  
BRANCH  11  14
HETATM   14  C   UNL     1     -11.598  13.251  69.200  1.00  0.00    -0.370 C  
BRANCH  14  15
HETATM   15  C   UNL     1     -12.272  14.179  68.182  1.00  0.00    -0.144 C  
BRANCH  15  16
HETATM   16  N   UNL     1     -11.391  14.636  67.092  1.00  0.00    -0.345 NA 
HETATM   17  C   UNL     1      -9.955  14.614  67.464  1.00  0.00    -0.223 C  
HETATM   18  C   UNL     1      -9.365  13.203  67.692  1.00  0.00    -0.205 C  
HETATM   19  N   UNL     1      -9.623  12.346  66.515  1.00  0.00    -0.236 NA 
HETATM   20  C   UNL     1     -11.555  13.762  65.896  1.00  0.00    -0.333 C  
HETATM   21  C   UNL     1     -11.038  12.316  66.105  1.00  0.00    -0.311 C  
BRANCH  19  22
HETATM   22  C   UNL     1      -8.586  11.703  65.854  1.00  0.00     0.065 A  
HETATM   23  C   UNL     1      -8.650  11.110  64.563  1.00  0.00     0.240 A  
HETATM   24  C   UNL     1      -7.524  10.452  64.014  1.00  0.00    -0.002 A  
HETATM   25 CL   UNL     1     -10.050  11.276  63.534  1.00  0.00    -0.396 Cl 
HETATM   26  C   UNL     1      -6.309  10.424  64.697  1.00  0.00    -0.066 A  
HETATM   27 CL   UNL     1      -7.560   9.653  62.475  1.00  0.00    -0.113 Cl 
HETATM   28  C   UNL     1      -6.207  11.027  65.938  1.00  0.00    -0.037 A  
HETATM   29  C   UNL     1      -7.330  11.627  66.508  1.00  0.00     0.044 A  
ENDBRANCH  19  22
ENDBRANCH  15  16
ENDBRANCH  14  15
ENDBRANCH  11  14
ENDBRANCH   6   8
ENDBRANCH   4   6
ENDBRANCH   2   4
TORSDOF 7
ENDMDL
MODEL      205
REMARK 921   NORMALIZED FREE ENERGY PREDICTED BY IDOCK:    1.93 KCAL/MOL
REMARK 922        TOTAL FREE ENERGY PREDICTED BY IDOCK:    1.94 KCAL/MOL
REMARK 923 INTER-LIGAND FREE ENERGY PREDICTED BY IDOCK:   -2.94 KCAL/MOL
REMARK 924 INTRA-LIGAND FREE ENERGY PREDICTED BY IDOCK:    4.88 KCAL/MOL
REMARK 927      BINDING AFFINITY PREDICTED BY RF-SCORE:    0.00 PKD
ROOT
HETATM    1  C   UNL     1      -6.414  10.280  68.389  1.00  0.00    -0.048 C  
HETATM    2  N   UNL     1      -5.827  10.029  67.086  1.00  0.00    -0.050 N  
HETATM    3  C   UNL     1      -5.620  11.159  66.195  1.00  0.00    -0.141 C  
ENDROOT
BRANCH   2   4
HETATM    4  C   UNL     1      -5.420   8.727  66.825  1.00  0.00    -0.040 C  
HETATM    5  O   UNL     1      -5.131   7.935  67.719  1.00  0.00    -0.029 OA 
BRANCH   4   6
HETATM    6  N   UNL     1      -5.326   8.404  65.503  1.00  0.00    -0.035 N  
HETATM    7  H   UNL     1      -4.477   8.653  64.994  1.00  0.00     0.000 HD 
BRANCH   6   8
HETATM    8  C   UNL     1      -6.398   7.716  64.791  1.00  0.00    -0.044 C  
HETATM    9  C   UNL     1      -5.857   6.497  64.034  1.00  0.00    -0.030 C  
HETATM   10  C   UNL     1      -5.391   5.391  64.983  1.00  0.00    -0.013 C  
HETATM   11  C   UNL     1      -6.468   4.977  66.004  1.00  0.00    -0.040 C  
HETATM   12  C   UNL     1      -7.502   7.307  65.772  1.00  0.00    -0.084 C  
HETATM   13  C   UNL     1      -7.053   6.202  66.727  1.00  0.00    -0.073 C  
BRANCH  11  14
HETATM   14  C   UNL     1      -7.599   4.146  65.367  1.00  0.00    -0.085 C  
BRANCH  14  15
HETATM   15  C   UNL     1      -7.901   2.829  66.092  1.00  0.00    -0.081 C  
BRANCH  15  16
HETATM   16  N   UNL     1      -7.350   2.740  67.455  1.00  0.00    -0.057 NA 
HETATM   17  C   UNL     1      -7.177   4.066  68.095  1.00  0.00    -0.059 C  
HETATM   18  C   UNL     1      -8.495   4.815  68.404  1.00  0.00    -0.094 C  
HETATM   19  N   UNL     1      -9.397   3.954  69.198  1.00  0.00    -0.158 NA 
HETATM   20  C   UNL     1      -8.256   1.939  68.327  1.00  0.00    -0.057 C  
HETATM   21  C   UNL     1      -9.618   2.624  68.605  1.00  0.00    -0.012 C  
BRANCH  19  22
HETATM   22  C   UNL     1      -9.907   4.381  70.416  1.00  0.00    -0.216 A  
HETATM   23  C   UNL     1      -9.624   3.819  71.692  1.00  0.00    -0.157 A  
HETATM   24  C   UNL     1     -10.240   4.328  72.858  1.00  0.00    -0.167 A  
HETATM   25 CL   UNL     1      -8.411   2.582  71.912  1.00  0.00    -0.067 Cl 
HETATM   26  C   UNL     1     -11.090   5.431  72.795  1.00  0.00    -0.349 A  
HETATM   27 CL   UNL     1      -9.985   3.643  74.432  1.00  0.00    -0.170 Cl 
HETATM   28  C   UNL     1     -11.354   6.022  71.572  1.00  0.00    -0.309 A  
HETATM   29  C   UNL     1     -10.792   5.488  70.412  1.00  0.00    -0.274 A  
ENDBRANCH  19  22
ENDBRANCH  15  16
ENDBRANCH  14  15
ENDBRANCH  11  14
ENDBRANCH   6   8
ENDBRANCH   4   6
ENDBRANCH   2   4
TORSDOF 7
ENDMDL
MODEL      206
REMARK 921   NORMALIZED FREE ENERGY PREDICTED BY IDOCK:    1.96 KCAL/MOL
REMARK 922        TOTAL FREE ENERGY PREDICTED BY IDOCK:    1.99 KCAL/MOL
REMARK 923 INTER-LIGAND FREE ENERGY PREDICTED BY IDOCK:   -1.26 KCAL/MOL
REMARK 924 INTRA-LIGAND FREE ENERGY PREDICTED BY IDOCK:    3.25 KCAL/MOL
REMARK 927      BINDING AFFINITY PREDICTED BY RF-SCORE:    0.00 PKD
ROOT
HETATM    1  C   UNL     1     -10.887  11.710  67.669  1.00  0.00    -0.225 C  
HETATM    2  N   UNL     1     -10.318  12.933  68.203  1.00  0.00    -0.234 N  
HETATM    3  C   UNL     1     -10.895  14.201  67.785  1.00  0.00    -0.252 C  
ENDROOT
BRANCH   2   4
HETATM    4  C   UNL     1      -9.316  12.792  69.154  1.00  0.00     0.682 C  
HETATM    5  O   UNL     1      -8.384  13.588  69.255  1.00  0.00     0.363 OA 
BRANCH   4   6
HETATM    6  N   UNL     1      -9.418  11.683  69.942  1.00  0.00     0.999 N  
HETATM    7  H   UNL     1      -9.531  11.802  70.949  1.00  0.00     0.000 HD 
BRANCH   6   8
HETATM    8  C   UNL     1      -9.371  10.331  69.393  1.00  0.00    -0.199 C  
HETATM    9  C   UNL     1      -8.328   9.479  70.127  1.00  0.00    -0.212 C  
HETATM   10  C   UNL     1      -8.740   9.183  71.570  1.00  0.00    -0.012 C  
HETATM   11  C   UNL     1     -10.145   8.560  71.681  1.00  0.00    -0.338 C  
HETATM   12  C   UNL     1     -10.758   9.685  69.465  1.00  0.00    -0.252 C  
HETATM   13  C   UNL     1     -11.185   9.382  70.901  1.00  0.00    -0.393 C  
BRANCH  11  14
HETATM   14  C   UNL     1     -10.178   7.089  71.223  1.00  0.00    -0.203 C  
BRANCH  14  15
HETATM   15  C   UNL     1      -9.273   6.153  72.034  1.00  0.00    -0.146 C  
BRANCH  15  16
HETATM   16  N   UNL     1      -7.871   6.115  71.584  1.00  0.00    -0.101 NA 
HETATM   17  C   UNL     1      -7.271   4.762  71.678  1.00  0.00    -0.065 C  
HETATM   18  C   UNL     1      -7.875   3.716  70.713  1.00  0.00    -0.050 C  
HETATM   19  N   UNL     1      -7.835   4.221  69.324  1.00  0.00    -0.057 NA 
HETATM   20  C   UNL     1      -7.774   6.548  70.161  1.00  0.00    -0.102 C  
HETATM   21  C   UNL     1      -8.429   5.558  69.164  1.00  0.00    -0.104 C  
BRANCH  19  22
HETATM   22  C   UNL     1      -7.222   3.492  68.314  1.00  0.00    -0.051 A  
HETATM   23  C   UNL     1      -7.268   3.780  66.921  1.00  0.00    -0.064 A  
HETATM   24  C   UNL     1      -6.626   2.934  65.987  1.00  0.00    -0.039 A  
HETATM   25 CL   UNL     1      -7.983   5.247  66.301  1.00  0.00    -0.103 Cl 
HETATM   26  C   UNL     1      -5.883   1.833  66.412  1.00  0.00    -0.018 A  
HETATM   27 CL   UNL     1      -6.701   3.196  64.274  1.00  0.00    -0.035 Cl 
HETATM   28  C   UNL     1      -5.790   1.551  67.763  1.00  0.00    -0.019 A  
HETATM   29  C   UNL     1      -6.467   2.351  68.684  1.00  0.00    -0.029 A  
ENDBRANCH  19  22
ENDBRANCH  15  16
ENDBRANCH  14  15
ENDBRANCH  11  14
ENDBRANCH   6   8
ENDBRANCH   4   6
ENDBRANCH   2   4
TORSDOF 7
ENDMDL
MODEL      207
REMARK 921   NORMALIZED FREE ENERGY PREDICTED BY IDOCK:    2.02 KCAL/MOL
REMARK 922        TOTAL FREE ENERGY PREDICTED BY IDOCK:    2.08 KCAL/MOL
REMARK 923 INTER-LIGAND FREE ENERGY PREDICTED BY IDOCK:   -2.11 KCAL/MOL
REMARK 924 INTRA-LIGAND FREE ENERGY PREDICTED BY IDOCK:    4.20 KCAL/MOL
REMARK 927      BINDING AFFINITY PREDICTED BY RF-SCORE:    0.00 PKD
ROOT
HETATM    1  C   UNL     1     -12.125  10.140  72.035  1.00  0.00     0.177 C  
HETATM    2  N   UNL     1     -12.449   9.294  70.902  1.00  0.00    -0.193 N  
HETATM    3  C   UNL     1     -12.295   9.844  69.565  1.00  0.00     0.619 C  
ENDROOT
BRANCH   2   4
HETATM    4  C   UNL     1     -12.796   7.979  71.185  1.00  0.00    -0.103 C  
HETATM    5  O   UNL     1     -13.964   7.597  71.215  1.00  0.00    -0.342 OA 
BRANCH   4   6
HETATM    6  N   UNL     1     -11.749   7.152  71.468  1.00  0.00    -0.274 N  
HETATM    7  H   UNL     1     -11.880   6.143  71.382  1.00  0.00     0.000 HD 
BRANCH   6   8
HETATM    8  C   UNL     1     -10.448   7.660  71.891  1.00  0.00    -0.215 C  
HETATM    9  C   UNL     1      -9.483   6.508  72.198  1.00  0.00    -0.148 C  
HETATM   10  C   UNL     1      -9.089   5.737  70.937  1.00  0.00    -0.157 C  
HETATM   11  C   UNL     1      -8.533   6.645  69.823  1.00  0.00    -0.132 C  
HETATM   12  C   UNL     1      -9.871   8.588  70.817  1.00  0.00    -0.220 C  
HETATM   13  C   UNL     1      -9.471   7.833  69.550  1.00  0.00    -0.160 C  
BRANCH  11  14
HETATM   14  C   UNL     1      -7.110   7.151  70.127  1.00  0.00    -0.066 C  
BRANCH  14  15
HETATM   15  C   UNL     1      -6.584   8.196  69.136  1.00  0.00    -0.043 C  
BRANCH  15  16
HETATM   16  N   UNL     1      -5.855   7.636  67.984  1.00  0.00    -0.038 NA 
HETATM   17  C   UNL     1      -5.354   6.263  68.231  1.00  0.00    -0.008 C  
HETATM   18  C   UNL     1      -6.456   5.187  68.380  1.00  0.00    -0.040 C  
HETATM   19  N   UNL     1      -7.363   5.222  67.213  1.00  0.00    -0.081 NA 
HETATM   20  C   UNL     1      -6.744   7.579  66.789  1.00  0.00    -0.062 C  
HETATM   21  C   UNL     1      -7.905   6.560  66.925  1.00  0.00    -0.107 C  
BRANCH  19  22
HETATM   22  C   UNL     1      -7.597   4.084  66.453  1.00  0.00    -0.089 A  
HETATM   23  C   UNL     1      -6.902   3.703  65.272  1.00  0.00    -0.052 A  
HETATM   24  C   UNL     1      -7.263   2.530  64.569  1.00  0.00    -0.054 A  
HETATM   25 CL   UNL     1      -5.492   4.563  64.707  1.00  0.00    -0.013 Cl 
HETATM   26  C   UNL     1      -8.265   1.688  65.048  1.00  0.00    -0.076 A  
HETATM   27 CL   UNL     1      -6.497   2.048  63.088  1.00  0.00    -0.014 Cl 
HETATM   28  C   UNL     1      -8.932   2.015  66.215  1.00  0.00    -0.101 A  
HETATM   29  C   UNL     1      -8.618   3.199  66.882  1.00  0.00    -0.120 A  
ENDBRANCH  19  22
ENDBRANCH  15  16
ENDBRANCH  14  15
ENDBRANCH  11  14
ENDBRANCH   6   8
ENDBRANCH   4   6
ENDBRANCH   2   4
TORSDOF 7
ENDMDL
MODEL      208
REMARK 921   NORMALIZED FREE ENERGY PREDICTED BY IDOCK:    2.56 KCAL/MOL
REMARK 922        TOTAL FREE ENERGY PREDICTED BY IDOCK:    2.84 KCAL/MOL
REMARK 923 INTER-LIGAND FREE ENERGY PREDICTED BY IDOCK:   -0.88 KCAL/MOL
REMARK 924 INTRA-LIGAND FREE ENERGY PREDICTED BY IDOCK:    3.72 KCAL/MOL
REMARK 927      BINDING AFFINITY PREDICTED BY RF-SCORE:    0.00 PKD
ROOT
HETATM    1  C   UNL     1     -11.160   6.292  72.024  1.00  0.00    -0.268 C  
HETATM    2  N   UNL     1     -10.761   5.016  71.461  1.00  0.00    -0.109 N  
HETATM    3  C   UNL     1     -10.801   3.842  72.318  1.00  0.00     0.257 C  
ENDROOT
BRANCH   2   4
HETATM    4  C   UNL     1     -10.455   4.999  70.107  1.00  0.00    -0.165 C  
HETATM    5  O   UNL     1      -9.334   4.722  69.686  1.00  0.00    -0.109 OA 
BRANCH   4   6
HETATM    6  N   UNL     1     -11.480   5.354  69.278  1.00  0.00     1.133 N  
HETATM    7  H   UNL     1     -12.326   4.784  69.269  1.00  0.00     0.000 HD 
BRANCH   6   8
HETATM    8  C   UNL     1     -11.405   6.520  68.403  1.00  0.00    -0.053 C  
HETATM    9  C   UNL     1     -10.978   7.766  69.188  1.00  0.00     0.029 C  
HETATM   10  C   UNL     1      -9.527   7.677  69.665  1.00  0.00    -0.156 C  
HETATM   11  C   UNL     1      -8.536   7.371  68.526  1.00  0.00    -0.125 C  
HETATM   12  C   UNL     1     -10.443   6.247  67.242  1.00  0.00    -0.316 C  
HETATM   13  C   UNL     1      -8.988   6.154  67.702  1.00  0.00    -0.111 C  
BRANCH  11  14
HETATM   14  C   UNL     1      -8.304   8.583  67.603  1.00  0.00    -0.129 C  
BRANCH  14  15
HETATM   15  C   UNL     1      -8.000   9.892  68.342  1.00  0.00    -0.096 C  
BRANCH  15  16
HETATM   16  N   UNL     1      -7.063  10.788  67.641  1.00  0.00    -0.089 NA 
HETATM   17  C   UNL     1      -7.725  11.988  67.076  1.00  0.00    -0.129 C  
HETATM   18  C   UNL     1      -8.282  12.977  68.126  1.00  0.00    -0.157 C  
HETATM   19  N   UNL     1      -7.221  13.356  69.083  1.00  0.00    -0.021 NA 
HETATM   20  C   UNL     1      -6.005  11.262  68.577  1.00  0.00    -0.042 C  
HETATM   21  C   UNL     1      -6.533  12.203  69.689  1.00  0.00    -0.082 C  
BRANCH  19  22
HETATM   22  C   UNL     1      -6.896  14.687  69.304  1.00  0.00    -0.143 A  
HETATM   23  C   UNL     1      -7.011  15.749  68.365  1.00  0.00    -0.116 A  
HETATM   24  C   UNL     1      -6.612  17.062  68.706  1.00  0.00    -0.187 A  
HETATM   25 CL   UNL     1      -7.771  15.532  66.808  1.00  0.00    -0.194 Cl 
HETATM   26  C   UNL     1      -6.155  17.360  69.990  1.00  0.00    -0.118 A  
HETATM   27 CL   UNL     1      -6.665  18.383  67.584  1.00  0.00    -0.197 Cl 
HETATM   28  C   UNL     1      -6.069  16.354  70.935  1.00  0.00     0.751 A  
HETATM   29  C   UNL     1      -6.409  15.046  70.586  1.00  0.00     0.061 A  
ENDBRANCH  19  22
ENDBRANCH  15  16
ENDBRANCH  14  15
ENDBRANCH  11  14
ENDBRANCH   6   8
ENDBRANCH   4   6
ENDBRANCH   2   4
TORSDOF 7
ENDMDL
MODEL      209
REMARK 921   NORMALIZED FREE ENERGY PREDICTED BY IDOCK:    3.13 KCAL/MOL
REMARK 922        TOTAL FREE ENERGY PREDICTED BY IDOCK:    3.63 KCAL/MOL
REMARK 923 INTER-LIGAND FREE ENERGY PREDICTED BY IDOCK:    1.55 KCAL/MOL
REMARK 924 INTRA-LIGAND FREE ENERGY PREDICTED BY IDOCK:    2.09 KCAL/MOL
REMARK 927      BINDING AFFINITY PREDICTED BY RF-SCORE:    0.00 PKD
ROOT
HETATM    1  C   UNL     1     -10.992   8.516  65.488  1.00  0.00     4.413 C  
HETATM    2  N   UNL     1     -10.701   9.936  65.427  1.00  0.00     0.443 N  
HETATM    3  C   UNL     1     -10.753  10.595  64.132  1.00  0.00     0.201 C  
ENDROOT
BRANCH   2   4
HETATM    4  C   UNL     1     -10.484  10.581  66.638  1.00  0.00    -0.228 C  
HETATM    5  O   UNL     1     -11.405  10.989  67.343  1.00  0.00    -0.401 OA 
BRANCH   4   6
HETATM    6  N   UNL     1      -9.173  10.767  66.968  1.00  0.00    -0.151 N  
HETATM    7  H   UNL     1      -8.455  10.559  66.274  1.00  0.00     0.000 HD 
BRANCH   6   8
HETATM    8  C   UNL     1      -8.764  11.251  68.283  1.00  0.00    -0.158 C  
HETATM    9  C   UNL     1      -7.715  10.323  68.906  1.00  0.00    -0.098 C  
HETATM   10  C   UNL     1      -6.382  10.376  68.157  1.00  0.00    -0.052 C  
HETATM   11  C   UNL     1      -5.834  11.808  68.001  1.00  0.00    -0.046 C  
HETATM   12  C   UNL     1      -8.233  12.684  68.173  1.00  0.00    -0.170 C  
HETATM   13  C   UNL     1      -6.901  12.755  67.427  1.00  0.00    -0.137 C  
BRANCH  11  14
HETATM   14  C   UNL     1      -5.274  12.374  69.321  1.00  0.00    -0.068 C  
BRANCH  14  15
HETATM   15  C   UNL     1      -6.253  13.270  70.090  1.00  0.00    -0.050 C  
BRANCH  15  16
HETATM   16  N   UNL     1      -5.835  14.678  70.203  1.00  0.00    -0.128 NA 
HETATM   17  C   UNL     1      -5.296  15.223  68.933  1.00  0.00    -0.099 C  
HETATM   18  C   UNL     1      -6.333  15.357  67.793  1.00  0.00    -0.161 C  
HETATM   19  N   UNL     1      -7.501  16.138  68.255  1.00  0.00    -0.141 NA 
HETATM   20  C   UNL     1      -6.992  15.530  70.598  1.00  0.00     0.801 C  
HETATM   21  C   UNL     1      -8.089  15.636  69.508  1.00  0.00    -0.174 C  
BRANCH  19  22
HETATM   22  C   UNL     1      -7.922  17.270  67.571  1.00  0.00    -0.182 A  
HETATM   23  C   UNL     1      -9.118  18.002  67.812  1.00  0.00    -0.262 A  
HETATM   24  C   UNL     1      -9.450  19.124  67.018  1.00  0.00    -0.316 A  
HETATM   25 CL   UNL     1     -10.160  17.657  69.170  1.00  0.00    -0.287 Cl 
HETATM   26  C   UNL     1      -8.586  19.576  66.021  1.00  0.00    -0.231 A  
HETATM   27 CL   UNL     1     -10.924  20.016  67.220  1.00  0.00    -0.281 Cl 
HETATM   28  C   UNL     1      -7.398  18.905  65.791  1.00  0.00    -0.217 A  
HETATM   29  C   UNL     1      -7.093  17.765  66.535  1.00  0.00    -0.275 A  
ENDBRANCH  19  22
ENDBRANCH  15  16
ENDBRANCH  14  15
ENDBRANCH  11  14
ENDBRANCH   6   8
ENDBRANCH   4   6
ENDBRANCH   2   4
TORSDOF 7
ENDMDL
MODEL      210
REMARK 921   NORMALIZED FREE ENERGY PREDICTED BY IDOCK:    4.04 KCAL/MOL
REMARK 922        TOTAL FREE ENERGY PREDICTED BY IDOCK:    4.93 KCAL/MOL
REMARK 923 INTER-LIGAND FREE ENERGY PREDICTED BY IDOCK:    0.42 KCAL/MOL
REMARK 924 INTRA-LIGAND FREE ENERGY PREDICTED BY IDOCK:    4.50 KCAL/MOL
REMARK 927      BINDING AFFINITY PREDICTED BY RF-SCORE:    0.00 PKD
ROOT
HETATM    1  C   UNL     1     -12.905   9.784  69.138  1.00  0.00     2.670 C  
HETATM    2  N   UNL     1     -12.271  10.186  70.380  1.00  0.00    -0.248 N  
HETATM    3  C   UNL     1     -12.911  11.220  71.176  1.00  0.00    -0.272 C  
ENDROOT
BRANCH   2   4
HETATM    4  C   UNL     1     -11.139   9.477  70.760  1.00  0.00    -0.323 C  
HETATM    5  O   UNL     1     -10.291   9.945  71.516  1.00  0.00     0.146 OA 
BRANCH   4   6
HETATM    6  N   UNL     1     -11.016   8.238  70.200  1.00  0.00    -0.295 N  
HETATM    7  H   UNL     1     -11.859   7.690  70.026  1.00  0.00     0.000 HD 
BRANCH   6   8
HETATM    8  C   UNL     1      -9.720   7.671  69.843  1.00  0.00    -0.175 C  
HETATM    9  C   UNL     1      -9.763   7.046  68.444  1.00  0.00    -0.139 C  
HETATM   10  C   UNL     1      -9.921   8.100  67.347  1.00  0.00    -0.271 C  
HETATM   11  C   UNL     1      -8.862   9.216  67.425  1.00  0.00    -0.125 C  
HETATM   12  C   UNL     1      -8.633   8.747  69.931  1.00  0.00    -0.133 C  
HETATM   13  C   UNL     1      -8.777   9.809  68.841  1.00  0.00    -0.136 C  
BRANCH  11  14
HETATM   14  C   UNL     1      -7.470   8.743  66.962  1.00  0.00    -0.091 C  
BRANCH  14  15
HETATM   15  C   UNL     1      -6.927   9.482  65.732  1.00  0.00    -0.095 C  
BRANCH  15  16
HETATM   16  N   UNL     1      -6.974   8.705  64.481  1.00  0.00    -0.080 NA 
HETATM   17  C   UNL     1      -6.226   7.427  64.567  1.00  0.00    -0.037 C  
HETATM   18  C   UNL     1      -6.832   6.384  65.535  1.00  0.00    -0.048 C  
HETATM   19  N   UNL     1      -8.254   6.148  65.204  1.00  0.00    -0.139 NA 
HETATM   20  C   UNL     1      -8.384   8.374  64.131  1.00  0.00    -0.074 C  
HETATM   21  C   UNL     1      -9.053   7.382  65.117  1.00  0.00     0.541 C  
BRANCH  19  22
HETATM   22  C   UNL     1      -8.726   4.869  64.943  1.00  0.00    -0.150 A  
HETATM   23  C   UNL     1      -9.471   4.464  63.802  1.00  0.00    -0.071 A  
HETATM   24  C   UNL     1      -9.925   3.131  63.672  1.00  0.00    -0.157 A  
HETATM   25 CL   UNL     1      -9.744   5.529  62.446  1.00  0.00     0.560 Cl 
HETATM   26  C   UNL     1      -9.602   2.168  64.628  1.00  0.00    -0.044 A  
HETATM   27 CL   UNL     1     -10.893   2.592  62.337  1.00  0.00    -0.151 Cl 
HETATM   28  C   UNL     1      -8.846   2.526  65.729  1.00  0.00    -0.131 A  
HETATM   29  C   UNL     1      -8.443   3.853  65.889  1.00  0.00    -0.110 A  
ENDBRANCH  19  22
ENDBRANCH  15  16
ENDBRANCH  14  15
ENDBRANCH  11  14
ENDBRANCH   6   8
ENDBRANCH   4   6
ENDBRANCH   2   4
TORSDOF 7
ENDMDL
MODEL      211
REMARK 921   NORMALIZED FREE ENERGY PREDICTED BY IDOCK:    4.05 KCAL/MOL
REMARK 922        TOTAL FREE ENERGY PREDICTED BY IDOCK:    4.94 KCAL/MOL
REMARK 923 INTER-LIGAND FREE ENERGY PREDICTED BY IDOCK:   -2.20 KCAL/MOL
REMARK 924 INTRA-LIGAND FREE ENERGY PREDICTED BY IDOCK:    7.14 KCAL/MOL
REMARK 927      BINDING AFFINITY PREDICTED BY RF-SCORE:    0.00 PKD
ROOT
HETATM    1  C   UNL     1     -12.247   8.618  70.019  1.00  0.00     0.847 C  
HETATM    2  N   UNL     1     -10.942   8.287  69.478  1.00  0.00    -0.114 N  
HETATM    3  C   UNL     1      -9.795   9.061  69.924  1.00  0.00    -0.183 C  
ENDROOT
BRANCH   2   4
HETATM    4  C   UNL     1     -10.877   7.183  68.638  1.00  0.00    -0.108 C  
HETATM    5  O   UNL     1     -10.711   6.040  69.061  1.00  0.00    -0.258 OA 
BRANCH   4   6
HETATM    6  N   UNL     1     -10.970   7.463  67.306  1.00  0.00    -0.562 N  
HETATM    7  H   UNL     1     -11.726   8.066  66.980  1.00  0.00     0.000 HD 
BRANCH   6   8
HETATM    8  C   UNL     1     -10.025   6.929  66.331  1.00  0.00     0.000 C  
HETATM    9  C   UNL     1      -8.802   7.844  66.196  1.00  0.00    -0.197 C  
HETATM   10  C   UNL     1      -7.938   7.840  67.458  1.00  0.00    -0.123 C  
HETATM   11  C   UNL     1      -7.526   6.425  67.903  1.00  0.00    -0.094 C  
HETATM   12  C   UNL     1      -9.606   5.509  66.726  1.00  0.00    -0.156 C  
HETATM   13  C   UNL     1      -8.742   5.487  67.987  1.00  0.00    -0.106 C  
BRANCH  11  14
HETATM   14  C   UNL     1      -6.443   5.811  66.993  1.00  0.00    -0.047 C  
BRANCH  14  15
HETATM   15  C   UNL     1      -5.683   4.635  67.619  1.00  0.00    -0.021 C  
BRANCH  15  16
HETATM   16  N   UNL     1      -5.225   4.867  69.000  1.00  0.00     0.000 NA 
HETATM   17  C   UNL     1      -6.129   5.759  69.765  1.00  0.00    -0.025 C  
HETATM   18  C   UNL     1      -7.528   5.169  70.060  1.00  0.00    -0.063 C  
HETATM   19  N   UNL     1      -7.397   3.852  70.718  1.00  0.00    -0.040 NA 
HETATM   20  C   UNL     1      -5.141   3.576  69.740  1.00  0.00    -0.004 C  
HETATM   21  C   UNL     1      -6.520   2.915  69.996  1.00  0.00    -0.029 C  
BRANCH  19  22
HETATM   22  C   UNL     1      -8.010   3.595  71.936  1.00  0.00    -0.063 A  
HETATM   23  C   UNL     1      -9.176   2.806  72.142  1.00  0.00    -0.095 A  
HETATM   24  C   UNL     1      -9.723   2.650  73.436  1.00  0.00    -0.097 A  
HETATM   25 CL   UNL     1      -9.908   1.880  70.856  1.00  0.00    -0.131 Cl 
HETATM   26  C   UNL     1      -9.100   3.214  74.549  1.00  0.00    -0.098 A  
HETATM   27 CL   UNL     1     -11.178   1.756  73.742  1.00  0.00    -0.261 Cl 
HETATM   28  C   UNL     1      -7.943   3.954  74.383  1.00  0.00    -0.089 A  
HETATM   29  C   UNL     1      -7.431   4.157  73.101  1.00  0.00    -0.079 A  
ENDBRANCH  19  22
ENDBRANCH  15  16
ENDBRANCH  14  15
ENDBRANCH  11  14
ENDBRANCH   6   8
ENDBRANCH   4   6
ENDBRANCH   2   4
TORSDOF 7
ENDMDL
MODEL      212
REMARK 921   NORMALIZED FREE ENERGY PREDICTED BY IDOCK:    4.15 KCAL/MOL
REMARK 922        TOTAL FREE ENERGY PREDICTED BY IDOCK:    5.08 KCAL/MOL
REMARK 923 INTER-LIGAND FREE ENERGY PREDICTED BY IDOCK:   -2.80 KCAL/MOL
REMARK 924 INTRA-LIGAND FREE ENERGY PREDICTED BY IDOCK:    7.88 KCAL/MOL
REMARK 927      BINDING AFFINITY PREDICTED BY RF-SCORE:    0.00 PKD
ROOT
HETATM    1  C   UNL     1     -12.442  14.800  63.705  1.00  0.00     0.386 C  
HETATM    2  N   UNL     1     -11.599  13.628  63.850  1.00  0.00    -0.318 N  
HETATM    3  C   UNL     1     -11.617  12.632  62.792  1.00  0.00     0.913 C  
ENDROOT
BRANCH   2   4
HETATM    4  C   UNL     1     -10.761  13.595  64.958  1.00  0.00    -0.367 C  
HETATM    5  O   UNL     1      -9.693  14.202  64.996  1.00  0.00    -0.135 OA 
BRANCH   4   6
HETATM    6  N   UNL     1     -11.191  12.806  65.985  1.00  0.00    -0.288 N  
HETATM    7  H   UNL     1     -11.925  13.155  66.601  1.00  0.00     0.000 HD 
BRANCH   6   8
HETATM    8  C   UNL     1     -10.635  11.479  66.231  1.00  0.00    -0.263 C  
HETATM    9  C   UNL     1      -9.134  11.448  65.918  1.00  0.00    -0.209 C  
HETATM   10  C   UNL     1      -8.322  12.284  66.909  1.00  0.00    -0.137 C  
HETATM   11  C   UNL     1      -8.590  11.907  68.379  1.00  0.00    -0.152 C  
HETATM   12  C   UNL     1     -10.902  11.057  67.680  1.00  0.00    -0.306 C  
HETATM   13  C   UNL     1     -10.098  11.883  68.684  1.00  0.00    -0.186 C  
BRANCH  11  14
HETATM   14  C   UNL     1      -7.947  10.563  68.771  1.00  0.00    -0.127 C  
BRANCH  14  15
HETATM   15  C   UNL     1      -6.970  10.650  69.950  1.00  0.00    -0.146 C  
BRANCH  15  16
HETATM   16  N   UNL     1      -5.772  11.469  69.694  1.00  0.00    -0.068 NA 
HETATM   17  C   UNL     1      -5.703  11.970  68.300  1.00  0.00    -0.051 C  
HETATM   18  C   UNL     1      -6.797  12.997  67.924  1.00  0.00    -0.130 C  
HETATM   19  N   UNL     1      -6.801  14.114  68.892  1.00  0.00    -0.101 NA 
HETATM   20  C   UNL     1      -5.756  12.656  70.595  1.00  0.00    -0.151 C  
HETATM   21  C   UNL     1      -6.881  13.680  70.297  1.00  0.00     0.477 C  
BRANCH  19  22
HETATM   22  C   UNL     1      -6.671  15.430  68.468  1.00  0.00    -0.113 A  
HETATM   23  C   UNL     1      -7.647  16.456  68.600  1.00  0.00    -0.197 A  
HETATM   24  C   UNL     1      -7.403  17.754  68.093  1.00  0.00    -0.238 A  
HETATM   25 CL   UNL     1      -9.121  16.225  69.507  1.00  0.00    -0.074 Cl 
HETATM   26  C   UNL     1      -6.179  18.075  67.507  1.00  0.00    -0.180 A  
HETATM   27 CL   UNL     1      -8.578  19.028  68.165  1.00  0.00    -0.341 Cl 
HETATM   28  C   UNL     1      -5.197  17.106  67.400  1.00  0.00    -0.148 A  
HETATM   29  C   UNL     1      -5.455  15.810  67.849  1.00  0.00    -0.148 A  
ENDBRANCH  19  22
ENDBRANCH  15  16
ENDBRANCH  14  15
ENDBRANCH  11  14
ENDBRANCH   6   8
ENDBRANCH   4   6
ENDBRANCH   2   4
TORSDOF 7
ENDMDL
MODEL      213
REMARK 921   NORMALIZED FREE ENERGY PREDICTED BY IDOCK:    4.71 KCAL/MOL
REMARK 922        TOTAL FREE ENERGY PREDICTED BY IDOCK:    5.86 KCAL/MOL
REMARK 923 INTER-LIGAND FREE ENERGY PREDICTED BY IDOCK:    4.47 KCAL/MOL
REMARK 924 INTRA-LIGAND FREE ENERGY PREDICTED BY IDOCK:    1.39 KCAL/MOL
REMARK 927      BINDING AFFINITY PREDICTED BY RF-SCORE:    0.00 PKD
ROOT
HETATM    1  C   UNL     1      -9.879  18.861  71.223  1.00  0.00     3.698 C  
HETATM    2  N   UNL     1      -8.617  19.412  70.766  1.00  0.00     2.295 N  
HETATM    3  C   UNL     1      -7.807  20.157  71.716  1.00  0.00     2.010 C  
ENDROOT
BRANCH   2   4
HETATM    4  C   UNL     1      -8.235  19.102  69.468  1.00  0.00     0.285 C  
HETATM    5  O   UNL     1      -7.732  19.932  68.712  1.00  0.00    -0.277 OA 
BRANCH   4   6
HETATM    6  N   UNL     1      -8.496  17.821  69.077  1.00  0.00    -0.097 N  
HETATM    7  H   UNL     1      -7.730  17.147  69.055  1.00  0.00     0.000 HD 
BRANCH   6   8
HETATM    8  C   UNL     1      -9.833  17.383  68.690  1.00  0.00    -0.322 C  
HETATM    9  C   UNL     1      -9.765  16.353  67.556  1.00  0.00    -0.231 C  
HETATM   10  C   UNL     1      -9.156  15.028  68.019  1.00  0.00    -0.178 C  
HETATM   11  C   UNL     1      -9.857  14.442  69.259  1.00  0.00     0.042 C  
HETATM   12  C   UNL     1     -10.573  16.813  69.905  1.00  0.00    -0.104 C  
HETATM   13  C   UNL     1      -9.977  15.489  70.380  1.00  0.00     0.201 C  
BRANCH  11  14
HETATM   14  C   UNL     1     -11.242  13.852  68.933  1.00  0.00    -0.304 C  
BRANCH  14  15
HETATM   15  C   UNL     1     -11.606  12.604  69.748  1.00  0.00    -0.214 C  
BRANCH  15  16
HETATM   16  N   UNL     1     -11.772  11.377  68.949  1.00  0.00    -0.316 NA 
HETATM   17  C   UNL     1     -10.484  10.834  68.453  1.00  0.00    -0.183 C  
HETATM   18  C   UNL     1      -9.541  10.293  69.554  1.00  0.00    -0.202 C  
HETATM   19  N   UNL     1     -10.250   9.303  70.392  1.00  0.00    -0.214 NA 
HETATM   20  C   UNL     1     -12.420  10.313  69.766  1.00  0.00     0.100 C  
HETATM   21  C   UNL     1     -11.533   9.791  70.925  1.00  0.00    -0.369 C  
BRANCH  19  22
HETATM   22  C   UNL     1      -9.744   8.024  70.573  1.00  0.00    -0.178 A  
HETATM   23  C   UNL     1      -8.675   7.656  71.437  1.00  0.00    -0.124 A  
HETATM   24  C   UNL     1      -8.230   6.315  71.504  1.00  0.00    -0.118 A  
HETATM   25 CL   UNL     1      -7.954   8.787  72.554  1.00  0.00    -0.008 Cl 
HETATM   26  C   UNL     1      -8.866   5.312  70.774  1.00  0.00    -0.151 A  
HETATM   27 CL   UNL     1      -6.890   5.817  72.487  1.00  0.00    -0.076 Cl 
HETATM   28  C   UNL     1      -9.933   5.635  69.955  1.00  0.00    -0.268 A  
HETATM   29  C   UNL     1     -10.340   6.965  69.843  1.00  0.00    -0.223 A  
ENDBRANCH  19  22
ENDBRANCH  15  16
ENDBRANCH  14  15
ENDBRANCH  11  14
ENDBRANCH   6   8
ENDBRANCH   4   6
ENDBRANCH   2   4
TORSDOF 7
ENDMDL
MODEL      214
REMARK 921   NORMALIZED FREE ENERGY PREDICTED BY IDOCK:    4.92 KCAL/MOL
REMARK 922        TOTAL FREE ENERGY PREDICTED BY IDOCK:    6.16 KCAL/MOL
REMARK 923 INTER-LIGAND FREE ENERGY PREDICTED BY IDOCK:   -0.46 KCAL/MOL
REMARK 924 INTRA-LIGAND FREE ENERGY PREDICTED BY IDOCK:    6.62 KCAL/MOL
REMARK 927      BINDING AFFINITY PREDICTED BY RF-SCORE:    0.00 PKD
ROOT
HETATM    1  C   UNL     1     -12.647   9.214  69.275  1.00  0.00     2.827 C  
HETATM    2  N   UNL     1     -11.609   8.828  70.213  1.00  0.00    -0.100 N  
HETATM    3  C   UNL     1     -10.514   9.755  70.449  1.00  0.00    -0.297 C  
ENDROOT
BRANCH   2   4
HETATM    4  C   UNL     1     -11.794   7.628  70.888  1.00  0.00    -0.250 C  
HETATM    5  O   UNL     1     -12.688   7.468  71.717  1.00  0.00    -0.322 OA 
BRANCH   4   6
HETATM    6  N   UNL     1     -10.885   6.653  70.595  1.00  0.00    -0.239 N  
HETATM    7  H   UNL     1     -11.185   5.848  70.045  1.00  0.00     0.000 HD 
BRANCH   6   8
HETATM    8  C   UNL     1      -9.497   6.724  71.043  1.00  0.00    -0.164 C  
HETATM    9  C   UNL     1      -9.347   7.714  72.204  1.00  0.00    -0.188 C  
HETATM   10  C   UNL     1     -10.031   7.216  73.478  1.00  0.00    -0.344 C  
HETATM   11  C   UNL     1      -9.579   5.803  73.893  1.00  0.00    -0.148 C  
HETATM   12  C   UNL     1      -9.003   5.330  71.444  1.00  0.00    -0.156 C  
HETATM   13  C   UNL     1      -9.677   4.817  72.716  1.00  0.00    -0.171 C  
BRANCH  11  14
HETATM   14  C   UNL     1      -8.155   5.786  74.484  1.00  0.00    -0.106 C  
BRANCH  14  15
HETATM   15  C   UNL     1      -7.485   7.163  74.556  1.00  0.00    -0.117 C  
BRANCH  15  16
HETATM   16  N   UNL     1      -6.163   7.236  73.909  1.00  0.00    -0.068 NA 
HETATM   17  C   UNL     1      -6.006   6.257  72.806  1.00  0.00    -0.042 C  
HETATM   18  C   UNL     1      -6.905   6.517  71.575  1.00  0.00    -0.067 C  
HETATM   19  N   UNL     1      -6.717   7.900  71.089  1.00  0.00    -0.041 NA 
HETATM   20  C   UNL     1      -5.943   8.593  73.335  1.00  0.00    -0.103 C  
HETATM   21  C   UNL     1      -6.874   8.921  72.139  1.00  0.00     0.069 C  
BRANCH  19  22
HETATM   22  C   UNL     1      -6.361   8.156  69.772  1.00  0.00    -0.036 A  
HETATM   23  C   UNL     1      -6.587   9.365  69.059  1.00  0.00    -0.046 A  
HETATM   24  C   UNL     1      -6.205   9.486  67.702  1.00  0.00    -0.053 A  
HETATM   25 CL   UNL     1      -7.208  10.799  69.837  1.00  0.00    -0.116 Cl 
HETATM   26  C   UNL     1      -5.542   8.446  67.051  1.00  0.00    -0.038 A  
HETATM   27 CL   UNL     1      -6.513  10.910  66.761  1.00  0.00    -0.104 Cl 
HETATM   28  C   UNL     1      -5.275   7.273  67.732  1.00  0.00    -0.020 A  
HETATM   29  C   UNL     1      -5.701   7.129  69.053  1.00  0.00    -0.019 A  
ENDBRANCH  19  22
ENDBRANCH  15  16
ENDBRANCH  14  15
ENDBRANCH  11  14
ENDBRANCH   6   8
ENDBRANCH   4   6
ENDBRANCH   2   4
TORSDOF 7
ENDMDL
MODEL      215
REMARK 921   NORMALIZED FREE ENERGY PREDICTED BY IDOCK:    5.06 KCAL/MOL
REMARK 922        TOTAL FREE ENERGY PREDICTED BY IDOCK:    6.36 KCAL/MOL
REMARK 923 INTER-LIGAND FREE ENERGY PREDICTED BY IDOCK:   -0.20 KCAL/MOL
REMARK 924 INTRA-LIGAND FREE ENERGY PREDICTED BY IDOCK:    6.55 KCAL/MOL
REMARK 927      BINDING AFFINITY PREDICTED BY RF-SCORE:    0.00 PKD
ROOT
HETATM    1  C   UNL     1     -12.647   9.214  69.275  1.00  0.00     2.827 C  
HETATM    2  N   UNL     1     -11.609   8.828  70.213  1.00  0.00    -0.100 N  
HETATM    3  C   UNL     1     -10.514   9.755  70.449  1.00  0.00    -0.297 C  
ENDROOT
BRANCH   2   4
HETATM    4  C   UNL     1     -11.794   7.628  70.888  1.00  0.00    -0.250 C  
HETATM    5  O   UNL     1     -12.688   7.468  71.717  1.00  0.00    -0.322 OA 
BRANCH   4   6
HETATM    6  N   UNL     1     -10.885   6.653  70.595  1.00  0.00    -0.239 N  
HETATM    7  H   UNL     1     -11.185   5.848  70.045  1.00  0.00     0.000 HD 
BRANCH   6   8
HETATM    8  C   UNL     1      -9.497   6.724  71.043  1.00  0.00    -0.164 C  
HETATM    9  C   UNL     1      -9.347   7.714  72.204  1.00  0.00    -0.188 C  
HETATM   10  C   UNL     1     -10.031   7.216  73.478  1.00  0.00    -0.344 C  
HETATM   11  C   UNL     1      -9.579   5.803  73.893  1.00  0.00    -0.148 C  
HETATM   12  C   UNL     1      -9.003   5.330  71.444  1.00  0.00    -0.156 C  
HETATM   13  C   UNL     1      -9.677   4.817  72.716  1.00  0.00    -0.171 C  
BRANCH  11  14
HETATM   14  C   UNL     1      -8.155   5.786  74.484  1.00  0.00    -0.106 C  
BRANCH  14  15
HETATM   15  C   UNL     1      -7.133   6.615  73.695  1.00  0.00    -0.080 C  
BRANCH  15  16
HETATM   16  N   UNL     1      -5.924   5.875  73.295  1.00  0.00    -0.050 NA 
HETATM   17  C   UNL     1      -6.164   4.420  73.134  1.00  0.00    -0.032 C  
HETATM   18  C   UNL     1      -7.093   4.042  71.956  1.00  0.00    -0.050 C  
HETATM   19  N   UNL     1      -6.594   4.642  70.700  1.00  0.00    -0.034 NA 
HETATM   20  C   UNL     1      -5.412   6.389  71.993  1.00  0.00    -0.032 C  
HETATM   21  C   UNL     1      -6.348   6.091  70.794  1.00  0.00    -0.039 C  
BRANCH  19  22
HETATM   22  C   UNL     1      -6.334   3.858  69.585  1.00  0.00    -0.028 A  
HETATM   23  C   UNL     1      -6.304   4.301  68.233  1.00  0.00    -0.037 A  
HETATM   24  C   UNL     1      -6.059   3.389  67.180  1.00  0.00    -0.024 A  
HETATM   25 CL   UNL     1      -6.421   5.990  67.807  1.00  0.00    -0.044 Cl 
HETATM   26  C   UNL     1      -5.781   2.048  67.445  1.00  0.00    -0.019 A  
HETATM   27 CL   UNL     1      -6.075   3.855  65.509  1.00  0.00    -0.023 Cl 
HETATM   28  C   UNL     1      -5.765   1.599  68.753  1.00  0.00    -0.022 A  
HETATM   29  C   UNL     1      -6.061   2.483  69.791  1.00  0.00    -0.024 A  
ENDBRANCH  19  22
ENDBRANCH  15  16
ENDBRANCH  14  15
ENDBRANCH  11  14
ENDBRANCH   6   8
ENDBRANCH   4   6
ENDBRANCH   2   4
TORSDOF 7
ENDMDL
MODEL      216
REMARK 921   NORMALIZED FREE ENERGY PREDICTED BY IDOCK:    5.06 KCAL/MOL
REMARK 922        TOTAL FREE ENERGY PREDICTED BY IDOCK:    6.36 KCAL/MOL
REMARK 923 INTER-LIGAND FREE ENERGY PREDICTED BY IDOCK:    2.56 KCAL/MOL
REMARK 924 INTRA-LIGAND FREE ENERGY PREDICTED BY IDOCK:    3.79 KCAL/MOL
REMARK 927      BINDING AFFINITY PREDICTED BY RF-SCORE:    0.00 PKD
ROOT
HETATM    1  C   UNL     1     -10.519   9.658  71.361  1.00  0.00    -0.046 C  
HETATM    2  N   UNL     1     -10.700   8.226  71.218  1.00  0.00    -0.221 N  
HETATM    3  C   UNL     1     -10.150   7.355  72.244  1.00  0.00    -0.196 C  
ENDROOT
BRANCH   2   4
HETATM    4  C   UNL     1     -11.474   7.799  70.146  1.00  0.00    -0.043 C  
HETATM    5  O   UNL     1     -12.048   6.712  70.137  1.00  0.00    -0.323 OA 
BRANCH   4   6
HETATM    6  N   UNL     1     -11.519   8.657  69.086  1.00  0.00    -0.079 N  
HETATM    7  H   UNL     1     -12.175   8.470  68.327  1.00  0.00     0.000 HD 
BRANCH   6   8
HETATM    8  C   UNL     1     -10.659   9.834  69.001  1.00  0.00    -0.219 C  
HETATM    9  C   UNL     1     -10.051   9.967  67.600  1.00  0.00    -0.241 C  
HETATM   10  C   UNL     1     -11.105  10.311  66.546  1.00  0.00     0.155 C  
HETATM   11  C   UNL     1     -11.939  11.554  66.910  1.00  0.00     0.363 C  
HETATM   12  C   UNL     1     -11.448  11.091  69.379  1.00  0.00    -0.364 C  
HETATM   13  C   UNL     1     -12.506  11.449  68.336  1.00  0.00     0.764 C  
BRANCH  11  14
HETATM   14  C   UNL     1     -11.147  12.866  66.747  1.00  0.00    -0.315 C  
BRANCH  14  15
HETATM   15  C   UNL     1     -11.780  13.870  65.775  1.00  0.00    -0.359 C  
BRANCH  15  16
HETATM   16  N   UNL     1     -11.673  15.279  66.194  1.00  0.00    -0.001 NA 
HETATM   17  C   UNL     1     -11.539  15.435  67.662  1.00  0.00    -0.194 C  
HETATM   18  C   UNL     1     -10.217  14.895  68.255  1.00  0.00    -0.225 C  
HETATM   19  N   UNL     1      -9.062  15.488  67.548  1.00  0.00    -0.191 NA 
HETATM   20  C   UNL     1     -10.480  15.914  65.567  1.00  0.00    -0.404 C  
HETATM   21  C   UNL     1      -9.131  15.352  66.084  1.00  0.00    -0.304 C  
BRANCH  19  22
HETATM   22  C   UNL     1      -8.064  16.159  68.243  1.00  0.00    -0.153 A  
HETATM   23  C   UNL     1      -7.789  16.052  69.634  1.00  0.00     0.088 A  
HETATM   24  C   UNL     1      -6.761  16.819  70.228  1.00  0.00     0.812 A  
HETATM   25 CL   UNL     1      -8.593  14.882  70.651  1.00  0.00     1.423 Cl 
HETATM   26  C   UNL     1      -5.952  17.652  69.455  1.00  0.00    -0.243 A  
HETATM   27 CL   UNL     1      -6.422  16.782  71.929  1.00  0.00     3.424 Cl 
HETATM   28  C   UNL     1      -6.172  17.746  68.093  1.00  0.00    -0.173 A  
HETATM   29  C   UNL     1      -7.221  17.033  67.512  1.00  0.00    -0.173 A  
ENDBRANCH  19  22
ENDBRANCH  15  16
ENDBRANCH  14  15
ENDBRANCH  11  14
ENDBRANCH   6   8
ENDBRANCH   4   6
ENDBRANCH   2   4
TORSDOF 7
ENDMDL
MODEL      217
REMARK 921   NORMALIZED FREE ENERGY PREDICTED BY IDOCK:    5.93 KCAL/MOL
REMARK 922        TOTAL FREE ENERGY PREDICTED BY IDOCK:    7.59 KCAL/MOL
REMARK 923 INTER-LIGAND FREE ENERGY PREDICTED BY IDOCK:   -2.59 KCAL/MOL
REMARK 924 INTRA-LIGAND FREE ENERGY PREDICTED BY IDOCK:   10.18 KCAL/MOL
REMARK 927      BINDING AFFINITY PREDICTED BY RF-SCORE:    0.00 PKD
ROOT
HETATM    1  C   UNL     1     -12.098  10.098  72.005  1.00  0.00     0.177 C  
HETATM    2  N   UNL     1     -12.346   9.130  70.953  1.00  0.00    -0.206 N  
HETATM    3  C   UNL     1     -12.217   9.566  69.572  1.00  0.00     0.926 C  
ENDROOT
BRANCH   2   4
HETATM    4  C   UNL     1     -12.599   7.825  71.353  1.00  0.00    -0.317 C  
HETATM    5  O   UNL     1     -13.717   7.319  71.287  1.00  0.00    -0.361 OA 
BRANCH   4   6
HETATM    6  N   UNL     1     -11.524   7.157  71.864  1.00  0.00    -0.262 N  
HETATM    7  H   UNL     1     -11.485   6.141  71.773  1.00  0.00     0.000 HD 
BRANCH   6   8
HETATM    8  C   UNL     1     -10.427   7.847  72.536  1.00  0.00    -0.300 C  
HETATM    9  C   UNL     1      -9.203   6.932  72.666  1.00  0.00    -0.151 C  
HETATM   10  C   UNL     1      -8.561   6.635  71.309  1.00  0.00    -0.126 C  
HETATM   11  C   UNL     1      -8.221   7.908  70.511  1.00  0.00    -0.118 C  
HETATM   12  C   UNL     1     -10.074   9.133  71.783  1.00  0.00    -0.279 C  
HETATM   13  C   UNL     1      -9.431   8.854  70.424  1.00  0.00    -0.227 C  
BRANCH  11  14
HETATM   14  C   UNL     1      -7.000   8.656  71.081  1.00  0.00    -0.078 C  
BRANCH  14  15
HETATM   15  C   UNL     1      -6.761  10.040  70.463  1.00  0.00    -0.115 C  
BRANCH  15  16
HETATM   16  N   UNL     1      -6.225  10.014  69.091  1.00  0.00    -0.040 NA 
HETATM   17  C   UNL     1      -5.608   8.713  68.738  1.00  0.00    -0.040 C  
HETATM   18  C   UNL     1      -6.599   7.529  68.644  1.00  0.00    -0.053 C  
HETATM   19  N   UNL     1      -7.706   7.861  67.722  1.00  0.00    -0.119 NA 
HETATM   20  C   UNL     1      -7.313  10.273  68.107  1.00  0.00    -0.085 C  
HETATM   21  C   UNL     1      -8.368   9.140  68.031  1.00  0.00    -0.120 C  
BRANCH  19  22
HETATM   22  C   UNL     1      -8.009   7.045  66.642  1.00  0.00    -0.108 A  
HETATM   23  C   UNL     1      -7.359   7.047  65.376  1.00  0.00    -0.080 A  
HETATM   24  C   UNL     1      -7.789   6.183  64.342  1.00  0.00    -0.114 A  
HETATM   25 CL   UNL     1      -5.925   7.995  65.072  1.00  0.00    -0.045 Cl 
HETATM   26  C   UNL     1      -8.818   5.267  64.557  1.00  0.00    -0.015 A  
HETATM   27 CL   UNL     1      -7.080   6.186  62.759  1.00  0.00    -0.048 Cl 
HETATM   28  C   UNL     1      -9.442   5.216  65.790  1.00  0.00    -0.153 A  
HETATM   29  C   UNL     1      -9.058   6.105  66.795  1.00  0.00    -0.137 A  
ENDBRANCH  19  22
ENDBRANCH  15  16
ENDBRANCH  14  15
ENDBRANCH  11  14
ENDBRANCH   6   8
ENDBRANCH   4   6
ENDBRANCH   2   4
TORSDOF 7
ENDMDL
MODEL      218
REMARK 921   NORMALIZED FREE ENERGY PREDICTED BY IDOCK:    6.38 KCAL/MOL
REMARK 922        TOTAL FREE ENERGY PREDICTED BY IDOCK:    8.22 KCAL/MOL
REMARK 923 INTER-LIGAND FREE ENERGY PREDICTED BY IDOCK:   -0.35 KCAL/MOL
REMARK 924 INTRA-LIGAND FREE ENERGY PREDICTED BY IDOCK:    8.57 KCAL/MOL
REMARK 927      BINDING AFFINITY PREDICTED BY RF-SCORE:    0.00 PKD
ROOT
HETATM    1  C   UNL     1     -13.777  14.566  64.596  1.00  0.00     2.551 C  
HETATM    2  N   UNL     1     -12.827  13.514  64.908  1.00  0.00    -0.278 N  
HETATM    3  C   UNL     1     -13.046  12.197  64.334  1.00  0.00     0.193 C  
ENDROOT
BRANCH   2   4
HETATM    4  C   UNL     1     -11.721  13.877  65.665  1.00  0.00    -0.354 C  
HETATM    5  O   UNL     1     -10.843  14.622  65.235  1.00  0.00    -0.328 OA 
BRANCH   4   6
HETATM    6  N   UNL     1     -11.658  13.313  66.906  1.00  0.00    -0.345 N  
HETATM    7  H   UNL     1     -12.187  13.738  67.668  1.00  0.00     0.000 HD 
BRANCH   6   8
HETATM    8  C   UNL     1     -10.859  12.123  67.180  1.00  0.00    -0.244 C  
HETATM    9  C   UNL     1      -9.653  12.044  66.235  1.00  0.00    -0.243 C  
HETATM   10  C   UNL     1      -8.628  13.144  66.518  1.00  0.00     0.153 C  
HETATM   11  C   UNL     1      -8.178  13.186  67.990  1.00  0.00    -0.158 C  
HETATM   12  C   UNL     1     -10.409  12.116  68.645  1.00  0.00    -0.211 C  
HETATM   13  C   UNL     1      -9.384  13.210  68.944  1.00  0.00     0.261 C  
BRANCH  11  14
HETATM   14  C   UNL     1      -7.236  12.022  68.354  1.00  0.00    -0.092 C  
BRANCH  14  15
HETATM   15  C   UNL     1      -6.697  12.069  69.790  1.00  0.00     0.077 C  
BRANCH  15  16
HETATM   16  N   UNL     1      -5.950  13.294  70.124  1.00  0.00    -0.147 NA 
HETATM   17  C   UNL     1      -5.566  14.081  68.927  1.00  0.00    -0.082 C  
HETATM   18  C   UNL     1      -6.751  14.709  68.156  1.00  0.00    -0.131 C  
HETATM   19  N   UNL     1      -7.589  15.511  69.073  1.00  0.00    -0.163 NA 
HETATM   20  C   UNL     1      -6.774  14.180  70.993  1.00  0.00     0.720 C  
HETATM   21  C   UNL     1      -8.013  14.778  70.278  1.00  0.00     0.828 C  
BRANCH  19  22
HETATM   22  C   UNL     1      -7.865  16.845  68.811  1.00  0.00    -0.250 A  
HETATM   23  C   UNL     1      -6.922  17.910  68.783  1.00  0.00    -0.262 A  
HETATM   24  C   UNL     1      -7.340  19.238  68.535  1.00  0.00    -0.320 A  
HETATM   25 CL   UNL     1      -5.203  17.631  68.907  1.00  0.00    -0.157 Cl 
HETATM   26  C   UNL     1      -8.674  19.527  68.252  1.00  0.00    -0.380 A  
HETATM   27 CL   UNL     1      -6.249  20.587  68.554  1.00  0.00    -0.351 Cl 
HETATM   28  C   UNL     1      -9.606  18.505  68.235  1.00  0.00    -0.370 A  
HETATM   29  C   UNL     1      -9.208  17.202  68.533  1.00  0.00    -0.264 A  
ENDBRANCH  19  22
ENDBRANCH  15  16
ENDBRANCH  14  15
ENDBRANCH  11  14
ENDBRANCH   6   8
ENDBRANCH   4   6
ENDBRANCH   2   4
TORSDOF 7
ENDMDL
MODEL      219
REMARK 921   NORMALIZED FREE ENERGY PREDICTED BY IDOCK:    6.51 KCAL/MOL
REMARK 922        TOTAL FREE ENERGY PREDICTED BY IDOCK:    8.40 KCAL/MOL
REMARK 923 INTER-LIGAND FREE ENERGY PREDICTED BY IDOCK:    0.44 KCAL/MOL
REMARK 924 INTRA-LIGAND FREE ENERGY PREDICTED BY IDOCK:    7.96 KCAL/MOL
REMARK 927      BINDING AFFINITY PREDICTED BY RF-SCORE:    0.00 PKD
ROOT
HETATM    1  C   UNL     1     -13.078  14.761  70.578  1.00  0.00    -0.228 C  
HETATM    2  N   UNL     1     -12.541  13.945  69.505  1.00  0.00    -0.092 N  
HETATM    3  C   UNL     1     -12.449  14.528  68.177  1.00  0.00     0.265 C  
ENDROOT
BRANCH   2   4
HETATM    4  C   UNL     1     -12.067  12.688  69.855  1.00  0.00    -0.252 C  
HETATM    5  O   UNL     1     -11.390  12.495  70.863  1.00  0.00     0.994 OA 
BRANCH   4   6
HETATM    6  N   UNL     1     -12.372  11.688  68.977  1.00  0.00    -0.078 N  
HETATM    7  H   UNL     1     -13.302  11.271  69.009  1.00  0.00     0.000 HD 
BRANCH   6   8
HETATM    8  C   UNL     1     -11.411  11.197  67.994  1.00  0.00    -0.293 C  
HETATM    9  C   UNL     1     -10.989  12.317  67.035  1.00  0.00    -0.314 C  
HETATM   10  C   UNL     1     -10.152  13.389  67.736  1.00  0.00    -0.232 C  
HETATM   11  C   UNL     1      -8.937  12.812  68.486  1.00  0.00    -0.046 C  
HETATM   12  C   UNL     1     -10.194  10.593  68.703  1.00  0.00    -0.196 C  
HETATM   13  C   UNL     1      -9.348  11.652  69.408  1.00  0.00     0.680 C  
BRANCH  11  14
HETATM   14  C   UNL     1      -7.813  12.361  67.532  1.00  0.00    -0.169 C  
BRANCH  14  15
HETATM   15  C   UNL     1      -6.865  11.310  68.124  1.00  0.00    -0.067 C  
BRANCH  15  16
HETATM   16  N   UNL     1      -6.606  11.462  69.567  1.00  0.00    -0.120 NA 
HETATM   17  C   UNL     1      -7.600  10.753  70.409  1.00  0.00     1.052 C  
HETATM   18  C   UNL     1      -7.556   9.210  70.305  1.00  0.00    -0.108 C  
HETATM   19  N   UNL     1      -6.186   8.720  70.570  1.00  0.00    -0.035 NA 
HETATM   20  C   UNL     1      -5.262  10.918  69.910  1.00  0.00    -0.044 C  
HETATM   21  C   UNL     1      -5.154   9.380  69.753  1.00  0.00    -0.034 C  
BRANCH  19  22
HETATM   22  C   UNL     1      -5.942   7.774  71.556  1.00  0.00    -0.035 A  
HETATM   23  C   UNL     1      -5.766   6.377  71.356  1.00  0.00    -0.027 A  
HETATM   24  C   UNL     1      -5.556   5.511  72.454  1.00  0.00    -0.018 A  
HETATM   25 CL   UNL     1      -5.657   5.674  69.761  1.00  0.00    -0.008 Cl 
HETATM   26  C   UNL     1      -5.455   6.012  73.751  1.00  0.00    -0.040 A  
HETATM   27 CL   UNL     1      -5.402   3.792  72.281  1.00  0.00     0.000 Cl 
HETATM   28  C   UNL     1      -5.583   7.372  73.970  1.00  0.00    -0.053 A  
HETATM   29  C   UNL     1      -5.846   8.223  72.896  1.00  0.00    -0.064 A  
ENDBRANCH  19  22
ENDBRANCH  15  16
ENDBRANCH  14  15
ENDBRANCH  11  14
ENDBRANCH   6   8
ENDBRANCH   4   6
ENDBRANCH   2   4
TORSDOF 7
ENDMDL
MODEL      220
REMARK 921   NORMALIZED FREE ENERGY PREDICTED BY IDOCK:    7.32 KCAL/MOL
REMARK 922        TOTAL FREE ENERGY PREDICTED BY IDOCK:    9.55 KCAL/MOL
REMARK 923 INTER-LIGAND FREE ENERGY PREDICTED BY IDOCK:   -4.53 KCAL/MOL
REMARK 924 INTRA-LIGAND FREE ENERGY PREDICTED BY IDOCK:   14.08 KCAL/MOL
REMARK 927      BINDING AFFINITY PREDICTED BY RF-SCORE:    0.00 PKD
ROOT
HETATM    1  C   UNL     1     -11.960  13.287  66.074  1.00  0.00    -0.423 C  
HETATM    2  N   UNL     1     -11.567  13.923  64.831  1.00  0.00    -0.343 N  
HETATM    3  C   UNL     1     -11.645  13.147  63.605  1.00  0.00    -0.390 C  
ENDROOT
BRANCH   2   4
HETATM    4  C   UNL     1     -11.232  15.269  64.899  1.00  0.00    -0.415 C  
HETATM    5  O   UNL     1     -12.036  16.164  64.646  1.00  0.00    -0.076 OA 
BRANCH   4   6
HETATM    6  N   UNL     1      -9.932  15.526  65.227  1.00  0.00    -0.295 N  
HETATM    7  H   UNL     1      -9.300  15.870  64.503  1.00  0.00     0.000 HD 
BRANCH   6   8
HETATM    8  C   UNL     1      -9.416  15.326  66.577  1.00  0.00    -0.283 C  
HETATM    9  C   UNL     1     -10.519  15.536  67.621  1.00  0.00    -0.279 C  
HETATM   10  C   UNL     1     -11.585  14.441  67.560  1.00  0.00    -0.398 C  
HETATM   11  C   UNL     1     -10.997  13.020  67.653  1.00  0.00    -0.277 C  
HETATM   12  C   UNL     1      -8.800  13.928  66.703  1.00  0.00    -0.105 C  
HETATM   13  C   UNL     1      -9.853  12.822  66.644  1.00  0.00    -0.250 C  
BRANCH  11  14
HETATM   14  C   UNL     1     -10.519  12.669  69.075  1.00  0.00    -0.026 C  
BRANCH  14  15
HETATM   15  C   UNL     1     -11.643  12.568  70.114  1.00  0.00    -0.069 C  
BRANCH  15  16
HETATM   16  N   UNL     1     -12.051  11.191  70.442  1.00  0.00    -0.356 NA 
HETATM   17  C   UNL     1     -12.532  10.434  69.261  1.00  0.00     0.460 C  
HETATM   18  C   UNL     1     -11.449  10.130  68.200  1.00  0.00     0.041 C  
HETATM   19  N   UNL     1     -10.293   9.457  68.830  1.00  0.00    -0.204 NA 
HETATM   20  C   UNL     1     -10.903  10.436  71.018  1.00  0.00     0.433 C  
HETATM   21  C   UNL     1      -9.761  10.169  70.004  1.00  0.00    -0.093 C  
BRANCH  19  22
HETATM   22  C   UNL     1      -9.833   8.234  68.361  1.00  0.00    -0.172 A  
HETATM   23  C   UNL     1      -8.483   7.785  68.364  1.00  0.00    -0.125 A  
HETATM   24  C   UNL     1      -8.140   6.525  67.822  1.00  0.00    -0.115 A  
HETATM   25 CL   UNL     1      -7.209   8.682  69.152  1.00  0.00    -0.063 Cl 
HETATM   26  C   UNL     1      -9.122   5.667  67.328  1.00  0.00    -0.110 A  
HETATM   27 CL   UNL     1      -6.505   5.951  67.738  1.00  0.00    -0.045 Cl 
HETATM   28  C   UNL     1     -10.447   6.062  67.348  1.00  0.00    -0.309 A  
HETATM   29  C   UNL     1     -10.784   7.327  67.830  1.00  0.00    -0.239 A  
ENDBRANCH  19  22
ENDBRANCH  15  16
ENDBRANCH  14  15
ENDBRANCH  11  14
ENDBRANCH   6   8
ENDBRANCH   4   6
ENDBRANCH   2   4
TORSDOF 7
ENDMDL
MODEL      221
REMARK 921   NORMALIZED FREE ENERGY PREDICTED BY IDOCK:    7.75 KCAL/MOL
REMARK 922        TOTAL FREE ENERGY PREDICTED BY IDOCK:   10.14 KCAL/MOL
REMARK 923 INTER-LIGAND FREE ENERGY PREDICTED BY IDOCK:    1.85 KCAL/MOL
REMARK 924 INTRA-LIGAND FREE ENERGY PREDICTED BY IDOCK:    8.29 KCAL/MOL
REMARK 927      BINDING AFFINITY PREDICTED BY RF-SCORE:    0.00 PKD
ROOT
HETATM    1  C   UNL     1     -13.297  14.744  70.632  1.00  0.00    -0.171 C  
HETATM    2  N   UNL     1     -13.014  13.617  69.763  1.00  0.00     0.398 N  
HETATM    3  C   UNL     1     -13.013  13.839  68.327  1.00  0.00     2.015 C  
ENDROOT
BRANCH   2   4
HETATM    4  C   UNL     1     -12.673  12.422  70.383  1.00  0.00     0.107 C  
HETATM    5  O   UNL     1     -12.024  12.382  71.426  1.00  0.00     0.313 OA 
BRANCH   4   6
HETATM    6  N   UNL     1     -13.074  11.295  69.727  1.00  0.00     0.414 N  
HETATM    7  H   UNL     1     -13.977  10.882  69.962  1.00  0.00     0.000 HD 
BRANCH   6   8
HETATM    8  C   UNL     1     -12.253  10.658  68.701  1.00  0.00     0.405 C  
HETATM    9  C   UNL     1     -12.066  11.587  67.496  1.00  0.00     0.264 C  
HETATM   10  C   UNL     1     -11.202  12.803  67.835  1.00  0.00    -0.315 C  
HETATM   11  C   UNL     1      -9.845  12.424  68.460  1.00  0.00    -0.156 C  
HETATM   12  C   UNL     1     -10.900  10.245  69.291  1.00  0.00    -0.275 C  
HETATM   13  C   UNL     1     -10.024  11.449  69.636  1.00  0.00     0.572 C  
BRANCH  11  14
HETATM   14  C   UNL     1      -8.862  11.838  67.428  1.00  0.00    -0.164 C  
BRANCH  14  15
HETATM   15  C   UNL     1      -8.233  10.502  67.841  1.00  0.00    -0.107 C  
BRANCH  15  16
HETATM   16  N   UNL     1      -9.164   9.360  67.839  1.00  0.00    -0.130 NA 
HETATM   17  C   UNL     1      -9.652   9.016  66.481  1.00  0.00    -0.223 C  
HETATM   18  C   UNL     1      -8.570   8.461  65.525  1.00  0.00    -0.176 C  
HETATM   19  N   UNL     1      -7.877   7.314  66.148  1.00  0.00    -0.104 NA 
HETATM   20  C   UNL     1      -8.497   8.149  68.393  1.00  0.00    -0.126 C  
HETATM   21  C   UNL     1      -7.358   7.600  67.497  1.00  0.00    -0.095 C  
BRANCH  19  22
HETATM   22  C   UNL     1      -7.808   6.084  65.509  1.00  0.00    -0.105 A  
HETATM   23  C   UNL     1      -6.699   5.577  64.777  1.00  0.00    -0.044 A  
HETATM   24  C   UNL     1      -6.769   4.316  64.141  1.00  0.00    -0.044 A  
HETATM   25 CL   UNL     1      -5.159   6.398  64.738  1.00  0.00    -0.017 Cl 
HETATM   26  C   UNL     1      -7.903   3.513  64.267  1.00  0.00    -0.085 A  
HETATM   27 CL   UNL     1      -5.476   3.673  63.180  1.00  0.00    -0.008 Cl 
HETATM   28  C   UNL     1      -8.982   3.965  65.005  1.00  0.00    -0.131 A  
HETATM   29  C   UNL     1      -8.938   5.232  65.588  1.00  0.00    -0.160 A  
ENDBRANCH  19  22
ENDBRANCH  15  16
ENDBRANCH  14  15
ENDBRANCH  11  14
ENDBRANCH   6   8
ENDBRANCH   4   6
ENDBRANCH   2   4
TORSDOF 7
ENDMDL
MODEL      222
REMARK 921   NORMALIZED FREE ENERGY PREDICTED BY IDOCK:    8.66 KCAL/MOL
REMARK 922        TOTAL FREE ENERGY PREDICTED BY IDOCK:   11.43 KCAL/MOL
REMARK 923 INTER-LIGAND FREE ENERGY PREDICTED BY IDOCK:   -1.29 KCAL/MOL
REMARK 924 INTRA-LIGAND FREE ENERGY PREDICTED BY IDOCK:   12.72 KCAL/MOL
REMARK 927      BINDING AFFINITY PREDICTED BY RF-SCORE:    0.00 PKD
ROOT
HETATM    1  C   UNL     1      -9.326   3.573  69.925  1.00  0.00    -0.177 C  
HETATM    2  N   UNL     1     -10.273   3.948  70.957  1.00  0.00     0.048 N  
HETATM    3  C   UNL     1     -10.866   2.894  71.764  1.00  0.00     1.141 C  
ENDROOT
BRANCH   2   4
HETATM    4  C   UNL     1     -10.471   5.308  71.158  1.00  0.00    -0.205 C  
HETATM    5  O   UNL     1      -9.654   6.015  71.744  1.00  0.00    -0.152 OA 
BRANCH   4   6
HETATM    6  N   UNL     1     -11.658   5.795  70.694  1.00  0.00     0.087 N  
HETATM    7  H   UNL     1     -12.487   5.201  70.740  1.00  0.00     0.000 HD 
BRANCH   6   8
HETATM    8  C   UNL     1     -11.783   7.137  70.133  1.00  0.00    -0.120 C  
HETATM    9  C   UNL     1     -12.133   8.155  71.224  1.00  0.00    -0.313 C  
HETATM   10  C   UNL     1     -10.979   8.366  72.206  1.00  0.00    -0.431 C  
HETATM   11  C   UNL     1      -9.653   8.730  71.511  1.00  0.00    -0.354 C  
HETATM   12  C   UNL     1     -10.489   7.528  69.411  1.00  0.00    -0.222 C  
HETATM   13  C   UNL     1      -9.325   7.742  70.379  1.00  0.00    -0.160 C  
BRANCH  11  14
HETATM   14  C   UNL     1      -9.644  10.175  70.975  1.00  0.00     1.239 C  
BRANCH  14  15
HETATM   15  C   UNL     1     -10.941  10.599  70.276  1.00  0.00    -0.164 C  
BRANCH  15  16
HETATM   16  N   UNL     1     -10.779  10.977  68.861  1.00  0.00    -0.199 NA 
HETATM   17  C   UNL     1      -9.388  11.365  68.523  1.00  0.00    -0.180 C  
HETATM   18  C   UNL     1      -8.357  10.214  68.597  1.00  0.00    -0.116 C  
HETATM   19  N   UNL     1      -8.807   9.073  67.772  1.00  0.00    -0.125 NA 
HETATM   20  C   UNL     1     -11.151   9.837  67.976  1.00  0.00    -0.106 C  
HETATM   21  C   UNL     1     -10.180   8.632  68.071  1.00  0.00    -0.210 C  
BRANCH  19  22
HETATM   22  C   UNL     1      -7.997   8.545  66.776  1.00  0.00    -0.094 A  
HETATM   23  C   UNL     1      -7.100   7.450  66.912  1.00  0.00    -0.083 A  
HETATM   24  C   UNL     1      -6.302   7.030  65.823  1.00  0.00    -0.046 A  
HETATM   25 CL   UNL     1      -7.033   6.481  68.363  1.00  0.00    -0.078 Cl 
HETATM   26  C   UNL     1      -6.419   7.638  64.574  1.00  0.00    -0.044 A  
HETATM   27 CL   UNL     1      -5.143   5.745  65.946  1.00  0.00    -0.009 Cl 
HETATM   28  C   UNL     1      -7.312   8.681  64.402  1.00  0.00    -0.103 A  
HETATM   29  C   UNL     1      -8.061   9.135  65.489  1.00  0.00    -0.115 A  
ENDBRANCH  19  22
ENDBRANCH  15  16
ENDBRANCH  14  15
ENDBRANCH  11  14
ENDBRANCH   6   8
ENDBRANCH   4   6
ENDBRANCH   2   4
TORSDOF 7
ENDMDL
MODEL      223
REMARK 921   NORMALIZED FREE ENERGY PREDICTED BY IDOCK:    9.22 KCAL/MOL
REMARK 922        TOTAL FREE ENERGY PREDICTED BY IDOCK:   12.23 KCAL/MOL
REMARK 923 INTER-LIGAND FREE ENERGY PREDICTED BY IDOCK:    2.94 KCAL/MOL
REMARK 924 INTRA-LIGAND FREE ENERGY PREDICTED BY IDOCK:    9.28 KCAL/MOL
REMARK 927      BINDING AFFINITY PREDICTED BY RF-SCORE:    0.00 PKD
ROOT
HETATM    1  C   UNL     1     -12.133   7.911  70.135  1.00  0.00     0.507 C  
HETATM    2  N   UNL     1     -11.114   7.301  69.303  1.00  0.00    -0.096 N  
HETATM    3  C   UNL     1      -9.754   7.805  69.397  1.00  0.00    -0.169 C  
ENDROOT
BRANCH   2   4
HETATM    4  C   UNL     1     -11.504   6.208  68.539  1.00  0.00     0.301 C  
HETATM    5  O   UNL     1     -11.501   5.061  68.979  1.00  0.00     1.818 OA 
BRANCH   4   6
HETATM    6  N   UNL     1     -11.851   6.497  67.251  1.00  0.00    -0.147 N  
HETATM    7  H   UNL     1     -12.573   7.198  67.080  1.00  0.00     0.000 HD 
BRANCH   6   8
HETATM    8  C   UNL     1     -11.225   5.836  66.110  1.00  0.00     0.629 C  
HETATM    9  C   UNL     1      -9.892   6.505  65.754  1.00  0.00     0.484 C  
HETATM   10  C   UNL     1      -8.829   6.277  66.831  1.00  0.00    -0.115 C  
HETATM   11  C   UNL     1      -8.629   4.789  67.176  1.00  0.00    -0.104 C  
HETATM   12  C   UNL     1     -11.030   4.346  66.406  1.00  0.00     1.088 C  
HETATM   13  C   UNL     1      -9.971   4.101  67.481  1.00  0.00    -0.061 C  
BRANCH  11  14
HETATM   14  C   UNL     1      -7.876   4.022  66.073  1.00  0.00    -0.090 C  
BRANCH  14  15
HETATM   15  C   UNL     1      -6.589   3.334  66.547  1.00  0.00    -0.041 C  
BRANCH  15  16
HETATM   16  N   UNL     1      -5.696   4.190  67.348  1.00  0.00    -0.021 NA 
HETATM   17  C   UNL     1      -6.348   5.445  67.794  1.00  0.00    -0.039 C  
HETATM   18  C   UNL     1      -7.496   5.253  68.813  1.00  0.00    -0.074 C  
HETATM   19  N   UNL     1      -7.026   4.458  69.967  1.00  0.00    -0.041 NA 
HETATM   20  C   UNL     1      -5.244   3.464  68.568  1.00  0.00    -0.012 C  
HETATM   21  C   UNL     1      -6.380   3.190  69.587  1.00  0.00    -0.029 C  
BRANCH  19  22
HETATM   22  C   UNL     1      -7.147   4.936  71.264  1.00  0.00    -0.052 A  
HETATM   23  C   UNL     1      -8.299   4.841  72.093  1.00  0.00    -0.119 A  
HETATM   24  C   UNL     1      -8.303   5.402  73.391  1.00  0.00    -0.114 A  
HETATM   25 CL   UNL     1      -9.704   3.916  71.626  1.00  0.00    -0.232 Cl 
HETATM   26  C   UNL     1      -7.161   6.009  73.912  1.00  0.00    -0.084 A  
HETATM   27 CL   UNL     1      -9.698   5.376  74.423  1.00  0.00    -0.170 Cl 
HETATM   28  C   UNL     1      -6.014   6.082  73.142  1.00  0.00    -0.049 A  
HETATM   29  C   UNL     1      -6.023   5.578  71.841  1.00  0.00    -0.026 A  
ENDBRANCH  19  22
ENDBRANCH  15  16
ENDBRANCH  14  15
ENDBRANCH  11  14
ENDBRANCH   6   8
ENDBRANCH   4   6
ENDBRANCH   2   4
TORSDOF 7
ENDMDL
MODEL      224
REMARK 921   NORMALIZED FREE ENERGY PREDICTED BY IDOCK:   10.21 KCAL/MOL
REMARK 922        TOTAL FREE ENERGY PREDICTED BY IDOCK:   13.62 KCAL/MOL
REMARK 923 INTER-LIGAND FREE ENERGY PREDICTED BY IDOCK:   -3.25 KCAL/MOL
REMARK 924 INTRA-LIGAND FREE ENERGY PREDICTED BY IDOCK:   16.87 KCAL/MOL
REMARK 927      BINDING AFFINITY PREDICTED BY RF-SCORE:    0.00 PKD
ROOT
HETATM    1  C   UNL     1      -7.371   9.274  68.292  1.00  0.00    -0.078 C  
HETATM    2  N   UNL     1      -7.324   9.604  66.880  1.00  0.00    -0.090 N  
HETATM    3  C   UNL     1      -7.377  11.006  66.499  1.00  0.00    -0.144 C  
ENDROOT
BRANCH   2   4
HETATM    4  C   UNL     1      -7.138   8.548  65.998  1.00  0.00    -0.076 C  
HETATM    5  O   UNL     1      -7.601   7.427  66.203  1.00  0.00    -0.084 OA 
BRANCH   4   6
HETATM    6  N   UNL     1      -6.368   8.832  64.908  1.00  0.00    -0.065 N  
HETATM    7  H   UNL     1      -5.500   9.354  65.040  1.00  0.00     0.000 HD 
BRANCH   6   8
HETATM    8  C   UNL     1      -6.743   8.417  63.561  1.00  0.00    -0.084 C  
HETATM    9  C   UNL     1      -5.917   7.205  63.112  1.00  0.00    -0.041 C  
HETATM   10  C   UNL     1      -6.268   5.944  63.905  1.00  0.00    -0.025 C  
HETATM   11  C   UNL     1      -7.775   5.624  63.894  1.00  0.00    -0.095 C  
HETATM   12  C   UNL     1      -8.243   8.110  63.503  1.00  0.00    -0.058 C  
HETATM   13  C   UNL     1      -8.611   6.853  64.291  1.00  0.00     0.395 C  
BRANCH  11  14
HETATM   14  C   UNL     1      -8.253   5.071  62.537  1.00  0.00    -0.093 C  
BRANCH  14  15
HETATM   15  C   UNL     1      -8.246   3.541  62.440  1.00  0.00    -0.072 C  
BRANCH  15  16
HETATM   16  N   UNL     1      -8.008   2.847  63.718  1.00  0.00    -0.080 NA 
HETATM   17  C   UNL     1      -7.285   3.686  64.704  1.00  0.00    -0.066 C  
HETATM   18  C   UNL     1      -8.079   4.907  65.223  1.00  0.00    -0.115 C  
HETATM   19  N   UNL     1      -9.390   4.476  65.752  1.00  0.00    -0.151 NA 
HETATM   20  C   UNL     1      -9.304   2.448  64.337  1.00  0.00    -0.135 C  
HETATM   21  C   UNL     1     -10.163   3.648  64.810  1.00  0.00    -0.101 C  
BRANCH  19  22
HETATM   22  C   UNL     1      -9.781   4.792  67.045  1.00  0.00    -0.186 A  
HETATM   23  C   UNL     1      -9.468   4.057  68.222  1.00  0.00    -0.156 A  
HETATM   24  C   UNL     1      -9.959   4.469  69.483  1.00  0.00    -0.165 A  
HETATM   25 CL   UNL     1      -8.360   2.708  68.207  1.00  0.00    -0.083 Cl 
HETATM   26  C   UNL     1     -10.709   5.638  69.611  1.00  0.00    -0.398 A  
HETATM   27 CL   UNL     1      -9.666   3.579  70.943  1.00  0.00    -0.243 Cl 
HETATM   28  C   UNL     1     -10.996   6.393  68.488  1.00  0.00    -0.396 A  
HETATM   29  C   UNL     1     -10.561   5.960  67.235  1.00  0.00    -0.365 A  
ENDBRANCH  19  22
ENDBRANCH  15  16
ENDBRANCH  14  15
ENDBRANCH  11  14
ENDBRANCH   6   8
ENDBRANCH   4   6
ENDBRANCH   2   4
TORSDOF 7
ENDMDL
MODEL      225
REMARK 921   NORMALIZED FREE ENERGY PREDICTED BY IDOCK:   10.80 KCAL/MOL
REMARK 922        TOTAL FREE ENERGY PREDICTED BY IDOCK:   14.44 KCAL/MOL
REMARK 923 INTER-LIGAND FREE ENERGY PREDICTED BY IDOCK:    4.77 KCAL/MOL
REMARK 924 INTRA-LIGAND FREE ENERGY PREDICTED BY IDOCK:    9.68 KCAL/MOL
REMARK 927      BINDING AFFINITY PREDICTED BY RF-SCORE:    0.00 PKD
ROOT
HETATM    1  C   UNL     1     -13.364  14.753  70.661  1.00  0.00    -0.171 C  
HETATM    2  N   UNL     1     -13.136  13.478  70.008  1.00  0.00     0.413 N  
HETATM    3  C   UNL     1     -13.114  13.441  68.555  1.00  0.00     2.597 C  
ENDROOT
BRANCH   2   4
HETATM    4  C   UNL     1     -12.860  12.395  70.834  1.00  0.00    -0.090 C  
HETATM    5  O   UNL     1     -12.262  12.514  71.901  1.00  0.00     0.366 OA 
BRANCH   4   6
HETATM    6  N   UNL     1     -13.265  11.183  70.354  1.00  0.00     0.172 N  
HETATM    7  H   UNL     1     -14.184  10.830  70.620  1.00  0.00     0.000 HD 
BRANCH   6   8
HETATM    8  C   UNL     1     -12.427  10.376  69.473  1.00  0.00     0.205 C  
HETATM    9  C   UNL     1     -12.152  11.110  68.156  1.00  0.00     0.047 C  
HETATM   10  C   UNL     1     -11.256  12.334  68.355  1.00  0.00    -0.311 C  
HETATM   11  C   UNL     1      -9.944  12.008  69.093  1.00  0.00     0.241 C  
HETATM   12  C   UNL     1     -11.118  10.011  70.182  1.00  0.00    -0.371 C  
HETATM   13  C   UNL     1     -10.211  11.223  70.389  1.00  0.00     1.814 C  
BRANCH  11  14
HETATM   14  C   UNL     1      -8.940  11.244  68.206  1.00  0.00    -0.172 C  
BRANCH  14  15
HETATM   15  C   UNL     1      -8.433   9.930  68.812  1.00  0.00    -0.122 C  
BRANCH  15  16
HETATM   16  N   UNL     1      -9.482   8.926  69.063  1.00  0.00    -0.155 NA 
HETATM   17  C   UNL     1     -10.136   8.453  67.819  1.00  0.00    -0.207 C  
HETATM   18  C   UNL     1      -9.223   7.634  66.876  1.00  0.00    -0.145 C  
HETATM   19  N   UNL     1      -8.605   6.512  67.613  1.00  0.00    -0.117 NA 
HETATM   20  C   UNL     1      -8.903   7.733  69.743  1.00  0.00    -0.139 C  
HETATM   21  C   UNL     1      -7.927   6.921  68.854  1.00  0.00    -0.116 C  
BRANCH  19  22
HETATM   22  C   UNL     1      -8.738   5.203  67.169  1.00  0.00    -0.103 A  
HETATM   23  C   UNL     1      -9.501   4.177  67.791  1.00  0.00    -0.175 A  
HETATM   24  C   UNL     1      -9.526   2.869  67.253  1.00  0.00    -0.068 A  
HETATM   25 CL   UNL     1     -10.551   4.494  69.149  1.00  0.00     0.476 Cl 
HETATM   26  C   UNL     1      -8.854   2.569  66.069  1.00  0.00    -0.132 A  
HETATM   27 CL   UNL     1     -10.383   1.560  68.002  1.00  0.00     1.237 Cl 
HETATM   28  C   UNL     1      -8.135   3.558  65.422  1.00  0.00    -0.097 A  
HETATM   29  C   UNL     1      -8.062   4.836  65.979  1.00  0.00    -0.107 A  
ENDBRANCH  19  22
ENDBRANCH  15  16
ENDBRANCH  14  15
ENDBRANCH  11  14
ENDBRANCH   6   8
ENDBRANCH   4   6
ENDBRANCH   2   4
TORSDOF 7
ENDMDL
MODEL      226
REMARK 921   NORMALIZED FREE ENERGY PREDICTED BY IDOCK:   10.97 KCAL/MOL
REMARK 922        TOTAL FREE ENERGY PREDICTED BY IDOCK:   14.69 KCAL/MOL
REMARK 923 INTER-LIGAND FREE ENERGY PREDICTED BY IDOCK:    0.52 KCAL/MOL
REMARK 924 INTRA-LIGAND FREE ENERGY PREDICTED BY IDOCK:   14.17 KCAL/MOL
REMARK 927      BINDING AFFINITY PREDICTED BY RF-SCORE:    0.00 PKD
ROOT
HETATM    1  C   UNL     1     -10.078   7.563  71.113  1.00  0.00    -0.188 C  
HETATM    2  N   UNL     1     -10.862   7.219  72.284  1.00  0.00    -0.227 N  
HETATM    3  C   UNL     1     -10.608   7.942  73.519  1.00  0.00     0.148 C  
ENDROOT
BRANCH   2   4
HETATM    4  C   UNL     1     -11.869   6.279  72.107  1.00  0.00    -0.315 C  
HETATM    5  O   UNL     1     -11.655   5.161  71.643  1.00  0.00     0.314 OA 
BRANCH   4   6
HETATM    6  N   UNL     1     -13.122   6.702  72.446  1.00  0.00    -0.406 N  
HETATM    7  H   UNL     1     -13.774   6.033  72.856  1.00  0.00     0.000 HD 
BRANCH   6   8
HETATM    8  C   UNL     1     -13.560   8.079  72.241  1.00  0.00    -0.081 C  
HETATM    9  C   UNL     1     -12.393   9.057  72.423  1.00  0.00    -0.350 C  
HETATM   10  C   UNL     1     -11.352   8.923  71.310  1.00  0.00    -0.371 C  
HETATM   11  C   UNL     1     -11.959   9.039  69.899  1.00  0.00     0.530 C  
HETATM   12  C   UNL     1     -14.192   8.230  70.854  1.00  0.00     0.099 C  
HETATM   13  C   UNL     1     -13.165   8.099  69.729  1.00  0.00     3.398 C  
BRANCH  11  14
HETATM   14  C   UNL     1     -12.358  10.485  69.542  1.00  0.00    -0.068 C  
BRANCH  14  15
HETATM   15  C   UNL     1     -11.190  11.479  69.533  1.00  0.00    -0.236 C  
BRANCH  15  16
HETATM   16  N   UNL     1     -10.578  11.693  68.210  1.00  0.00    -0.197 NA 
HETATM   17  C   UNL     1      -9.120  11.424  68.197  1.00  0.00    -0.174 C  
HETATM   18  C   UNL     1      -8.732   9.943  68.418  1.00  0.00    -0.120 C  
HETATM   19  N   UNL     1      -9.441   9.080  67.450  1.00  0.00    -0.141 NA 
HETATM   20  C   UNL     1     -11.206  10.795  67.200  1.00  0.00    -0.147 C  
HETATM   21  C   UNL     1     -10.898   9.292  67.425  1.00  0.00    -0.095 C  
BRANCH  19  22
HETATM   22  C   UNL     1      -8.745   8.214  66.618  1.00  0.00    -0.139 A  
HETATM   23  C   UNL     1      -7.569   8.520  65.878  1.00  0.00    -0.085 A  
HETATM   24  C   UNL     1      -6.974   7.553  65.035  1.00  0.00    -0.058 A  
HETATM   25 CL   UNL     1      -6.720  10.034  66.070  1.00  0.00    -0.093 Cl 
HETATM   26  C   UNL     1      -7.488   6.259  64.956  1.00  0.00    -0.083 A  
HETATM   27 CL   UNL     1      -5.580   7.887  64.059  1.00  0.00    -0.047 Cl 
HETATM   28  C   UNL     1      -8.608   5.923  65.695  1.00  0.00    -0.155 A  
HETATM   29  C   UNL     1      -9.231   6.889  66.484  1.00  0.00    -0.195 A  
ENDBRANCH  19  22
ENDBRANCH  15  16
ENDBRANCH  14  15
ENDBRANCH  11  14
ENDBRANCH   6   8
ENDBRANCH   4   6
ENDBRANCH   2   4
TORSDOF 7
ENDMDL
MODEL      227
REMARK 921   NORMALIZED FREE ENERGY PREDICTED BY IDOCK:   12.41 KCAL/MOL
REMARK 922        TOTAL FREE ENERGY PREDICTED BY IDOCK:   16.72 KCAL/MOL
REMARK 923 INTER-LIGAND FREE ENERGY PREDICTED BY IDOCK:    7.81 KCAL/MOL
REMARK 924 INTRA-LIGAND FREE ENERGY PREDICTED BY IDOCK:    8.91 KCAL/MOL
REMARK 927      BINDING AFFINITY PREDICTED BY RF-SCORE:    0.00 PKD
ROOT
HETATM    1  C   UNL     1     -12.286  11.931  63.756  1.00  0.00    -0.444 C  
HETATM    2  N   UNL     1     -11.399  13.019  63.390  1.00  0.00    -0.286 N  
HETATM    3  C   UNL     1     -10.251  12.719  62.550  1.00  0.00     3.894 C  
ENDROOT
BRANCH   2   4
HETATM    4  C   UNL     1     -11.772  14.293  63.801  1.00  0.00     0.144 C  
HETATM    5  O   UNL     1     -12.942  14.671  63.799  1.00  0.00    -0.434 OA 
BRANCH   4   6
HETATM    6  N   UNL     1     -10.741  15.108  64.166  1.00  0.00    -0.078 N  
HETATM    7  H   UNL     1      -9.938  15.198  63.543  1.00  0.00     0.000 HD 
BRANCH   6   8
HETATM    8  C   UNL     1     -10.747  15.856  65.420  1.00  0.00    -0.399 C  
HETATM    9  C   UNL     1     -10.901  14.913  66.619  1.00  0.00    -0.319 C  
HETATM   10  C   UNL     1      -9.666  14.034  66.821  1.00  0.00    -0.283 C  
HETATM   11  C   UNL     1      -8.358  14.842  66.915  1.00  0.00    -0.212 C  
HETATM   12  C   UNL     1      -9.469  16.693  65.540  1.00  0.00     0.259 C  
HETATM   13  C   UNL     1      -8.225  15.829  65.743  1.00  0.00     1.131 C  
BRANCH  11  14
HETATM   14  C   UNL     1      -8.219  15.588  68.257  1.00  0.00    -0.142 C  
BRANCH  14  15
HETATM   15  C   UNL     1      -8.517  14.729  69.492  1.00  0.00     0.091 C  
BRANCH  15  16
HETATM   16  N   UNL     1      -9.159  13.436  69.198  1.00  0.00     0.452 NA 
HETATM   17  C   UNL     1      -8.827  12.921  67.847  1.00  0.00    -0.190 C  
HETATM   18  C   UNL     1      -7.346  12.520  67.651  1.00  0.00    -0.134 C  
HETATM   19  N   UNL     1      -6.934  11.564  68.700  1.00  0.00    -0.082 NA 
HETATM   20  C   UNL     1      -8.723  12.408  70.185  1.00  0.00     4.172 C  
HETATM   21  C   UNL     1      -7.225  12.026  70.068  1.00  0.00     1.029 C  
BRANCH  19  22
HETATM   22  C   UNL     1      -6.387  10.331  68.373  1.00  0.00    -0.048 A  
HETATM   23  C   UNL     1      -6.233   9.801  67.062  1.00  0.00    -0.064 A  
HETATM   24  C   UNL     1      -5.690   8.510  66.865  1.00  0.00    -0.041 A  
HETATM   25 CL   UNL     1      -6.563  10.747  65.633  1.00  0.00    -0.075 Cl 
HETATM   26  C   UNL     1      -5.236   7.752  67.944  1.00  0.00    -0.031 A  
HETATM   27 CL   UNL     1      -5.537   7.783  65.297  1.00  0.00    -0.036 Cl 
HETATM   28  C   UNL     1      -5.339   8.259  69.227  1.00  0.00    -0.031 A  
HETATM   29  C   UNL     1      -5.925   9.509  69.430  1.00  0.00    -0.033 A  
ENDBRANCH  19  22
ENDBRANCH  15  16
ENDBRANCH  14  15
ENDBRANCH  11  14
ENDBRANCH   6   8
ENDBRANCH   4   6
ENDBRANCH   2   4
TORSDOF 7
ENDMDL
MODEL      228
REMARK 921   NORMALIZED FREE ENERGY PREDICTED BY IDOCK:   13.02 KCAL/MOL
REMARK 922        TOTAL FREE ENERGY PREDICTED BY IDOCK:   17.58 KCAL/MOL
REMARK 923 INTER-LIGAND FREE ENERGY PREDICTED BY IDOCK:   -2.33 KCAL/MOL
REMARK 924 INTRA-LIGAND FREE ENERGY PREDICTED BY IDOCK:   19.92 KCAL/MOL
REMARK 927      BINDING AFFINITY PREDICTED BY RF-SCORE:    0.00 PKD
ROOT
HETATM    1  C   UNL     1     -12.032  10.033  71.858  1.00  0.00    -0.013 C  
HETATM    2  N   UNL     1     -12.266   9.137  70.741  1.00  0.00    -0.171 N  
HETATM    3  C   UNL     1     -12.032   9.636  69.397  1.00  0.00     0.577 C  
ENDROOT
BRANCH   2   4
HETATM    4  C   UNL     1     -12.611   7.828  71.053  1.00  0.00    -0.115 C  
HETATM    5  O   UNL     1     -13.604   7.277  70.583  1.00  0.00     0.124 OA 
BRANCH   4   6
HETATM    6  N   UNL     1     -11.789   7.211  71.952  1.00  0.00    -0.289 N  
HETATM    7  H   UNL     1     -11.687   6.197  71.911  1.00  0.00     0.000 HD 
BRANCH   6   8
HETATM    8  C   UNL     1     -11.053   7.954  72.970  1.00  0.00    -0.314 C  
HETATM    9  C   UNL     1     -10.530   7.014  74.062  1.00  0.00    -0.222 C  
HETATM   10  C   UNL     1      -9.433   6.083  73.543  1.00  0.00    -0.139 C  
HETATM   11  C   UNL     1      -8.277   6.835  72.858  1.00  0.00    -0.114 C  
HETATM   12  C   UNL     1      -9.905   8.736  72.324  1.00  0.00    -0.295 C  
HETATM   13  C   UNL     1      -8.800   7.820  71.799  1.00  0.00    -0.150 C  
BRANCH  11  14
HETATM   14  C   UNL     1      -7.370   7.570  73.865  1.00  0.00    -0.122 C  
BRANCH  14  15
HETATM   15  C   UNL     1      -6.303   8.464  73.221  1.00  0.00    -0.103 C  
BRANCH  15  16
HETATM   16  N   UNL     1      -5.642   7.877  72.042  1.00  0.00    -0.035 NA 
HETATM   17  C   UNL     1      -5.333   6.436  72.212  1.00  0.00    -0.032 C  
HETATM   18  C   UNL     1      -6.571   5.513  72.294  1.00  0.00    -0.058 C  
HETATM   19  N   UNL     1      -7.451   5.735  71.127  1.00  0.00    -0.089 NA 
HETATM   20  C   UNL     1      -6.515   8.007  70.842  1.00  0.00    -0.037 C  
HETATM   21  C   UNL     1      -7.804   7.149  70.913  1.00  0.00    -0.095 C  
BRANCH  19  22
HETATM   22  C   UNL     1      -7.826   4.684  70.301  1.00  0.00    -0.057 A  
HETATM   23  C   UNL     1      -7.037   4.098  69.273  1.00  0.00    -0.050 A  
HETATM   24  C   UNL     1      -7.553   3.049  68.476  1.00  0.00    -0.048 A  
HETATM   25 CL   UNL     1      -5.364   4.529  69.028  1.00  0.00    -0.010 Cl 
HETATM   26  C   UNL     1      -8.821   2.523  68.719  1.00  0.00    -0.154 A  
HETATM   27 CL   UNL     1      -6.665   2.339  67.166  1.00  0.00    -0.039 Cl 
HETATM   28  C   UNL     1      -9.595   3.048  69.739  1.00  0.00    -0.108 A  
HETATM   29  C   UNL     1      -9.113   4.120  70.490  1.00  0.00    -0.176 A  
ENDBRANCH  19  22
ENDBRANCH  15  16
ENDBRANCH  14  15
ENDBRANCH  11  14
ENDBRANCH   6   8
ENDBRANCH   4   6
ENDBRANCH   2   4
TORSDOF 7
ENDMDL
MODEL      229
REMARK 921   NORMALIZED FREE ENERGY PREDICTED BY IDOCK:   14.07 KCAL/MOL
REMARK 922        TOTAL FREE ENERGY PREDICTED BY IDOCK:   19.05 KCAL/MOL
REMARK 923 INTER-LIGAND FREE ENERGY PREDICTED BY IDOCK:    6.57 KCAL/MOL
REMARK 924 INTRA-LIGAND FREE ENERGY PREDICTED BY IDOCK:   12.48 KCAL/MOL
REMARK 927      BINDING AFFINITY PREDICTED BY RF-SCORE:    0.00 PKD
ROOT
HETATM    1  C   UNL     1     -12.450  14.800  63.637  1.00  0.00     0.602 C  
HETATM    2  N   UNL     1     -11.738  13.539  63.723  1.00  0.00    -0.371 N  
HETATM    3  C   UNL     1     -11.734  12.669  62.559  1.00  0.00     2.043 C  
ENDROOT
BRANCH   2   4
HETATM    4  C   UNL     1     -11.031  13.301  64.895  1.00  0.00    -0.330 C  
HETATM    5  O   UNL     1     -10.691  14.204  65.656  1.00  0.00    -0.294 OA 
BRANCH   4   6
HETATM    6  N   UNL     1     -10.704  11.995  65.118  1.00  0.00    -0.278 N  
HETATM    7  H   UNL     1     -11.426  11.356  65.451  1.00  0.00     0.000 HD 
BRANCH   6   8
HETATM    8  C   UNL     1      -9.355  11.482  64.898  1.00  0.00    -0.068 C  
HETATM    9  C   UNL     1      -8.302  12.506  65.340  1.00  0.00     1.854 C  
HETATM   10  C   UNL     1      -8.287  12.697  66.858  1.00  0.00    -0.078 C  
HETATM   11  C   UNL     1      -8.135  11.373  67.632  1.00  0.00    -0.124 C  
HETATM   12  C   UNL     1      -9.170  10.152  65.635  1.00  0.00    -0.232 C  
HETATM   13  C   UNL     1      -9.154  10.325  67.154  1.00  0.00    -0.156 C  
BRANCH  11  14
HETATM   14  C   UNL     1      -6.706  10.802  67.551  1.00  0.00    -0.073 C  
BRANCH  14  15
HETATM   15  C   UNL     1      -5.915  10.887  68.862  1.00  0.00    -0.040 C  
BRANCH  15  16
HETATM   16  N   UNL     1      -5.683  12.258  69.349  1.00  0.00    -0.077 NA 
HETATM   17  C   UNL     1      -5.952  13.290  68.318  1.00  0.00    -0.090 C  
HETATM   18  C   UNL     1      -7.435  13.418  67.899  1.00  0.00    -0.149 C  
HETATM   19  N   UNL     1      -8.286  13.622  69.091  1.00  0.00     0.294 NA 
HETATM   20  C   UNL     1      -6.569  12.549  70.512  1.00  0.00     0.949 C  
HETATM   21  C   UNL     1      -8.074  12.618  70.147  1.00  0.00     3.402 C  
BRANCH  19  22
HETATM   22  C   UNL     1      -9.141  14.711  69.183  1.00  0.00    -0.029 A  
HETATM   23  C   UNL     1     -10.559  14.663  69.278  1.00  0.00    -0.226 A  
HETATM   24  C   UNL     1     -11.320  15.853  69.333  1.00  0.00    -0.349 A  
HETATM   25 CL   UNL     1     -11.425  13.160  69.475  1.00  0.00    -0.315 Cl 
HETATM   26  C   UNL     1     -10.697  17.100  69.357  1.00  0.00    -0.086 A  
HETATM   27 CL   UNL     1     -13.055  15.860  69.382  1.00  0.00     0.982 Cl 
HETATM   28  C   UNL     1      -9.317  17.176  69.305  1.00  0.00     0.057 A  
HETATM   29  C   UNL     1      -8.565  16.006  69.195  1.00  0.00    -0.247 A  
ENDBRANCH  19  22
ENDBRANCH  15  16
ENDBRANCH  14  15
ENDBRANCH  11  14
ENDBRANCH   6   8
ENDBRANCH   4   6
ENDBRANCH   2   4
TORSDOF 7
ENDMDL
MODEL      230
REMARK 921   NORMALIZED FREE ENERGY PREDICTED BY IDOCK:   15.44 KCAL/MOL
REMARK 922        TOTAL FREE ENERGY PREDICTED BY IDOCK:   20.99 KCAL/MOL
REMARK 923 INTER-LIGAND FREE ENERGY PREDICTED BY IDOCK:    3.96 KCAL/MOL
REMARK 924 INTRA-LIGAND FREE ENERGY PREDICTED BY IDOCK:   17.03 KCAL/MOL
REMARK 927      BINDING AFFINITY PREDICTED BY RF-SCORE:    0.00 PKD
ROOT
HETATM    1  C   UNL     1     -13.690  15.141  68.733  1.00  0.00     4.957 C  
HETATM    2  N   UNL     1     -12.422  14.916  69.400  1.00  0.00    -0.112 N  
HETATM    3  C   UNL     1     -12.414  14.819  70.851  1.00  0.00    -0.328 C  
ENDROOT
BRANCH   2   4
HETATM    4  C   UNL     1     -11.315  14.715  68.586  1.00  0.00    -0.283 C  
HETATM    5  O   UNL     1     -11.396  14.677  67.360  1.00  0.00    -0.328 OA 
BRANCH   4   6
HETATM    6  N   UNL     1     -10.137  14.522  69.247  1.00  0.00    -0.403 N  
HETATM    7  H   UNL     1     -10.159  14.143  70.194  1.00  0.00     0.000 HD 
BRANCH   6   8
HETATM    8  C   UNL     1      -8.845  14.839  68.645  1.00  0.00    -0.180 C  
HETATM    9  C   UNL     1      -7.770  15.025  69.722  1.00  0.00    -0.038 C  
HETATM   10  C   UNL     1      -7.436  13.713  70.434  1.00  0.00     1.806 C  
HETATM   11  C   UNL     1      -7.058  12.579  69.462  1.00  0.00     0.265 C  
HETATM   12  C   UNL     1      -8.444  13.743  67.652  1.00  0.00    -0.183 C  
HETATM   13  C   UNL     1      -8.106  12.424  68.348  1.00  0.00    -0.143 C  
BRANCH  11  14
HETATM   14  C   UNL     1      -5.655  12.766  68.851  1.00  0.00    -0.071 C  
BRANCH  14  15
HETATM   15  C   UNL     1      -5.646  12.919  67.325  1.00  0.00     0.071 C  
BRANCH  15  16
HETATM   16  N   UNL     1      -6.430  11.902  66.603  1.00  0.00    -0.026 NA 
HETATM   17  C   UNL     1      -5.652  10.676  66.306  1.00  0.00    -0.089 C  
HETATM   18  C   UNL     1      -5.248   9.848  67.549  1.00  0.00    -0.035 C  
HETATM   19  N   UNL     1      -6.441   9.537  68.365  1.00  0.00    -0.053 NA 
HETATM   20  C   UNL     1      -7.614  11.495  67.411  1.00  0.00    -0.135 C  
HETATM   21  C   UNL     1      -7.249  10.720  68.703  1.00  0.00    -0.089 C  
BRANCH  19  22
HETATM   22  C   UNL     1      -6.760   8.228  68.698  1.00  0.00    -0.059 A  
HETATM   23  C   UNL     1      -7.639   7.368  67.982  1.00  0.00    -0.114 A  
HETATM   24  C   UNL     1      -7.908   6.061  68.449  1.00  0.00    -0.106 A  
HETATM   25 CL   UNL     1      -8.315   7.811  66.435  1.00  0.00    -0.124 Cl 
HETATM   26  C   UNL     1      -7.273   5.562  69.586  1.00  0.00    -0.065 A  
HETATM   27 CL   UNL     1      -9.019   4.989  67.657  1.00  0.00    -0.111 Cl 
HETATM   28  C   UNL     1      -6.384   6.363  70.280  1.00  0.00    -0.039 A  
HETATM   29  C   UNL     1      -6.158   7.673  69.855  1.00  0.00    -0.027 A  
ENDBRANCH  19  22
ENDBRANCH  15  16
ENDBRANCH  14  15
ENDBRANCH  11  14
ENDBRANCH   6   8
ENDBRANCH   4   6
ENDBRANCH   2   4
TORSDOF 7
ENDMDL
MODEL      231
REMARK 921   NORMALIZED FREE ENERGY PREDICTED BY IDOCK:   19.02 KCAL/MOL
REMARK 922        TOTAL FREE ENERGY PREDICTED BY IDOCK:   26.03 KCAL/MOL
REMARK 923 INTER-LIGAND FREE ENERGY PREDICTED BY IDOCK:    3.94 KCAL/MOL
REMARK 924 INTRA-LIGAND FREE ENERGY PREDICTED BY IDOCK:   22.09 KCAL/MOL
REMARK 927      BINDING AFFINITY PREDICTED BY RF-SCORE:    0.00 PKD
ROOT
HETATM    1  C   UNL     1      -9.767   8.749  69.674  1.00  0.00    -0.173 C  
HETATM    2  N   UNL     1      -9.981   9.023  71.083  1.00  0.00    -0.268 N  
HETATM    3  C   UNL     1      -9.395  10.227  71.647  1.00  0.00     4.192 C  
ENDROOT
BRANCH   2   4
HETATM    4  C   UNL     1     -10.816   8.149  71.768  1.00  0.00    -0.256 C  
HETATM    5  O   UNL     1     -10.534   6.965  71.939  1.00  0.00    -0.201 OA 
BRANCH   4   6
HETATM    6  N   UNL     1     -11.990   8.691  72.202  1.00  0.00    -0.367 N  
HETATM    7  H   UNL     1     -12.542   8.184  72.895  1.00  0.00     0.000 HD 
BRANCH   6   8
HETATM    8  C   UNL     1     -12.485   9.972  71.707  1.00  0.00    -0.383 C  
HETATM    9  C   UNL     1     -11.339  10.978  71.551  1.00  0.00     1.678 C  
HETATM   10  C   UNL     1     -10.382  10.590  70.422  1.00  0.00     0.241 C  
HETATM   11  C   UNL     1     -11.099  10.352  69.080  1.00  0.00    -0.297 C  
HETATM   12  C   UNL     1     -13.226   9.774  70.381  1.00  0.00     0.205 C  
HETATM   13  C   UNL     1     -12.284   9.385  69.241  1.00  0.00     1.402 C  
BRANCH  11  14
HETATM   14  C   UNL     1     -11.568  11.663  68.419  1.00  0.00    -0.376 C  
BRANCH  14  15
HETATM   15  C   UNL     1     -10.437  12.513  67.827  1.00  0.00    -0.220 C  
BRANCH  15  16
HETATM   16  N   UNL     1     -10.050  12.148  66.453  1.00  0.00    -0.216 NA 
HETATM   17  C   UNL     1      -8.588  12.235  66.223  1.00  0.00     0.132 C  
HETATM   18  C   UNL     1      -7.745  11.201  67.006  1.00  0.00    -0.139 C  
HETATM   19  N   UNL     1      -8.245   9.834  66.746  1.00  0.00    -0.119 NA 
HETATM   20  C   UNL     1     -10.466  10.749  66.155  1.00  0.00    -0.214 C  
HETATM   21  C   UNL     1      -9.693   9.682  66.971  1.00  0.00    -0.181 C  
BRANCH  19  22
HETATM   22  C   UNL     1      -7.401   8.840  66.272  1.00  0.00    -0.087 A  
HETATM   23  C   UNL     1      -7.248   8.441  64.915  1.00  0.00    -0.084 A  
HETATM   24  C   UNL     1      -6.375   7.385  64.566  1.00  0.00    -0.040 A  
HETATM   25 CL   UNL     1      -8.007   9.308  63.603  1.00  0.00    -0.133 Cl 
HETATM   26  C   UNL     1      -5.596   6.752  65.534  1.00  0.00    -0.030 A  
HETATM   27 CL   UNL     1      -6.197   6.810  62.939  1.00  0.00    -0.042 Cl 
HETATM   28  C   UNL     1      -5.695   7.145  66.856  1.00  0.00    -0.023 A  
HETATM   29  C   UNL     1      -6.597   8.149  67.213  1.00  0.00    -0.058 A  
ENDBRANCH  19  22
ENDBRANCH  15  16
ENDBRANCH  14  15
ENDBRANCH  11  14
ENDBRANCH   6   8
ENDBRANCH   4   6
ENDBRANCH   2   4
TORSDOF 7
ENDMDL
MODEL      232
REMARK 921   NORMALIZED FREE ENERGY PREDICTED BY IDOCK:   20.88 KCAL/MOL
REMARK 922        TOTAL FREE ENERGY PREDICTED BY IDOCK:   28.66 KCAL/MOL
REMARK 923 INTER-LIGAND FREE ENERGY PREDICTED BY IDOCK:    2.87 KCAL/MOL
REMARK 924 INTRA-LIGAND FREE ENERGY PREDICTED BY IDOCK:   25.79 KCAL/MOL
REMARK 927      BINDING AFFINITY PREDICTED BY RF-SCORE:    0.00 PKD
ROOT
HETATM    1  C   UNL     1     -11.522  13.305  66.408  1.00  0.00    -0.329 C  
HETATM    2  N   UNL     1     -12.022  12.825  65.133  1.00  0.00    -0.398 N  
HETATM    3  C   UNL     1     -11.945  11.400  64.856  1.00  0.00     0.498 C  
ENDROOT
BRANCH   2   4
HETATM    4  C   UNL     1     -12.626  13.763  64.306  1.00  0.00    -0.135 C  
HETATM    5  O   UNL     1     -13.778  13.637  63.896  1.00  0.00     2.122 OA 
BRANCH   4   6
HETATM    6  N   UNL     1     -11.833  14.815  63.948  1.00  0.00    -0.817 N  
HETATM    7  H   UNL     1     -12.269  15.647  63.550  1.00  0.00     0.000 HD 
BRANCH   6   8
HETATM    8  C   UNL     1     -10.384  14.788  64.114  1.00  0.00     1.344 C  
HETATM    9  C   UNL     1     -10.000  14.917  65.594  1.00  0.00    -0.389 C  
HETATM   10  C   UNL     1     -10.400  13.681  66.402  1.00  0.00    -0.286 C  
HETATM   11  C   UNL     1      -9.863  12.368  65.801  1.00  0.00    -0.253 C  
HETATM   12  C   UNL     1      -9.808  13.504  63.508  1.00  0.00     2.929 C  
HETATM   13  C   UNL     1     -10.198  12.259  64.304  1.00  0.00    -0.356 C  
BRANCH  11  14
HETATM   14  C   UNL     1      -8.348  12.193  66.022  1.00  0.00     0.437 C  
BRANCH  14  15
HETATM   15  C   UNL     1      -7.895  12.372  67.476  1.00  0.00    -0.169 C  
BRANCH  15  16
HETATM   16  N   UNL     1      -7.496  11.124  68.151  1.00  0.00    -0.089 NA 
HETATM   17  C   UNL     1      -8.594  10.129  68.221  1.00  0.00    -0.116 C  
HETATM   18  C   UNL     1      -9.031   9.549  66.855  1.00  0.00    -0.131 C  
HETATM   19  N   UNL     1      -7.861   9.002  66.135  1.00  0.00    -0.101 NA 
HETATM   20  C   UNL     1      -6.361  10.486  67.427  1.00  0.00    -0.058 C  
HETATM   21  C   UNL     1      -6.741   9.951  66.022  1.00  0.00    -0.094 C  
BRANCH  19  22
HETATM   22  C   UNL     1      -7.846   7.689  65.686  1.00  0.00    -0.109 A  
HETATM   23  C   UNL     1      -8.152   7.246  64.369  1.00  0.00    -0.065 A  
HETATM   24  C   UNL     1      -8.132   5.870  64.047  1.00  0.00    -0.102 A  
HETATM   25 CL   UNL     1      -8.426   8.363  63.055  1.00  0.00    -0.100 Cl 
HETATM   26  C   UNL     1      -7.752   4.919  64.995  1.00  0.00    -0.083 A  
HETATM   27 CL   UNL     1      -8.559   5.263  62.479  1.00  0.00    -0.116 Cl 
HETATM   28  C   UNL     1      -7.412   5.325  66.272  1.00  0.00    -0.087 A  
HETATM   29  C   UNL     1      -7.484   6.677  66.609  1.00  0.00    -0.079 A  
ENDBRANCH  19  22
ENDBRANCH  15  16
ENDBRANCH  14  15
ENDBRANCH  11  14
ENDBRANCH   6   8
ENDBRANCH   4   6
ENDBRANCH   2   4
TORSDOF 7
ENDMDL
MODEL      233
REMARK 921   NORMALIZED FREE ENERGY PREDICTED BY IDOCK:   21.40 KCAL/MOL
REMARK 922        TOTAL FREE ENERGY PREDICTED BY IDOCK:   29.39 KCAL/MOL
REMARK 923 INTER-LIGAND FREE ENERGY PREDICTED BY IDOCK:   23.82 KCAL/MOL
REMARK 924 INTRA-LIGAND FREE ENERGY PREDICTED BY IDOCK:    5.57 KCAL/MOL
REMARK 927      BINDING AFFINITY PREDICTED BY RF-SCORE:    0.00 PKD
ROOT
HETATM    1  C   UNL     1      -9.354   3.580  69.916  1.00  0.00    -0.177 C  
HETATM    2  N   UNL     1     -10.305   3.888  70.968  1.00  0.00     0.205 N  
HETATM    3  C   UNL     1     -10.846   2.789  71.751  1.00  0.00     1.147 C  
ENDROOT
BRANCH   2   4
HETATM    4  C   UNL     1     -10.555   5.233  71.208  1.00  0.00    -0.172 C  
HETATM    5  O   UNL     1      -9.735   5.971  71.749  1.00  0.00    -0.152 OA 
BRANCH   4   6
HETATM    6  N   UNL     1     -11.795   5.666  70.837  1.00  0.00     0.564 N  
HETATM    7  H   UNL     1     -12.584   5.023  70.908  1.00  0.00     0.000 HD 
BRANCH   6   8
HETATM    8  C   UNL     1     -12.030   7.018  70.340  1.00  0.00    -0.207 C  
HETATM    9  C   UNL     1     -12.272   7.992  71.499  1.00  0.00    -0.328 C  
HETATM   10  C   UNL     1     -11.011   8.214  72.336  1.00  0.00    -0.414 C  
HETATM   11  C   UNL     1      -9.795   8.644  71.494  1.00  0.00    -0.342 C  
HETATM   12  C   UNL     1     -10.849   7.474  69.476  1.00  0.00    -0.184 C  
HETATM   13  C   UNL     1      -9.581   7.700  70.299  1.00  0.00    -0.172 C  
BRANCH  11  14
HETATM   14  C   UNL     1      -9.897  10.103  71.009  1.00  0.00     0.984 C  
BRANCH  14  15
HETATM   15  C   UNL     1     -11.318  10.551  70.645  1.00  0.00    -0.275 C  
BRANCH  15  16
HETATM   16  N   UNL     1     -11.385  11.784  69.841  1.00  0.00    -0.183 NA 
HETATM   17  C   UNL     1     -10.126  12.568  69.882  1.00  0.00     1.936 C  
HETATM   18  C   UNL     1      -8.916  11.888  69.201  1.00  0.00     0.488 C  
HETATM   19  N   UNL     1      -9.259  11.504  67.815  1.00  0.00    -0.161 NA 
HETATM   20  C   UNL     1     -11.659  11.456  68.414  1.00  0.00    -0.315 C  
HETATM   21  C   UNL     1     -10.496  10.711  67.711  1.00  0.00    -0.221 C  
BRANCH  19  22
HETATM   22  C   UNL     1      -8.492  11.934  66.741  1.00  0.00    -0.167 A  
HETATM   23  C   UNL     1      -7.411  11.228  66.143  1.00  0.00     0.045 A  
HETATM   24  C   UNL     1      -6.685  11.795  65.070  1.00  0.00     2.808 A  
HETATM   25 CL   UNL     1      -7.012   9.589  66.592  1.00  0.00    -0.084 Cl 
HETATM   26  C   UNL     1      -7.049  13.029  64.533  1.00  0.00    12.162 A  
HETATM   27 CL   UNL     1      -5.317  11.013  64.344  1.00  0.00     0.066 Cl 
HETATM   28  C   UNL     1      -8.120  13.719  65.070  1.00  0.00     6.643 A  
HETATM   29  C   UNL     1      -8.804  13.190  66.164  1.00  0.00     0.325 A  
ENDBRANCH  19  22
ENDBRANCH  15  16
ENDBRANCH  14  15
ENDBRANCH  11  14
ENDBRANCH   6   8
ENDBRANCH   4   6
ENDBRANCH   2   4
TORSDOF 7
ENDMDL
MODEL      234
REMARK 921   NORMALIZED FREE ENERGY PREDICTED BY IDOCK:   22.60 KCAL/MOL
REMARK 922        TOTAL FREE ENERGY PREDICTED BY IDOCK:   31.08 KCAL/MOL
REMARK 923 INTER-LIGAND FREE ENERGY PREDICTED BY IDOCK:   28.83 KCAL/MOL
REMARK 924 INTRA-LIGAND FREE ENERGY PREDICTED BY IDOCK:    2.25 KCAL/MOL
REMARK 927      BINDING AFFINITY PREDICTED BY RF-SCORE:    0.00 PKD
ROOT
HETATM    1  C   UNL     1     -11.015   9.281  71.513  1.00  0.00    -0.375 C  
HETATM    2  N   UNL     1     -10.853   7.845  71.387  1.00  0.00    -0.224 N  
HETATM    3  C   UNL     1     -10.239   7.122  72.489  1.00  0.00    -0.194 C  
ENDROOT
BRANCH   2   4
HETATM    4  C   UNL     1     -11.386   7.254  70.249  1.00  0.00    -0.238 C  
HETATM    5  O   UNL     1     -11.876   6.127  70.259  1.00  0.00    -0.244 OA 
BRANCH   4   6
HETATM    6  N   UNL     1     -11.287   7.999  69.110  1.00  0.00    -0.224 N  
HETATM    7  H   UNL     1     -11.726   7.653  68.256  1.00  0.00     0.000 HD 
BRANCH   6   8
HETATM    8  C   UNL     1     -10.576   9.272  69.072  1.00  0.00    -0.205 C  
HETATM    9  C   UNL     1      -9.142   9.083  68.563  1.00  0.00    -0.133 C  
HETATM   10  C   UNL     1      -9.103   8.693  67.084  1.00  0.00    -0.156 C  
HETATM   11  C   UNL     1      -9.888   9.665  66.183  1.00  0.00    -0.334 C  
HETATM   12  C   UNL     1     -11.339  10.276  68.201  1.00  0.00    -0.233 C  
HETATM   13  C   UNL     1     -11.310   9.901  66.720  1.00  0.00     0.778 C  
BRANCH  11  14
HETATM   14  C   UNL     1      -9.162  11.011  65.991  1.00  0.00    -0.213 C  
BRANCH  14  15
HETATM   15  C   UNL     1      -8.485  11.175  64.624  1.00  0.00     0.290 C  
BRANCH  15  16
HETATM   16  N   UNL     1      -8.671  12.498  64.003  1.00  0.00     1.686 NA 
HETATM   17  C   UNL     1      -9.615  13.360  64.754  1.00  0.00     0.410 C  
HETATM   18  C   UNL     1      -9.119  13.804  66.151  1.00  0.00     0.109 C  
HETATM   19  N   UNL     1      -7.789  14.440  66.041  1.00  0.00     1.858 NA 
HETATM   20  C   UNL     1      -7.370  13.221  63.930  1.00  0.00    15.410 C  
HETATM   21  C   UNL     1      -6.801  13.624  65.315  1.00  0.00    11.122 C  
BRANCH  19  22
HETATM   22  C   UNL     1      -7.562  15.717  66.535  1.00  0.00     0.112 A  
HETATM   23  C   UNL     1      -8.425  16.453  67.394  1.00  0.00    -0.178 A  
HETATM   24  C   UNL     1      -8.092  17.766  67.799  1.00  0.00    -0.226 A  
HETATM   25 CL   UNL     1      -9.853  15.743  68.105  1.00  0.00    -0.209 Cl 
HETATM   26  C   UNL     1      -6.883  18.348  67.418  1.00  0.00    -0.205 A  
HETATM   27 CL   UNL     1      -9.133  18.737  68.791  1.00  0.00    -0.356 Cl 
HETATM   28  C   UNL     1      -6.007  17.640  66.615  1.00  0.00    -0.217 A  
HETATM   29  C   UNL     1      -6.357  16.366  66.166  1.00  0.00     1.220 A  
ENDBRANCH  19  22
ENDBRANCH  15  16
ENDBRANCH  14  15
ENDBRANCH  11  14
ENDBRANCH   6   8
ENDBRANCH   4   6
ENDBRANCH   2   4
TORSDOF 7
ENDMDL
MODEL      235
REMARK 921   NORMALIZED FREE ENERGY PREDICTED BY IDOCK:   22.61 KCAL/MOL
REMARK 922        TOTAL FREE ENERGY PREDICTED BY IDOCK:   31.09 KCAL/MOL
REMARK 923 INTER-LIGAND FREE ENERGY PREDICTED BY IDOCK:    2.65 KCAL/MOL
REMARK 924 INTRA-LIGAND FREE ENERGY PREDICTED BY IDOCK:   28.45 KCAL/MOL
REMARK 927      BINDING AFFINITY PREDICTED BY RF-SCORE:    0.00 PKD
ROOT
HETATM    1  C   UNL     1      -7.121   7.818  67.842  1.00  0.00    -0.086 C  
HETATM    2  N   UNL     1      -7.139   8.030  66.407  1.00  0.00    -0.073 N  
HETATM    3  C   UNL     1      -6.976   9.386  65.909  1.00  0.00    -0.090 C  
ENDROOT
BRANCH   2   4
HETATM    4  C   UNL     1      -7.219   6.896  65.610  1.00  0.00    -0.073 C  
HETATM    5  O   UNL     1      -8.204   6.161  65.604  1.00  0.00    -0.127 OA 
BRANCH   4   6
HETATM    6  N   UNL     1      -6.106   6.633  64.864  1.00  0.00    -0.034 N  
HETATM    7  H   UNL     1      -5.220   7.063  65.132  1.00  0.00     0.000 HD 
BRANCH   6   8
HETATM    8  C   UNL     1      -6.142   5.759  63.695  1.00  0.00    -0.025 C  
HETATM    9  C   UNL     1      -5.821   4.312  64.086  1.00  0.00    -0.014 C  
HETATM   10  C   UNL     1      -6.927   3.688  64.939  1.00  0.00    -0.057 C  
HETATM   11  C   UNL     1      -8.321   3.793  64.292  1.00  0.00    -0.090 C  
HETATM   12  C   UNL     1      -7.508   5.853  63.009  1.00  0.00    -0.067 C  
HETATM   13  C   UNL     1      -8.625   5.234  63.849  1.00  0.00    -0.052 C  
BRANCH  11  14
HETATM   14  C   UNL     1      -8.497   2.824  63.106  1.00  0.00    -0.085 C  
BRANCH  14  15
HETATM   15  C   UNL     1      -9.226   1.521  63.457  1.00  0.00    -0.091 C  
BRANCH  15  16
HETATM   16  N   UNL     1      -9.770   1.473  64.826  1.00  0.00     0.008 NA 
HETATM   17  C   UNL     1      -8.871   2.098  65.826  1.00  0.00    -0.121 C  
HETATM   18  C   UNL     1      -8.697   3.628  65.677  1.00  0.00    -0.117 C  
HETATM   19  N   UNL     1     -10.018   4.292  65.660  1.00  0.00    -0.220 NA 
HETATM   20  C   UNL     1     -11.074   2.192  64.889  1.00  0.00     2.416 C  
HETATM   21  C   UNL     1     -10.953   3.722  64.675  1.00  0.00     0.132 C  
BRANCH  19  22
HETATM   22  C   UNL     1     -10.320   5.308  66.555  1.00  0.00    -0.285 A  
HETATM   23  C   UNL     1     -10.730   5.145  67.907  1.00  0.00     0.172 A  
HETATM   24  C   UNL     1     -11.044   6.267  68.707  1.00  0.00    -0.346 A  
HETATM   25 CL   UNL     1     -10.734   3.586  68.693  1.00  0.00     2.501 Cl 
HETATM   26  C   UNL     1     -10.900   7.563  68.211  1.00  0.00    -0.052 A  
HETATM   27 CL   UNL     1     -11.612   6.129  70.341  1.00  0.00    -0.359 Cl 
HETATM   28  C   UNL     1     -10.466   7.752  66.911  1.00  0.00    -0.388 A  
HETATM   29  C   UNL     1     -10.209   6.646  66.101  1.00  0.00     0.270 A  
ENDBRANCH  19  22
ENDBRANCH  15  16
ENDBRANCH  14  15
ENDBRANCH  11  14
ENDBRANCH   6   8
ENDBRANCH   4   6
ENDBRANCH   2   4
TORSDOF 7
ENDMDL
MODEL      236
REMARK 921   NORMALIZED FREE ENERGY PREDICTED BY IDOCK:   25.40 KCAL/MOL
REMARK 922        TOTAL FREE ENERGY PREDICTED BY IDOCK:   35.02 KCAL/MOL
REMARK 923 INTER-LIGAND FREE ENERGY PREDICTED BY IDOCK:    2.64 KCAL/MOL
REMARK 924 INTRA-LIGAND FREE ENERGY PREDICTED BY IDOCK:   32.38 KCAL/MOL
REMARK 927      BINDING AFFINITY PREDICTED BY RF-SCORE:    0.00 PKD
ROOT
HETATM    1  C   UNL     1     -12.883   9.025  68.891  1.00  0.00     5.493 C  
HETATM    2  N   UNL     1     -11.955   8.502  69.875  1.00  0.00     0.551 N  
HETATM    3  C   UNL     1     -10.773   9.286  70.191  1.00  0.00    -0.235 C  
ENDROOT
BRANCH   2   4
HETATM    4  C   UNL     1     -12.320   7.323  70.512  1.00  0.00    -0.013 C  
HETATM    5  O   UNL     1     -13.371   7.209  71.138  1.00  0.00    -0.331 OA 
BRANCH   4   6
HETATM    6  N   UNL     1     -11.406   6.312  70.427  1.00  0.00    -0.369 N  
HETATM    7  H   UNL     1     -11.731   5.372  70.200  1.00  0.00     0.000 HD 
BRANCH   6   8
HETATM    8  C   UNL     1      -9.981   6.532  70.651  1.00  0.00    -0.184 C  
HETATM    9  C   UNL     1      -9.634   8.022  70.551  1.00  0.00    -0.170 C  
HETATM   10  C   UNL     1     -10.229   8.830  71.706  1.00  0.00    -0.408 C  
HETATM   11  C   UNL     1      -9.860   8.266  73.091  1.00  0.00    -0.166 C  
HETATM   12  C   UNL     1      -9.568   5.962  72.013  1.00  0.00    -0.167 C  
HETATM   13  C   UNL     1     -10.155   6.759  73.178  1.00  0.00    -0.227 C  
BRANCH  11  14
HETATM   14  C   UNL     1      -8.392   8.543  73.470  1.00  0.00    -0.058 C  
BRANCH  14  15
HETATM   15  C   UNL     1      -7.487   8.896  72.283  1.00  0.00     0.203 C  
BRANCH  15  16
HETATM   16  N   UNL     1      -6.885   7.734  71.605  1.00  0.00    -0.056 NA 
HETATM   17  C   UNL     1      -7.894   6.832  71.001  1.00  0.00    -0.101 C  
HETATM   18  C   UNL     1      -8.679   7.438  69.813  1.00  0.00    -0.141 C  
HETATM   19  N   UNL     1      -7.742   7.950  68.791  1.00  0.00    -0.110 NA 
HETATM   20  C   UNL     1      -5.980   8.187  70.511  1.00  0.00    -0.032 C  
HETATM   21  C   UNL     1      -6.721   8.864  69.330  1.00  0.00    -0.050 C  
BRANCH  19  22
HETATM   22  C   UNL     1      -7.818   7.525  67.472  1.00  0.00    -0.116 A  
HETATM   23  C   UNL     1      -7.180   8.131  66.354  1.00  0.00    -0.079 A  
HETATM   24  C   UNL     1      -7.368   7.618  65.050  1.00  0.00    -0.073 A  
HETATM   25 CL   UNL     1      -6.033   9.434  66.535  1.00  0.00    -0.058 Cl 
HETATM   26  C   UNL     1      -8.131   6.470  64.835  1.00  0.00    -0.119 A  
HETATM   27 CL   UNL     1      -6.671   8.352  63.641  1.00  0.00    -0.083 Cl 
HETATM   28  C   UNL     1      -8.731   5.838  65.909  1.00  0.00    -0.149 A  
HETATM   29  C   UNL     1      -8.595   6.374  67.190  1.00  0.00    -0.111 A  
ENDBRANCH  19  22
ENDBRANCH  15  16
ENDBRANCH  14  15
ENDBRANCH  11  14
ENDBRANCH   6   8
ENDBRANCH   4   6
ENDBRANCH   2   4
TORSDOF 7
ENDMDL
MODEL      237
REMARK 921   NORMALIZED FREE ENERGY PREDICTED BY IDOCK:   25.78 KCAL/MOL
REMARK 922        TOTAL FREE ENERGY PREDICTED BY IDOCK:   35.56 KCAL/MOL
REMARK 923 INTER-LIGAND FREE ENERGY PREDICTED BY IDOCK:    4.85 KCAL/MOL
REMARK 924 INTRA-LIGAND FREE ENERGY PREDICTED BY IDOCK:   30.71 KCAL/MOL
REMARK 927      BINDING AFFINITY PREDICTED BY RF-SCORE:    0.00 PKD
ROOT
HETATM    1  C   UNL     1     -11.340  13.471  66.114  1.00  0.00    -0.308 C  
HETATM    2  N   UNL     1     -11.759  12.920  64.839  1.00  0.00    -0.331 N  
HETATM    3  C   UNL     1     -11.710  11.478  64.662  1.00  0.00     0.025 C  
ENDROOT
BRANCH   2   4
HETATM    4  C   UNL     1     -12.267  13.818  63.909  1.00  0.00    -0.351 C  
HETATM    5  O   UNL     1     -13.367  13.669  63.382  1.00  0.00     0.840 OA 
BRANCH   4   6
HETATM    6  N   UNL     1     -11.438  14.855  63.592  1.00  0.00    -0.056 N  
HETATM    7  H   UNL     1     -11.751  15.545  62.909  1.00  0.00     0.000 HD 
BRANCH   6   8
HETATM    8  C   UNL     1     -10.119  15.009  64.197  1.00  0.00     2.192 C  
HETATM    9  C   UNL     1     -10.237  15.415  65.671  1.00  0.00    -0.403 C  
HETATM   10  C   UNL     1     -10.814  14.291  66.534  1.00  0.00    -0.304 C  
HETATM   11  C   UNL     1     -10.049  12.962  66.384  1.00  0.00    -0.272 C  
HETATM   12  C   UNL     1      -9.317  13.712  64.048  1.00  0.00     3.211 C  
HETATM   13  C   UNL     1      -9.880  12.578  64.904  1.00  0.00    -0.095 C  
BRANCH  11  14
HETATM   14  C   UNL     1      -8.678  12.986  67.087  1.00  0.00    -0.204 C  
BRANCH  14  15
HETATM   15  C   UNL     1      -8.717  13.498  68.532  1.00  0.00    -0.082 C  
BRANCH  15  16
HETATM   16  N   UNL     1      -8.737  12.440  69.557  1.00  0.00     1.295 NA 
HETATM   17  C   UNL     1     -10.005  11.670  69.566  1.00  0.00     0.612 C  
HETATM   18  C   UNL     1     -10.250  10.807  68.306  1.00  0.00    -0.167 C  
HETATM   19  N   UNL     1      -9.091   9.922  68.061  1.00  0.00    -0.121 NA 
HETATM   20  C   UNL     1      -7.630  11.471  69.320  1.00  0.00     0.079 C  
HETATM   21  C   UNL     1      -7.802  10.632  68.028  1.00  0.00    -0.105 C  
BRANCH  19  22
HETATM   22  C   UNL     1      -9.251   8.548  67.947  1.00  0.00    -0.139 A  
HETATM   23  C   UNL     1      -9.421   7.818  66.738  1.00  0.00    -0.197 A  
HETATM   24  C   UNL     1      -9.609   6.416  66.762  1.00  0.00    -0.155 A  
HETATM   25 CL   UNL     1      -9.269   8.570  65.171  1.00  0.00     0.005 Cl 
HETATM   26  C   UNL     1      -9.569   5.709  67.963  1.00  0.00    -0.137 A  
HETATM   27 CL   UNL     1      -9.887   5.480  65.328  1.00  0.00     0.295 Cl 
HETATM   28  C   UNL     1      -9.366   6.389  69.150  1.00  0.00    -0.132 A  
HETATM   29  C   UNL     1      -9.237   7.778  69.137  1.00  0.00    -0.144 A  
ENDBRANCH  19  22
ENDBRANCH  15  16
ENDBRANCH  14  15
ENDBRANCH  11  14
ENDBRANCH   6   8
ENDBRANCH   4   6
ENDBRANCH   2   4
TORSDOF 7
ENDMDL
MODEL      238
REMARK 921   NORMALIZED FREE ENERGY PREDICTED BY IDOCK:   35.64 KCAL/MOL
REMARK 922        TOTAL FREE ENERGY PREDICTED BY IDOCK:   49.46 KCAL/MOL
REMARK 923 INTER-LIGAND FREE ENERGY PREDICTED BY IDOCK:   22.96 KCAL/MOL
REMARK 924 INTRA-LIGAND FREE ENERGY PREDICTED BY IDOCK:   26.49 KCAL/MOL
REMARK 927      BINDING AFFINITY PREDICTED BY RF-SCORE:    0.00 PKD
ROOT
HETATM    1  C   UNL     1     -13.874  16.372  63.654  1.00  0.00     6.394 C  
HETATM    2  N   UNL     1     -12.700  15.737  64.222  1.00  0.00     0.395 N  
HETATM    3  C   UNL     1     -12.074  14.656  63.478  1.00  0.00     0.621 C  
ENDROOT
BRANCH   2   4
HETATM    4  C   UNL     1     -12.206  16.279  65.402  1.00  0.00     1.812 C  
HETATM    5  O   UNL     1     -12.627  17.334  65.871  1.00  0.00     4.904 OA 
BRANCH   4   6
HETATM    6  N   UNL     1     -11.190  15.576  65.981  1.00  0.00    -0.184 N  
HETATM    7  H   UNL     1     -11.369  15.079  66.854  1.00  0.00     0.000 HD 
BRANCH   6   8
HETATM    8  C   UNL     1      -9.855  15.511  65.395  1.00  0.00    -0.256 C  
HETATM    9  C   UNL     1      -9.318  16.917  65.102  1.00  0.00     1.603 C  
HETATM   10  C   UNL     1      -9.025  17.699  66.383  1.00  0.00    -0.255 C  
HETATM   11  C   UNL     1      -8.100  16.942  67.355  1.00  0.00    -0.193 C  
HETATM   12  C   UNL     1      -8.908  14.744  66.323  1.00  0.00    -0.055 C  
HETATM   13  C   UNL     1      -8.606  15.512  67.609  1.00  0.00    -0.175 C  
BRANCH  11  14
HETATM   14  C   UNL     1      -6.636  16.911  66.875  1.00  0.00    -0.249 C  
BRANCH  14  15
HETATM   15  C   UNL     1      -5.599  17.062  67.995  1.00  0.00    -0.120 C  
BRANCH  15  16
HETATM   16  N   UNL     1      -6.142  16.905  69.356  1.00  0.00    -0.205 NA 
HETATM   17  C   UNL     1      -7.577  17.264  69.450  1.00  0.00     0.141 C  
HETATM   18  C   UNL     1      -8.534  16.319  68.686  1.00  0.00    -0.221 C  
HETATM   19  N   UNL     1      -8.307  14.919  69.103  1.00  0.00    -0.171 NA 
HETATM   20  C   UNL     1      -6.005  15.491  69.806  1.00  0.00    -0.144 C  
HETATM   21  C   UNL     1      -6.898  14.498  69.019  1.00  0.00    -0.109 C  
BRANCH  19  22
HETATM   22  C   UNL     1      -9.347  14.136  69.583  1.00  0.00     0.831 A  
HETATM   23  C   UNL     1     -10.117  13.205  68.832  1.00  0.00     0.038 A  
HETATM   24  C   UNL     1     -11.178  12.492  69.436  1.00  0.00    -0.149 A  
HETATM   25 CL   UNL     1      -9.718  12.786  67.185  1.00  0.00    -0.211 Cl 
HETATM   26  C   UNL     1     -11.456  12.636  70.795  1.00  0.00     0.998 A  
HETATM   27 CL   UNL     1     -12.194  11.394  68.557  1.00  0.00    -0.154 Cl 
HETATM   28  C   UNL     1     -10.698  13.506  71.558  1.00  0.00     4.865 A  
HETATM   29  C   UNL     1      -9.687  14.254  70.954  1.00  0.00     3.213 A  
ENDBRANCH  19  22
ENDBRANCH  15  16
ENDBRANCH  14  15
ENDBRANCH  11  14
ENDBRANCH   6   8
ENDBRANCH   4   6
ENDBRANCH   2   4
TORSDOF 7
ENDMDL
MODEL      239
REMARK 921   NORMALIZED FREE ENERGY PREDICTED BY IDOCK:   46.20 KCAL/MOL
REMARK 922        TOTAL FREE ENERGY PREDICTED BY IDOCK:   64.33 KCAL/MOL
REMARK 923 INTER-LIGAND FREE ENERGY PREDICTED BY IDOCK:   42.23 KCAL/MOL
REMARK 924 INTRA-LIGAND FREE ENERGY PREDICTED BY IDOCK:   22.10 KCAL/MOL
REMARK 927      BINDING AFFINITY PREDICTED BY RF-SCORE:    0.00 PKD
ROOT
HETATM    1  C   UNL     1     -13.777  14.926  69.659  1.00  0.00     2.271 C  
HETATM    2  N   UNL     1     -12.698  14.624  70.581  1.00  0.00    -0.349 N  
HETATM    3  C   UNL     1     -13.017  14.490  71.993  1.00  0.00    -0.341 C  
ENDROOT
BRANCH   2   4
HETATM    4  C   UNL     1     -11.447  14.394  70.024  1.00  0.00    -0.238 C  
HETATM    5  O   UNL     1     -11.240  14.463  68.814  1.00  0.00    -0.236 OA 
BRANCH   4   6
HETATM    6  N   UNL     1     -10.473  14.045  70.913  1.00  0.00     1.408 N  
HETATM    7  H   UNL     1     -10.736  13.541  71.761  1.00  0.00     0.000 HD 
BRANCH   6   8
HETATM    8  C   UNL     1      -9.066  14.369  70.694  1.00  0.00     2.802 C  
HETATM    9  C   UNL     1      -8.275  14.288  72.005  1.00  0.00     6.940 C  
HETATM   10  C   UNL     1      -8.157  12.851  72.517  1.00  0.00    16.147 C  
HETATM   11  C   UNL     1      -7.590  11.879  71.465  1.00  0.00     8.714 C  
HETATM   12  C   UNL     1      -8.471  13.437  69.634  1.00  0.00     1.564 C  
HETATM   13  C   UNL     1      -8.346  11.996  70.130  1.00  0.00     3.395 C  
BRANCH  11  14
HETATM   14  C   UNL     1      -6.078  12.070  71.238  1.00  0.00     1.073 C  
BRANCH  14  15
HETATM   15  C   UNL     1      -5.715  12.704  69.889  1.00  0.00    -0.123 C  
BRANCH  15  16
HETATM   16  N   UNL     1      -6.574  12.288  68.766  1.00  0.00    -0.078 NA 
HETATM   17  C   UNL     1      -5.923  11.294  67.879  1.00  0.00    -0.046 C  
HETATM   18  C   UNL     1      -5.669   9.913  68.527  1.00  0.00    -0.042 C  
HETATM   19  N   UNL     1      -6.924   9.378  69.095  1.00  0.00    -0.057 NA 
HETATM   20  C   UNL     1      -7.831  11.672  69.278  1.00  0.00     0.222 C  
HETATM   21  C   UNL     1      -7.612  10.317  69.998  1.00  0.00    -0.103 C  
BRANCH  19  22
HETATM   22  C   UNL     1      -7.401   8.127  68.729  1.00  0.00    -0.088 A  
HETATM   23  C   UNL     1      -7.094   6.891  69.361  1.00  0.00    -0.079 A  
HETATM   24  C   UNL     1      -7.621   5.675  68.866  1.00  0.00    -0.088 A  
HETATM   25 CL   UNL     1      -6.181   6.810  70.848  1.00  0.00    -0.039 Cl 
HETATM   26  C   UNL     1      -8.502   5.666  67.785  1.00  0.00    -0.102 A  
HETATM   27 CL   UNL     1      -7.231   4.131  69.553  1.00  0.00    -0.049 Cl 
HETATM   28  C   UNL     1      -8.848   6.858  67.174  1.00  0.00    -0.120 A  
HETATM   29  C   UNL     1      -8.286   8.053  67.625  1.00  0.00    -0.128 A  
ENDBRANCH  19  22
ENDBRANCH  15  16
ENDBRANCH  14  15
ENDBRANCH  11  14
ENDBRANCH   6   8
ENDBRANCH   4   6
ENDBRANCH   2   4
TORSDOF 7
ENDMDL
MODEL      240
REMARK 921   NORMALIZED FREE ENERGY PREDICTED BY IDOCK:   54.78 KCAL/MOL
REMARK 922        TOTAL FREE ENERGY PREDICTED BY IDOCK:   76.42 KCAL/MOL
REMARK 923 INTER-LIGAND FREE ENERGY PREDICTED BY IDOCK:   26.96 KCAL/MOL
REMARK 924 INTRA-LIGAND FREE ENERGY PREDICTED BY IDOCK:   49.46 KCAL/MOL
REMARK 927      BINDING AFFINITY PREDICTED BY RF-SCORE:    0.00 PKD
ROOT
HETATM    1  C   UNL     1     -13.124   8.386  67.991  1.00  0.00    13.528 C  
HETATM    2  N   UNL     1     -12.264   8.202  69.144  1.00  0.00     2.301 N  
HETATM    3  C   UNL     1     -11.303   9.247  69.460  1.00  0.00     0.103 C  
ENDROOT
BRANCH   2   4
HETATM    4  C   UNL     1     -12.491   7.072  69.919  1.00  0.00     0.766 C  
HETATM    5  O   UNL     1     -13.619   6.715  70.250  1.00  0.00     1.477 OA 
BRANCH   4   6
HETATM    6  N   UNL     1     -11.367   6.410  70.321  1.00  0.00    -0.378 N  
HETATM    7  H   UNL     1     -11.372   5.390  70.328  1.00  0.00     0.000 HD 
BRANCH   6   8
HETATM    8  C   UNL     1     -10.159   7.113  70.741  1.00  0.00    -0.190 C  
HETATM    9  C   UNL     1     -10.104   8.519  70.131  1.00  0.00    -0.197 C  
HETATM   10  C   UNL     1     -11.181   9.439  70.709  1.00  0.00    -0.367 C  
HETATM   11  C   UNL     1     -11.161   9.500  72.248  1.00  0.00     0.617 C  
HETATM   12  C   UNL     1     -10.091   7.175  72.270  1.00  0.00    -0.202 C  
HETATM   13  C   UNL     1     -11.161   8.090  72.864  1.00  0.00    -0.389 C  
BRANCH  11  14
HETATM   14  C   UNL     1      -9.974  10.318  72.793  1.00  0.00     8.285 C  
BRANCH  14  15
HETATM   15  C   UNL     1      -8.607   9.645  72.616  1.00  0.00     3.371 C  
BRANCH  15  16
HETATM   16  N   UNL     1      -8.352   8.526  73.540  1.00  0.00    -0.392 NA 
HETATM   17  C   UNL     1      -9.463   7.544  73.578  1.00  0.00    -0.273 C  
HETATM   18  C   UNL     1      -9.671   6.748  72.269  1.00  0.00    -0.147 C  
HETATM   19  N   UNL     1      -8.406   6.104  71.857  1.00  0.00    -0.118 NA 
HETATM   20  C   UNL     1      -7.122   7.791  73.132  1.00  0.00    -0.087 C  
HETATM   21  C   UNL     1      -7.265   7.033  71.787  1.00  0.00    -0.078 C  
BRANCH  19  22
HETATM   22  C   UNL     1      -8.337   4.736  71.632  1.00  0.00    -0.110 A  
HETATM   23  C   UNL     1      -7.282   4.042  70.979  1.00  0.00    -0.033 A  
HETATM   24  C   UNL     1      -7.350   2.643  70.783  1.00  0.00    -0.033 A  
HETATM   25 CL   UNL     1      -5.798   4.835  70.514  1.00  0.00    -0.016 Cl 
HETATM   26  C   UNL     1      -8.422   1.902  71.279  1.00  0.00    -0.079 A  
HETATM   27 CL   UNL     1      -6.126   1.751  69.936  1.00  0.00    -0.023 Cl 
HETATM   28  C   UNL     1      -9.444   2.547  71.952  1.00  0.00    -0.195 A  
HETATM   29  C   UNL     1      -9.408   3.934  72.099  1.00  0.00    -0.180 A  
ENDBRANCH  19  22
ENDBRANCH  15  16
ENDBRANCH  14  15
ENDBRANCH  11  14
ENDBRANCH   6   8
ENDBRANCH   4   6
ENDBRANCH   2   4
TORSDOF 7
ENDMDL
