MODEL        1
REMARK 921   NORMALIZED FREE ENERGY PREDICTED BY IDOCK:   -9.01 KCAL/MOL
REMARK 922        TOTAL FREE ENERGY PREDICTED BY IDOCK:  -11.47 KCAL/MOL
REMARK 923 INTER-LIGAND FREE ENERGY PREDICTED BY IDOCK:  -10.59 KCAL/MOL
REMARK 924 INTRA-LIGAND FREE ENERGY PREDICTED BY IDOCK:   -0.88 KCAL/MOL
REMARK 927      BINDING AFFINITY PREDICTED BY RF-SCORE:    0.00 PKD
ROOT
HETATM    1  C   UNL     1      -7.615  16.213  66.772  1.00  0.00    -0.233 C  
HETATM    2  S   UNL     1      -9.154  17.063  66.234  1.00  0.00    -0.214 SA 
HETATM    3  C   UNL     1      -9.407  17.940  67.848  1.00  0.00    -0.271 C  
HETATM    4  C   UNL     1     -10.038  19.313  67.596  1.00  0.00    -0.485 C  
HETATM    5  CA  UNL     1      -8.010  17.963  68.520  1.00  0.00    -0.298 C  
HETATM    6  C   UNL     1     -10.427  17.119  68.663  1.00  0.00    -0.366 C  
HETATM    7  N   UNL     1      -7.320  16.719  68.125  1.00  0.00    -0.168 N  
HETATM    8  C   UNL     1      -7.096  19.140  68.127  1.00  0.00    -0.258 C  
HETATM    9  OXT UNL     1      -7.403  20.321  68.185  1.00  0.00    -0.279 OA 
HETATM   10  O   UNL     1      -5.839  18.756  67.775  1.00  0.00    -0.188 OA 
HETATM   11  C   UNL     1      -7.638  15.533  68.741  1.00  0.00    -0.152 C  
HETATM   12  CA  UNL     1      -7.776  14.798  67.377  1.00  0.00    -0.204 C  
HETATM   13  O   UNL     1      -7.863  15.324  69.912  1.00  0.00    -0.152 OA 
ENDROOT
BRANCH  12  14
HETATM   14  N   UNL     1      -9.065  14.118  67.096  1.00  0.00    -0.221 N  
HETATM   15  C   UNL     1      -9.249  12.787  67.395  1.00  0.00    -0.193 C  
HETATM   16  H   UNL     1      -9.829  14.647  66.675  1.00  0.00     0.000 HD 
HETATM   17  O   UNL     1      -8.345  12.095  67.857  1.00  0.00    -0.142 OA 
HETATM   18  C   UNL     1     -10.617  12.216  67.074  1.00  0.00    -0.256 C  
HETATM   19  C   UNL     1     -11.643  12.835  68.004  1.00  0.00    -0.341 C  
HETATM   20  C   UNL     1     -10.974  12.240  65.575  1.00  0.00    -0.337 A  
HETATM   21  C   UNL     1      -9.971  12.072  64.602  1.00  0.00    -0.240 A  
HETATM   22  O   UNL     1     -12.230  13.893  67.808  1.00  0.00    -0.338 OA 
HETATM   23  C   UNL     1     -12.627  12.121  63.773  1.00  0.00    -0.585 A  
HETATM   24  C   UNL     1     -10.289  11.958  63.244  1.00  0.00    -0.432 A  
HETATM   25  C   UNL     1     -12.306  12.277  65.125  1.00  0.00    -0.279 A  
HETATM   26  C   UNL     1     -11.617  11.965  62.832  1.00  0.00     0.218 A  
BRANCH  19  27
HETATM   27  O   UNL     1     -11.787  12.040  69.137  1.00  0.00    -0.300 OA 
BRANCH  27  28
HETATM   28  C   UNL     1     -12.104  12.765  70.292  1.00  0.00    -0.297 A  
HETATM   29  C   UNL     1     -12.056  14.795  71.549  1.00  0.00    -0.411 A  
HETATM   30  C   UNL     1     -11.664  14.080  70.437  1.00  0.00    -0.292 A  
HETATM   31  C   UNL     1     -12.932  14.249  72.477  1.00  0.00    -0.506 A  
HETATM   32  C   UNL     1     -13.414  12.955  72.322  1.00  0.00    -0.631 A  
HETATM   33  C   UNL     1     -13.268  15.237  73.545  1.00  0.00    -0.426 C  
HETATM   34  C   UNL     1     -12.410  16.466  73.188  1.00  0.00    -0.518 C  
HETATM   35  C   UNL     1     -12.990  12.202  71.217  1.00  0.00    -0.303 A  
HETATM   36  C   UNL     1     -11.647  16.187  71.887  1.00  0.00    -0.491 C  
ENDBRANCH  27  28
ENDBRANCH  19  27
ENDBRANCH  12  14
TORSDOF 3
ENDMDL
MODEL        2
REMARK 921   NORMALIZED FREE ENERGY PREDICTED BY IDOCK:   -8.66 KCAL/MOL
REMARK 922        TOTAL FREE ENERGY PREDICTED BY IDOCK:  -11.06 KCAL/MOL
REMARK 923 INTER-LIGAND FREE ENERGY PREDICTED BY IDOCK:  -10.03 KCAL/MOL
REMARK 924 INTRA-LIGAND FREE ENERGY PREDICTED BY IDOCK:   -1.03 KCAL/MOL
REMARK 927      BINDING AFFINITY PREDICTED BY RF-SCORE:    0.00 PKD
ROOT
HETATM    1  C   UNL     1     -11.142  15.978  68.232  1.00  0.00    -0.351 C  
HETATM    2  S   UNL     1      -9.710  15.667  69.341  1.00  0.00    -0.299 SA 
HETATM    3  C   UNL     1      -8.459  16.366  68.164  1.00  0.00    -0.188 C  
HETATM    4  C   UNL     1      -7.333  17.045  68.950  1.00  0.00    -0.245 C  
HETATM    5  CA  UNL     1      -9.265  17.293  67.220  1.00  0.00    -0.232 C  
HETATM    6  C   UNL     1      -7.827  15.179  67.407  1.00  0.00    -0.224 C  
HETATM    7  N   UNL     1     -10.602  16.689  67.058  1.00  0.00    -0.288 N  
HETATM    8  C   UNL     1      -9.473  18.738  67.716  1.00  0.00    -0.301 C  
HETATM    9  OXT UNL     1      -8.583  19.492  68.082  1.00  0.00    -0.313 OA 
HETATM   10  O   UNL     1     -10.763  19.160  67.633  1.00  0.00    -0.448 OA 
HETATM   11  C   UNL     1     -10.773  15.619  66.213  1.00  0.00    -0.295 C  
HETATM   12  CA  UNL     1     -11.559  14.821  67.293  1.00  0.00    -0.369 C  
HETATM   13  O   UNL     1     -10.288  15.432  65.120  1.00  0.00    -0.382 OA 
ENDROOT
BRANCH  12  14
HETATM   14  N   UNL     1     -11.045  13.477  67.656  1.00  0.00    -0.262 N  
HETATM   15  C   UNL     1     -11.513  12.342  67.032  1.00  0.00    -0.358 C  
HETATM   16  H   UNL     1     -10.331  13.392  68.380  1.00  0.00     0.000 HD 
HETATM   17  O   UNL     1     -12.406  12.387  66.189  1.00  0.00    -0.606 OA 
HETATM   18  C   UNL     1     -10.894  11.033  67.483  1.00  0.00    -0.314 C  
HETATM   19  C   UNL     1      -9.443  10.992  67.042  1.00  0.00    -0.173 C  
HETATM   20  C   UNL     1     -11.152  10.690  68.963  1.00  0.00    -0.307 A  
HETATM   21  C   UNL     1     -12.358  11.070  69.581  1.00  0.00    -0.303 A  
HETATM   22  O   UNL     1      -8.498  11.454  67.671  1.00  0.00    -0.124 OA 
HETATM   23  C   UNL     1     -10.610   9.422  70.986  1.00  0.00    -0.400 A  
HETATM   24  C   UNL     1     -12.669  10.655  70.881  1.00  0.00    -0.498 A  
HETATM   25  C   UNL     1     -10.282   9.871  69.703  1.00  0.00    -0.261 A  
HETATM   26  C   UNL     1     -11.804   9.818  71.576  1.00  0.00    -0.476 A  
BRANCH  19  27
HETATM   27  O   UNL     1      -9.352  10.386  65.793  1.00  0.00    -0.168 OA 
BRANCH  27  28
HETATM   28  C   UNL     1      -9.113   9.007  65.857  1.00  0.00    -0.212 A  
HETATM   29  C   UNL     1      -9.754   6.819  66.568  1.00  0.00    -0.183 A  
HETATM   30  C   UNL     1      -9.967   8.181  66.585  1.00  0.00    -0.339 A  
HETATM   31  C   UNL     1      -8.751   6.264  65.784  1.00  0.00    -0.145 A  
HETATM   32  C   UNL     1      -7.920   7.072  65.018  1.00  0.00    -0.129 A  
HETATM   33  C   UNL     1      -8.765   4.773  65.870  1.00  0.00    -0.124 C  
HETATM   34  C   UNL     1      -9.884   4.478  66.887  1.00  0.00    -0.238 C  
HETATM   35  C   UNL     1      -8.101   8.462  65.059  1.00  0.00    -0.147 A  
HETATM   36  C   UNL     1     -10.535   5.797  67.318  1.00  0.00    -0.330 C  
ENDBRANCH  27  28
ENDBRANCH  19  27
ENDBRANCH  12  14
TORSDOF 3
ENDMDL
MODEL        3
REMARK 921   NORMALIZED FREE ENERGY PREDICTED BY IDOCK:   -8.39 KCAL/MOL
REMARK 922        TOTAL FREE ENERGY PREDICTED BY IDOCK:  -10.73 KCAL/MOL
REMARK 923 INTER-LIGAND FREE ENERGY PREDICTED BY IDOCK:   -9.61 KCAL/MOL
REMARK 924 INTRA-LIGAND FREE ENERGY PREDICTED BY IDOCK:   -1.13 KCAL/MOL
REMARK 927      BINDING AFFINITY PREDICTED BY RF-SCORE:    0.00 PKD
ROOT
HETATM    1  C   UNL     1     -11.114  16.046  68.038  1.00  0.00    -0.334 C  
HETATM    2  S   UNL     1      -9.743  15.688  69.208  1.00  0.00    -0.284 SA 
HETATM    3  C   UNL     1      -8.432  16.431  68.127  1.00  0.00    -0.188 C  
HETATM    4  C   UNL     1      -7.349  17.076  68.997  1.00  0.00    -0.225 C  
HETATM    5  CA  UNL     1      -9.188  17.397  67.179  1.00  0.00    -0.237 C  
HETATM    6  C   UNL     1      -7.761  15.274  67.358  1.00  0.00    -0.225 C  
HETATM    7  N   UNL     1     -10.514  16.802  66.923  1.00  0.00    -0.296 N  
HETATM    8  C   UNL     1      -9.421  18.821  67.721  1.00  0.00    -0.301 C  
HETATM    9  OXT UNL     1      -8.552  19.558  68.163  1.00  0.00    -0.313 OA 
HETATM   10  O   UNL     1     -10.705  19.249  67.587  1.00  0.00    -0.452 OA 
HETATM   11  C   UNL     1     -10.640  15.766  66.028  1.00  0.00    -0.326 C  
HETATM   12  CA  UNL     1     -11.481  14.928  67.033  1.00  0.00    -0.326 C  
HETATM   13  O   UNL     1     -10.098  15.622  64.956  1.00  0.00    -0.398 OA 
ENDROOT
BRANCH  12  14
HETATM   14  N   UNL     1     -10.987  13.570  67.369  1.00  0.00    -0.268 N  
HETATM   15  C   UNL     1     -11.508  12.450  66.759  1.00  0.00    -0.362 C  
HETATM   16  H   UNL     1     -10.247  13.463  68.064  1.00  0.00     0.000 HD 
HETATM   17  O   UNL     1     -12.433  12.522  65.953  1.00  0.00    -0.596 OA 
HETATM   18  C   UNL     1     -10.905  11.123  67.179  1.00  0.00    -0.326 C  
HETATM   19  C   UNL     1      -9.474  11.049  66.680  1.00  0.00    -0.184 C  
HETATM   20  C   UNL     1     -11.111  10.779  68.666  1.00  0.00    -0.312 A  
HETATM   21  C   UNL     1     -12.282  11.185  69.335  1.00  0.00    -0.329 A  
HETATM   22  O   UNL     1      -8.493  11.484  67.272  1.00  0.00    -0.141 OA 
HETATM   23  C   UNL     1     -10.521   9.487  70.660  1.00  0.00    -0.374 A  
HETATM   24  C   UNL     1     -12.550  10.771  70.644  1.00  0.00    -0.446 A  
HETATM   25  C   UNL     1     -10.233   9.934  69.367  1.00  0.00    -0.231 A  
HETATM   26  C   UNL     1     -11.679   9.909  71.300  1.00  0.00    -0.472 A  
BRANCH  19  27
HETATM   27  O   UNL     1      -9.448  10.447  65.424  1.00  0.00    -0.197 OA 
BRANCH  27  28
HETATM   28  C   UNL     1      -9.031   9.111  65.454  1.00  0.00    -0.207 A  
HETATM   29  C   UNL     1      -9.244   6.887  66.299  1.00  0.00    -0.157 A  
HETATM   30  C   UNL     1      -9.619   8.213  66.345  1.00  0.00    -0.286 A  
HETATM   31  C   UNL     1      -8.351   6.430  65.339  1.00  0.00    -0.141 A  
HETATM   32  C   UNL     1      -7.792   7.306  64.416  1.00  0.00    -0.126 A  
HETATM   33  C   UNL     1      -8.162   4.952  65.441  1.00  0.00    -0.121 C  
HETATM   34  C   UNL     1      -9.016   4.559  66.661  1.00  0.00    -0.114 C  
HETATM   35  C   UNL     1      -8.133   8.665  64.479  1.00  0.00    -0.162 A  
HETATM   36  C   UNL     1      -9.731   5.805  67.199  1.00  0.00    -0.147 C  
ENDBRANCH  27  28
ENDBRANCH  19  27
ENDBRANCH  12  14
TORSDOF 3
ENDMDL
MODEL        4
REMARK 921   NORMALIZED FREE ENERGY PREDICTED BY IDOCK:   -8.28 KCAL/MOL
REMARK 922        TOTAL FREE ENERGY PREDICTED BY IDOCK:  -10.61 KCAL/MOL
REMARK 923 INTER-LIGAND FREE ENERGY PREDICTED BY IDOCK:   -9.49 KCAL/MOL
REMARK 924 INTRA-LIGAND FREE ENERGY PREDICTED BY IDOCK:   -1.12 KCAL/MOL
REMARK 927      BINDING AFFINITY PREDICTED BY RF-SCORE:    0.00 PKD
ROOT
HETATM    1  C   UNL     1      -7.575   8.076  67.592  1.00  0.00    -0.102 C  
HETATM    2  S   UNL     1      -8.761   7.101  68.603  1.00  0.00    -0.126 SA 
HETATM    3  C   UNL     1      -9.419   6.134  67.164  1.00  0.00    -0.119 C  
HETATM    4  C   UNL     1      -9.785   4.717  67.618  1.00  0.00    -0.207 C  
HETATM    5  CA  UNL     1      -8.316   6.222  66.079  1.00  0.00    -0.138 C  
HETATM    6  C   UNL     1     -10.728   6.814  66.714  1.00  0.00    -0.312 C  
HETATM    7  N   UNL     1      -7.674   7.544  66.220  1.00  0.00    -0.087 N  
HETATM    8  C   UNL     1      -7.202   5.160  66.167  1.00  0.00    -0.073 C  
HETATM    9  OXT UNL     1      -7.382   3.952  66.221  1.00  0.00    -0.073 OA 
HETATM   10  O   UNL     1      -5.948   5.681  66.093  1.00  0.00    -0.021 OA 
HETATM   11  C   UNL     1      -8.299   8.665  65.729  1.00  0.00    -0.144 C  
HETATM   12  CA  UNL     1      -8.073   9.440  67.059  1.00  0.00    -0.105 C  
HETATM   13  O   UNL     1      -8.906   8.800  64.692  1.00  0.00    -0.136 OA 
ENDROOT
BRANCH  12  14
HETATM   14  N   UNL     1      -9.271   9.999  67.734  1.00  0.00    -0.134 N  
HETATM   15  C   UNL     1      -9.180  11.109  68.543  1.00  0.00    -0.183 C  
HETATM   16  H   UNL     1     -10.178   9.553  67.596  1.00  0.00     0.000 HD 
HETATM   17  O   UNL     1      -8.104  11.652  68.781  1.00  0.00    -0.140 OA 
HETATM   18  C   UNL     1     -10.480  11.590  69.161  1.00  0.00    -0.135 C  
HETATM   19  C   UNL     1     -11.375  12.139  68.066  1.00  0.00    -0.295 C  
HETATM   20  C   UNL     1     -11.138  10.575  70.115  1.00  0.00    -0.369 A  
HETATM   21  C   UNL     1     -10.344   9.715  70.896  1.00  0.00    -0.334 A  
HETATM   22  O   UNL     1     -12.147  11.476  67.382  1.00  0.00    -0.593 OA 
HETATM   23  C   UNL     1     -13.088   9.764  71.352  1.00  0.00    -0.489 A  
HETATM   24  C   UNL     1     -10.914   8.880  71.863  1.00  0.00    -0.439 A  
HETATM   25  C   UNL     1     -12.523  10.567  70.357  1.00  0.00    -0.392 A  
HETATM   26  C   UNL     1     -12.283   8.918  72.103  1.00  0.00    -0.437 A  
BRANCH  19  27
HETATM   27  O   UNL     1     -11.156  13.507  67.925  1.00  0.00    -0.250 OA 
BRANCH  27  28
HETATM   28  C   UNL     1     -11.451  14.241  69.081  1.00  0.00    -0.291 A  
HETATM   29  C   UNL     1     -12.705  14.533  71.093  1.00  0.00    -0.408 A  
HETATM   30  C   UNL     1     -12.487  13.837  69.923  1.00  0.00    -0.259 A  
HETATM   31  C   UNL     1     -11.868  15.574  71.471  1.00  0.00    -0.472 A  
HETATM   32  C   UNL     1     -10.804  15.959  70.663  1.00  0.00    -0.234 A  
HETATM   33  C   UNL     1     -12.256  16.119  72.806  1.00  0.00    -0.628 C  
HETATM   34  C   UNL     1     -13.512  15.309  73.178  1.00  0.00    -0.518 C  
HETATM   35  C   UNL     1     -10.597  15.286  69.450  1.00  0.00    -0.257 A  
HETATM   36  C   UNL     1     -13.786  14.272  72.083  1.00  0.00    -0.589 C  
ENDBRANCH  27  28
ENDBRANCH  19  27
ENDBRANCH  12  14
TORSDOF 3
ENDMDL
MODEL        5
REMARK 921   NORMALIZED FREE ENERGY PREDICTED BY IDOCK:   -8.27 KCAL/MOL
REMARK 922        TOTAL FREE ENERGY PREDICTED BY IDOCK:  -10.59 KCAL/MOL
REMARK 923 INTER-LIGAND FREE ENERGY PREDICTED BY IDOCK:   -9.39 KCAL/MOL
REMARK 924 INTRA-LIGAND FREE ENERGY PREDICTED BY IDOCK:   -1.20 KCAL/MOL
REMARK 927      BINDING AFFINITY PREDICTED BY RF-SCORE:    0.00 PKD
ROOT
HETATM    1  C   UNL     1     -10.909   8.897  69.124  1.00  0.00    -0.070 C  
HETATM    2  S   UNL     1     -10.464   8.788  67.344  1.00  0.00    -0.244 SA 
HETATM    3  C   UNL     1      -8.810   8.010  67.654  1.00  0.00    -0.125 C  
HETATM    4  C   UNL     1      -8.476   7.036  66.520  1.00  0.00    -0.125 C  
HETATM    5  CA  UNL     1      -8.919   7.377  69.065  1.00  0.00    -0.131 C  
HETATM    6  C   UNL     1      -7.756   9.135  67.605  1.00  0.00    -0.089 C  
HETATM    7  N   UNL     1      -9.811   8.243  69.860  1.00  0.00    -0.184 N  
HETATM    8  C   UNL     1      -9.499   5.950  69.117  1.00  0.00    -0.128 C  
HETATM    9  OXT UNL     1      -9.094   5.000  68.464  1.00  0.00    -0.105 OA 
HETATM   10  O   UNL     1     -10.484   5.798  70.043  1.00  0.00    -0.231 OA 
HETATM   11  C   UNL     1      -9.335   9.421  70.384  1.00  0.00    -0.268 C  
HETATM   12  CA  UNL     1     -10.559  10.218  69.849  1.00  0.00    -0.276 C  
HETATM   13  O   UNL     1      -8.262   9.642  70.897  1.00  0.00    -0.290 OA 
ENDROOT
BRANCH  12  14
HETATM   14  N   UNL     1     -10.284  11.383  68.972  1.00  0.00    -0.361 N  
HETATM   15  C   UNL     1     -10.927  12.586  69.161  1.00  0.00    -0.144 C  
HETATM   16  H   UNL     1      -9.605  11.292  68.216  1.00  0.00     0.000 HD 
HETATM   17  O   UNL     1     -11.788  12.732  70.026  1.00  0.00    -0.325 OA 
HETATM   18  C   UNL     1     -10.544  13.701  68.208  1.00  0.00    -0.261 C  
HETATM   19  C   UNL     1      -9.115  14.125  68.489  1.00  0.00    -0.176 C  
HETATM   20  C   UNL     1     -10.877  13.411  66.732  1.00  0.00    -0.286 A  
HETATM   21  C   UNL     1     -12.011  12.648  66.395  1.00  0.00    -0.425 A  
HETATM   22  O   UNL     1      -8.114  13.605  68.007  1.00  0.00    -0.136 OA 
HETATM   23  C   UNL     1     -10.585  13.879  64.347  1.00  0.00    -0.256 A  
HETATM   24  C   UNL     1     -12.405  12.485  65.062  1.00  0.00    -0.522 A  
HETATM   25  C   UNL     1     -10.167  14.008  65.675  1.00  0.00    -0.351 A  
HETATM   26  C   UNL     1     -11.702  13.114  64.040  1.00  0.00    -0.496 A  
BRANCH  19  27
HETATM   27  O   UNL     1      -9.109  15.168  69.411  1.00  0.00    -0.227 OA 
BRANCH  27  28
HETATM   28  C   UNL     1      -8.875  16.422  68.833  1.00  0.00    -0.256 A  
HETATM   29  C   UNL     1      -9.690  18.459  67.890  1.00  0.00    -0.325 A  
HETATM   30  C   UNL     1      -9.943  17.196  68.383  1.00  0.00    -0.310 A  
HETATM   31  C   UNL     1      -8.406  18.987  67.905  1.00  0.00    -0.320 A  
HETATM   32  C   UNL     1      -7.339  18.243  68.393  1.00  0.00    -0.285 A  
HETATM   33  C   UNL     1      -8.397  20.390  67.394  1.00  0.00    -0.380 C  
HETATM   34  C   UNL     1      -9.861  20.639  66.986  1.00  0.00    -0.449 C  
HETATM   35  C   UNL     1      -7.576  16.941  68.858  1.00  0.00    -0.234 A  
HETATM   36  C   UNL     1     -10.697  19.401  67.328  1.00  0.00    -0.603 C  
ENDBRANCH  27  28
ENDBRANCH  19  27
ENDBRANCH  12  14
TORSDOF 3
ENDMDL
MODEL        6
REMARK 921   NORMALIZED FREE ENERGY PREDICTED BY IDOCK:   -8.25 KCAL/MOL
REMARK 922        TOTAL FREE ENERGY PREDICTED BY IDOCK:  -10.57 KCAL/MOL
REMARK 923 INTER-LIGAND FREE ENERGY PREDICTED BY IDOCK:   -9.71 KCAL/MOL
REMARK 924 INTRA-LIGAND FREE ENERGY PREDICTED BY IDOCK:   -0.86 KCAL/MOL
REMARK 927      BINDING AFFINITY PREDICTED BY RF-SCORE:    0.00 PKD
ROOT
HETATM    1  C   UNL     1     -11.474   8.004  71.084  1.00  0.00    -0.276 C  
HETATM    2  S   UNL     1     -11.126   7.155  69.491  1.00  0.00    -0.087 SA 
HETATM    3  C   UNL     1      -9.553   6.371  70.084  1.00  0.00    -0.160 C  
HETATM    4  C   UNL     1      -9.380   4.998  69.426  1.00  0.00    -0.179 C  
HETATM    5  CA  UNL     1      -9.665   6.359  71.630  1.00  0.00    -0.160 C  
HETATM    6  C   UNL     1      -8.387   7.255  69.596  1.00  0.00    -0.132 C  
HETATM    7  N   UNL     1     -10.420   7.566  72.019  1.00  0.00    -0.204 N  
HETATM    8  C   UNL     1     -10.394   5.146  72.241  1.00  0.00    -0.211 C  
HETATM    9  OXT UNL     1     -10.124   3.975  72.016  1.00  0.00    -0.177 OA 
HETATM   10  O   UNL     1     -11.345   5.486  73.151  1.00  0.00    -0.286 OA 
HETATM   11  C   UNL     1      -9.796   8.790  72.036  1.00  0.00    -0.306 C  
HETATM   12  CA  UNL     1     -10.950   9.452  71.230  1.00  0.00    -0.370 C  
HETATM   13  O   UNL     1      -8.682   9.066  72.421  1.00  0.00    -0.347 OA 
ENDROOT
BRANCH  12  14
HETATM   14  N   UNL     1     -10.590  10.140  69.965  1.00  0.00    -0.278 N  
HETATM   15  C   UNL     1     -11.553  10.496  69.048  1.00  0.00    -0.207 C  
HETATM   16  H   UNL     1      -9.611  10.352  69.771  1.00  0.00     0.000 HD 
HETATM   17  O   UNL     1     -12.739  10.218  69.212  1.00  0.00     0.112 OA 
HETATM   18  C   UNL     1     -11.056  11.207  67.804  1.00  0.00    -0.344 C  
HETATM   19  C   UNL     1     -10.544  12.581  68.190  1.00  0.00    -0.226 C  
HETATM   20  C   UNL     1     -10.108  10.362  66.931  1.00  0.00    -0.269 A  
HETATM   21  C   UNL     1     -10.278   8.967  66.841  1.00  0.00    -0.339 A  
HETATM   22  O   UNL     1      -9.408  12.832  68.576  1.00  0.00    -0.176 OA 
HETATM   23  C   UNL     1      -8.418  10.187  65.169  1.00  0.00    -0.167 A  
HETATM   24  C   UNL     1      -9.515   8.200  65.954  1.00  0.00    -0.082 A  
HETATM   25  C   UNL     1      -9.150  10.948  66.085  1.00  0.00    -0.201 A  
HETATM   26  C   UNL     1      -8.598   8.811  65.106  1.00  0.00    -0.209 A  
BRANCH  19  27
HETATM   27  O   UNL     1     -11.573  13.512  68.079  1.00  0.00    -0.296 OA 
BRANCH  27  28
HETATM   28  C   UNL     1     -11.746  14.293  69.229  1.00  0.00    -0.321 A  
HETATM   29  C   UNL     1     -12.431  14.514  71.507  1.00  0.00    -0.424 A  
HETATM   30  C   UNL     1     -12.344  13.747  70.364  1.00  0.00    -0.423 A  
HETATM   31  C   UNL     1     -11.871  15.784  71.558  1.00  0.00    -0.514 A  
HETATM   32  C   UNL     1     -11.232  16.323  70.448  1.00  0.00    -0.336 A  
HETATM   33  C   UNL     1     -12.024  16.383  72.917  1.00  0.00    -0.569 C  
HETATM   34  C   UNL     1     -12.832  15.326  73.693  1.00  0.00    -0.662 C  
HETATM   35  C   UNL     1     -11.174  15.569  69.267  1.00  0.00    -0.312 A  
HETATM   36  C   UNL     1     -13.073  14.112  72.788  1.00  0.00    -0.573 C  
ENDBRANCH  27  28
ENDBRANCH  19  27
ENDBRANCH  12  14
TORSDOF 3
ENDMDL
MODEL        7
REMARK 921   NORMALIZED FREE ENERGY PREDICTED BY IDOCK:   -8.23 KCAL/MOL
REMARK 922        TOTAL FREE ENERGY PREDICTED BY IDOCK:  -10.55 KCAL/MOL
REMARK 923 INTER-LIGAND FREE ENERGY PREDICTED BY IDOCK:   -9.27 KCAL/MOL
REMARK 924 INTRA-LIGAND FREE ENERGY PREDICTED BY IDOCK:   -1.28 KCAL/MOL
REMARK 927      BINDING AFFINITY PREDICTED BY RF-SCORE:    0.00 PKD
ROOT
HETATM    1  C   UNL     1     -10.167  17.812  68.140  1.00  0.00    -0.382 C  
HETATM    2  S   UNL     1      -8.417  17.346  68.453  1.00  0.00    -0.267 SA 
HETATM    3  C   UNL     1      -7.769  18.180  66.928  1.00  0.00    -0.224 C  
HETATM    4  C   UNL     1      -6.370  18.740  67.201  1.00  0.00    -0.193 C  
HETATM    5  CA  UNL     1      -8.846  19.229  66.553  1.00  0.00    -0.346 C  
HETATM    6  C   UNL     1      -7.616  17.095  65.842  1.00  0.00     0.007 C  
HETATM    7  N   UNL     1     -10.155  18.664  66.937  1.00  0.00    -0.344 N  
HETATM    8  C   UNL     1      -8.718  20.600  67.248  1.00  0.00    -0.213 C  
HETATM    9  OXT UNL     1      -7.710  21.291  67.261  1.00  0.00    -0.361 OA 
HETATM   10  O   UNL     1      -9.881  21.041  67.796  1.00  0.00    -0.234 OA 
HETATM   11  C   UNL     1     -10.750  17.714  66.142  1.00  0.00    -0.105 C  
HETATM   12  CA  UNL     1     -11.031  16.790  67.362  1.00  0.00    -0.092 C  
HETATM   13  O   UNL     1     -10.810  17.666  64.935  1.00  0.00    -0.831 OA 
ENDROOT
BRANCH  12  14
HETATM   14  N   UNL     1     -10.500  15.406  67.305  1.00  0.00    -0.276 N  
HETATM   15  C   UNL     1     -10.674  14.531  68.354  1.00  0.00    -0.243 C  
HETATM   16  H   UNL     1      -9.996  15.096  66.474  1.00  0.00     0.000 HD 
HETATM   17  O   UNL     1     -11.229  14.871  69.396  1.00  0.00    -0.255 OA 
HETATM   18  C   UNL     1     -10.097  13.141  68.164  1.00  0.00    -0.237 C  
HETATM   19  C   UNL     1     -10.888  12.419  67.090  1.00  0.00    -0.245 C  
HETATM   20  C   UNL     1      -8.565  13.112  67.999  1.00  0.00    -0.182 A  
HETATM   21  C   UNL     1      -7.759  14.048  68.674  1.00  0.00    -0.135 A  
HETATM   22  O   UNL     1     -10.671  12.485  65.885  1.00  0.00    -0.255 OA 
HETATM   23  C   UNL     1      -6.515  11.964  67.312  1.00  0.00    -0.141 A  
HETATM   24  C   UNL     1      -6.363  13.957  68.645  1.00  0.00    -0.090 A  
HETATM   25  C   UNL     1      -7.908  12.079  67.307  1.00  0.00    -0.170 A  
HETATM   26  C   UNL     1      -5.742  12.906  67.978  1.00  0.00    -0.102 A  
BRANCH  19  27
HETATM   27  O   UNL     1     -11.926  11.702  67.677  1.00  0.00    -0.618 OA 
BRANCH  27  28
HETATM   28  C   UNL     1     -11.488  10.696  68.547  1.00  0.00    -0.265 A  
HETATM   29  C   UNL     1     -11.645   9.537  70.630  1.00  0.00    -0.350 A  
HETATM   30  C   UNL     1     -12.039  10.583  69.823  1.00  0.00    -0.285 A  
HETATM   31  C   UNL     1     -10.768   8.567  70.163  1.00  0.00    -0.240 A  
HETATM   32  C   UNL     1     -10.245   8.643  68.878  1.00  0.00    -0.221 A  
HETATM   33  C   UNL     1     -10.553   7.500  71.186  1.00  0.00    -0.234 C  
HETATM   34  C   UNL     1     -11.372   7.986  72.397  1.00  0.00    -0.443 C  
HETATM   35  C   UNL     1     -10.606   9.725  68.062  1.00  0.00    -0.291 A  
HETATM   36  C   UNL     1     -12.093   9.288  72.028  1.00  0.00    -0.406 C  
ENDBRANCH  27  28
ENDBRANCH  19  27
ENDBRANCH  12  14
TORSDOF 3
ENDMDL
MODEL        8
REMARK 921   NORMALIZED FREE ENERGY PREDICTED BY IDOCK:   -8.21 KCAL/MOL
REMARK 922        TOTAL FREE ENERGY PREDICTED BY IDOCK:  -10.53 KCAL/MOL
REMARK 923 INTER-LIGAND FREE ENERGY PREDICTED BY IDOCK:   -9.32 KCAL/MOL
REMARK 924 INTRA-LIGAND FREE ENERGY PREDICTED BY IDOCK:   -1.21 KCAL/MOL
REMARK 927      BINDING AFFINITY PREDICTED BY RF-SCORE:    0.00 PKD
ROOT
HETATM    1  C   UNL     1     -10.784   8.974  69.072  1.00  0.00    -0.141 C  
HETATM    2  S   UNL     1     -10.499   8.948  67.256  1.00  0.00    -0.241 SA 
HETATM    3  C   UNL     1      -8.797   8.223  67.386  1.00  0.00    -0.131 C  
HETATM    4  C   UNL     1      -8.534   7.304  66.188  1.00  0.00    -0.144 C  
HETATM    5  CA  UNL     1      -8.756   7.535  68.775  1.00  0.00    -0.128 C  
HETATM    6  C   UNL     1      -7.792   9.389  67.289  1.00  0.00    -0.099 C  
HETATM    7  N   UNL     1      -9.602   8.336  69.680  1.00  0.00    -0.167 N  
HETATM    8  C   UNL     1      -9.279   6.085  68.821  1.00  0.00    -0.123 C  
HETATM    9  OXT UNL     1      -8.901   5.176  68.097  1.00  0.00    -0.102 OA 
HETATM   10  O   UNL     1     -10.170   5.862  69.824  1.00  0.00    -0.183 OA 
HETATM   11  C   UNL     1      -9.122   9.511  70.207  1.00  0.00    -0.253 C  
HETATM   12  CA  UNL     1     -10.417  10.279  69.816  1.00  0.00    -0.259 C  
HETATM   13  O   UNL     1      -8.015   9.754  70.631  1.00  0.00    -0.272 OA 
ENDROOT
BRANCH  12  14
HETATM   14  N   UNL     1     -10.262  11.486  68.965  1.00  0.00    -0.384 N  
HETATM   15  C   UNL     1     -11.074  12.585  69.133  1.00  0.00    -0.196 C  
HETATM   16  H   UNL     1      -9.542  11.501  68.243  1.00  0.00     0.000 HD 
HETATM   17  O   UNL     1     -11.988  12.598  69.955  1.00  0.00    -0.321 OA 
HETATM   18  C   UNL     1     -10.803  13.759  68.211  1.00  0.00    -0.266 C  
HETATM   19  C   UNL     1      -9.461  14.370  68.568  1.00  0.00    -0.212 C  
HETATM   20  C   UNL     1     -11.021  13.450  66.718  1.00  0.00    -0.298 A  
HETATM   21  C   UNL     1     -12.021  12.545  66.317  1.00  0.00    -0.410 A  
HETATM   22  O   UNL     1      -8.376  14.001  68.132  1.00  0.00    -0.146 OA 
HETATM   23  C   UNL     1     -10.681  13.994  64.355  1.00  0.00    -0.236 A  
HETATM   24  C   UNL     1     -12.324  12.351  64.964  1.00  0.00    -0.441 A  
HETATM   25  C   UNL     1     -10.350  14.157  65.703  1.00  0.00    -0.348 A  
HETATM   26  C   UNL     1     -11.666  13.088  63.985  1.00  0.00    -0.497 A  
BRANCH  19  27
HETATM   27  O   UNL     1      -9.643  15.388  69.499  1.00  0.00    -0.255 OA 
BRANCH  27  28
HETATM   28  C   UNL     1      -9.584  16.672  68.942  1.00  0.00    -0.252 A  
HETATM   29  C   UNL     1      -8.325  18.582  68.256  1.00  0.00    -0.344 A  
HETATM   30  C   UNL     1      -8.369  17.353  68.879  1.00  0.00    -0.160 A  
HETATM   31  C   UNL     1      -9.450  19.108  67.636  1.00  0.00    -0.363 A  
HETATM   32  C   UNL     1     -10.657  18.419  67.652  1.00  0.00    -0.437 A  
HETATM   33  C   UNL     1      -9.137  20.406  66.967  1.00  0.00    -0.459 C  
HETATM   34  C   UNL     1      -7.659  20.652  67.324  1.00  0.00    -0.381 C  
HETATM   35  C   UNL     1     -10.725  17.188  68.319  1.00  0.00    -0.363 A  
HETATM   36  C   UNL     1      -7.131  19.464  68.136  1.00  0.00    -0.310 C  
ENDBRANCH  27  28
ENDBRANCH  19  27
ENDBRANCH  12  14
TORSDOF 3
ENDMDL
MODEL        9
REMARK 921   NORMALIZED FREE ENERGY PREDICTED BY IDOCK:   -8.19 KCAL/MOL
REMARK 922        TOTAL FREE ENERGY PREDICTED BY IDOCK:  -10.50 KCAL/MOL
REMARK 923 INTER-LIGAND FREE ENERGY PREDICTED BY IDOCK:   -9.51 KCAL/MOL
REMARK 924 INTRA-LIGAND FREE ENERGY PREDICTED BY IDOCK:   -0.99 KCAL/MOL
REMARK 927      BINDING AFFINITY PREDICTED BY RF-SCORE:    0.00 PKD
ROOT
HETATM    1  C   UNL     1      -7.664  15.590  67.639  1.00  0.00    -0.158 C  
HETATM    2  S   UNL     1      -8.687  15.966  66.159  1.00  0.00    -0.188 SA 
HETATM    3  C   UNL     1      -9.911  17.005  67.088  1.00  0.00    -0.281 C  
HETATM    4  C   UNL     1     -10.415  18.138  66.188  1.00  0.00    -0.377 C  
HETATM    5  CA  UNL     1      -9.169  17.454  68.372  1.00  0.00    -0.277 C  
HETATM    6  C   UNL     1     -11.126  16.108  67.406  1.00  0.00    -0.134 C  
HETATM    7  N   UNL     1      -8.256  16.357  68.751  1.00  0.00    -0.223 N  
HETATM    8  C   UNL     1      -8.318  18.733  68.242  1.00  0.00    -0.330 C  
HETATM    9  OXT UNL     1      -8.719  19.806  67.815  1.00  0.00    -0.314 OA 
HETATM   10  O   UNL     1      -7.058  18.599  68.736  1.00  0.00    -0.285 OA 
HETATM   11  C   UNL     1      -8.751  15.241  69.382  1.00  0.00    -0.216 C  
HETATM   12  CA  UNL     1      -8.002  14.289  68.406  1.00  0.00    -0.143 C  
HETATM   13  O   UNL     1      -9.587  15.173  70.254  1.00  0.00     0.063 OA 
ENDROOT
BRANCH  12  14
HETATM   14  N   UNL     1      -8.817  13.295  67.665  1.00  0.00    -0.188 N  
HETATM   15  C   UNL     1      -8.910  11.989  68.091  1.00  0.00    -0.182 C  
HETATM   16  H   UNL     1      -9.318  13.584  66.824  1.00  0.00     0.000 HD 
HETATM   17  O   UNL     1      -8.288  11.580  69.068  1.00  0.00    -0.052 OA 
HETATM   18  C   UNL     1      -9.788  11.078  67.254  1.00  0.00    -0.204 C  
HETATM   19  C   UNL     1     -11.235  11.505  67.408  1.00  0.00    -0.304 C  
HETATM   20  C   UNL     1      -9.299  10.887  65.806  1.00  0.00    -0.232 A  
HETATM   21  C   UNL     1      -7.921  10.886  65.514  1.00  0.00     0.002 A  
HETATM   22  O   UNL     1     -11.794  12.368  66.740  1.00  0.00    -0.493 OA 
HETATM   23  C   UNL     1      -9.705  10.217  63.486  1.00  0.00    -0.255 A  
HETATM   24  C   UNL     1      -7.451  10.583  64.232  1.00  0.00     0.093 A  
HETATM   25  C   UNL     1     -10.177  10.561  64.757  1.00  0.00    -0.373 A  
HETATM   26  C   UNL     1      -8.342  10.232  63.223  1.00  0.00    -0.168 A  
BRANCH  19  27
HETATM   27  O   UNL     1     -11.823  10.797  68.452  1.00  0.00    -0.478 OA 
BRANCH  27  28
HETATM   28  C   UNL     1     -12.161  11.599  69.550  1.00  0.00    -0.270 A  
HETATM   29  C   UNL     1     -12.654  13.741  70.485  1.00  0.00    -0.361 A  
HETATM   30  C   UNL     1     -12.244  12.983  69.408  1.00  0.00    -0.167 A  
HETATM   31  C   UNL     1     -13.048  13.139  71.672  1.00  0.00    -0.444 A  
HETATM   32  C   UNL     1     -13.012  11.757  71.813  1.00  0.00    -0.466 A  
HETATM   33  C   UNL     1     -13.520  14.156  72.658  1.00  0.00    -0.634 C  
HETATM   34  C   UNL     1     -13.295  15.497  71.936  1.00  0.00    -0.569 C  
HETATM   35  C   UNL     1     -12.557  10.978  70.739  1.00  0.00    -0.463 A  
HETATM   36  C   UNL     1     -12.757  15.226  70.526  1.00  0.00    -0.440 C  
ENDBRANCH  27  28
ENDBRANCH  19  27
ENDBRANCH  12  14
TORSDOF 3
ENDMDL
MODEL       10
REMARK 921   NORMALIZED FREE ENERGY PREDICTED BY IDOCK:   -8.11 KCAL/MOL
REMARK 922        TOTAL FREE ENERGY PREDICTED BY IDOCK:  -10.41 KCAL/MOL
REMARK 923 INTER-LIGAND FREE ENERGY PREDICTED BY IDOCK:   -9.34 KCAL/MOL
REMARK 924 INTRA-LIGAND FREE ENERGY PREDICTED BY IDOCK:   -1.07 KCAL/MOL
REMARK 927      BINDING AFFINITY PREDICTED BY RF-SCORE:    0.00 PKD
ROOT
HETATM    1  C   UNL     1     -11.216  15.675  68.478  1.00  0.00    -0.342 C  
HETATM    2  S   UNL     1      -9.742  15.477  69.558  1.00  0.00    -0.269 SA 
HETATM    3  C   UNL     1      -8.534  16.011  68.256  1.00  0.00    -0.177 C  
HETATM    4  C   UNL     1      -7.369  16.762  68.909  1.00  0.00    -0.235 C  
HETATM    5  CA  UNL     1      -9.370  16.831  67.240  1.00  0.00    -0.231 C  
HETATM    6  C   UNL     1      -7.947  14.733  67.623  1.00  0.00    -0.191 C  
HETATM    7  N   UNL     1     -10.718  16.232  67.206  1.00  0.00    -0.299 N  
HETATM    8  C   UNL     1      -9.542  18.328  67.567  1.00  0.00    -0.280 C  
HETATM    9  OXT UNL     1      -8.630  19.107  67.804  1.00  0.00    -0.289 OA 
HETATM   10  O   UNL     1     -10.830  18.756  67.487  1.00  0.00    -0.435 OA 
HETATM   11  C   UNL     1     -10.935  15.071  66.503  1.00  0.00    -0.327 C  
HETATM   12  CA  UNL     1     -11.683  14.420  67.702  1.00  0.00    -0.391 C  
HETATM   13  O   UNL     1     -10.498  14.747  65.423  1.00  0.00    -0.325 OA 
ENDROOT
BRANCH  12  14
HETATM   14  N   UNL     1     -11.168  13.122  68.203  1.00  0.00    -0.256 N  
HETATM   15  C   UNL     1     -11.477  11.939  67.569  1.00  0.00    -0.326 C  
HETATM   16  H   UNL     1     -10.574  13.104  69.033  1.00  0.00     0.000 HD 
HETATM   17  O   UNL     1     -12.227  11.902  66.597  1.00  0.00    -0.493 OA 
HETATM   18  C   UNL     1     -10.874  10.684  68.171  1.00  0.00    -0.291 C  
HETATM   19  C   UNL     1      -9.372  10.707  67.963  1.00  0.00    -0.147 C  
HETATM   20  C   UNL     1     -11.345  10.386  69.608  1.00  0.00    -0.333 A  
HETATM   21  C   UNL     1     -12.650  10.722  70.013  1.00  0.00    -0.247 A  
HETATM   22  O   UNL     1      -8.561  11.244  68.708  1.00  0.00    -0.158 OA 
HETATM   23  C   UNL     1     -11.067   9.230  71.747  1.00  0.00    -0.398 A  
HETATM   24  C   UNL     1     -13.141  10.342  71.267  1.00  0.00    -0.494 A  
HETATM   25  C   UNL     1     -10.563   9.645  70.511  1.00  0.00    -0.369 A  
HETATM   26  C   UNL     1     -12.356   9.581  72.126  1.00  0.00    -0.332 A  
BRANCH  19  27
HETATM   27  O   UNL     1      -9.056  10.058  66.772  1.00  0.00    -0.138 OA 
BRANCH  27  28
HETATM   28  C   UNL     1      -9.174   8.665  66.847  1.00  0.00    -0.159 A  
HETATM   29  C   UNL     1      -8.237   6.524  67.343  1.00  0.00    -0.121 A  
HETATM   30  C   UNL     1      -8.073   7.886  67.202  1.00  0.00    -0.117 A  
HETATM   31  C   UNL     1      -9.488   5.938  67.207  1.00  0.00    -0.117 A  
HETATM   32  C   UNL     1     -10.603   6.709  66.897  1.00  0.00    -0.376 A  
HETATM   33  C   UNL     1      -9.427   4.471  67.481  1.00  0.00    -0.193 C  
HETATM   34  C   UNL     1      -7.931   4.211  67.738  1.00  0.00    -0.090 C  
HETATM   35  C   UNL     1     -10.441   8.089  66.709  1.00  0.00    -0.319 A  
HETATM   36  C   UNL     1      -7.169   5.540  67.672  1.00  0.00    -0.075 C  
ENDBRANCH  27  28
ENDBRANCH  19  27
ENDBRANCH  12  14
TORSDOF 3
ENDMDL
MODEL       11
REMARK 921   NORMALIZED FREE ENERGY PREDICTED BY IDOCK:   -8.06 KCAL/MOL
REMARK 922        TOTAL FREE ENERGY PREDICTED BY IDOCK:  -10.36 KCAL/MOL
REMARK 923 INTER-LIGAND FREE ENERGY PREDICTED BY IDOCK:   -9.07 KCAL/MOL
REMARK 924 INTRA-LIGAND FREE ENERGY PREDICTED BY IDOCK:   -1.28 KCAL/MOL
REMARK 927      BINDING AFFINITY PREDICTED BY RF-SCORE:    0.00 PKD
ROOT
HETATM    1  C   UNL     1     -10.014  17.876  68.213  1.00  0.00    -0.360 C  
HETATM    2  S   UNL     1      -8.299  17.335  68.593  1.00  0.00    -0.229 SA 
HETATM    3  C   UNL     1      -7.563  18.110  67.077  1.00  0.00    -0.214 C  
HETATM    4  C   UNL     1      -6.149  18.611  67.388  1.00  0.00    -0.175 C  
HETATM    5  CA  UNL     1      -8.577  19.202  66.648  1.00  0.00    -0.319 C  
HETATM    6  C   UNL     1      -7.425  17.000  66.015  1.00  0.00    -0.115 C  
HETATM    7  N   UNL     1      -9.922  18.704  66.997  1.00  0.00    -0.322 N  
HETATM    8  C   UNL     1      -8.407  20.577  67.324  1.00  0.00    -0.286 C  
HETATM    9  OXT UNL     1      -7.369  21.222  67.360  1.00  0.00    -0.484 OA 
HETATM   10  O   UNL     1      -9.566  21.082  67.826  1.00  0.00    -0.211 OA 
HETATM   11  C   UNL     1     -10.535  17.769  66.199  1.00  0.00    -0.301 C  
HETATM   12  CA  UNL     1     -10.898  16.881  67.424  1.00  0.00    -0.166 C  
HETATM   13  O   UNL     1     -10.557  17.701  64.991  1.00  0.00    -0.525 OA 
ENDROOT
BRANCH  12  14
HETATM   14  N   UNL     1     -10.431  15.473  67.408  1.00  0.00    -0.275 N  
HETATM   15  C   UNL     1     -10.702  14.620  68.454  1.00  0.00    -0.241 C  
HETATM   16  H   UNL     1      -9.898  15.130  66.607  1.00  0.00     0.000 HD 
HETATM   17  O   UNL     1     -11.296  14.997  69.461  1.00  0.00    -0.255 OA 
HETATM   18  C   UNL     1     -10.182  13.202  68.307  1.00  0.00    -0.250 C  
HETATM   19  C   UNL     1     -10.948  12.506  67.198  1.00  0.00    -0.263 C  
HETATM   20  C   UNL     1      -8.647  13.099  68.226  1.00  0.00    -0.166 A  
HETATM   21  C   UNL     1      -7.835  14.004  68.935  1.00  0.00    -0.045 A  
HETATM   22  O   UNL     1     -10.664  12.548  66.006  1.00  0.00    -0.254 OA 
HETATM   23  C   UNL     1      -6.620  11.849  67.661  1.00  0.00    -0.099 A  
HETATM   24  C   UNL     1      -6.445  13.848  68.982  1.00  0.00    -0.103 A  
HETATM   25  C   UNL     1      -8.003  12.029  67.579  1.00  0.00    -0.159 A  
HETATM   26  C   UNL     1      -5.840  12.761  68.360  1.00  0.00    -0.061 A  
BRANCH  19  27
HETATM   27  O   UNL     1     -12.049  11.844  67.734  1.00  0.00    -0.564 OA 
BRANCH  27  28
HETATM   28  C   UNL     1     -11.713  10.917  68.729  1.00  0.00    -0.286 A  
HETATM   29  C   UNL     1     -10.476   9.010  69.460  1.00  0.00    -0.223 A  
HETATM   30  C   UNL     1     -10.850   9.861  68.442  1.00  0.00    -0.263 A  
HETATM   31  C   UNL     1     -10.889   9.233  70.766  1.00  0.00    -0.349 A  
HETATM   32  C   UNL     1     -11.714  10.309  71.075  1.00  0.00    -0.461 A  
HETATM   33  C   UNL     1     -10.296   8.228  71.697  1.00  0.00    -0.289 C  
HETATM   34  C   UNL     1      -9.504   7.292  70.765  1.00  0.00    -0.164 C  
HETATM   35  C   UNL     1     -12.136  11.158  70.041  1.00  0.00    -0.437 A  
HETATM   36  C   UNL     1      -9.603   7.811  69.326  1.00  0.00    -0.159 C  
ENDBRANCH  27  28
ENDBRANCH  19  27
ENDBRANCH  12  14
TORSDOF 3
ENDMDL
MODEL       12
REMARK 921   NORMALIZED FREE ENERGY PREDICTED BY IDOCK:   -7.82 KCAL/MOL
REMARK 922        TOTAL FREE ENERGY PREDICTED BY IDOCK:  -10.07 KCAL/MOL
REMARK 923 INTER-LIGAND FREE ENERGY PREDICTED BY IDOCK:   -8.90 KCAL/MOL
REMARK 924 INTRA-LIGAND FREE ENERGY PREDICTED BY IDOCK:   -1.17 KCAL/MOL
REMARK 927      BINDING AFFINITY PREDICTED BY RF-SCORE:    0.00 PKD
ROOT
HETATM    1  C   UNL     1      -9.147   5.772  70.324  1.00  0.00    -0.145 C  
HETATM    2  S   UNL     1      -8.190   7.007  71.292  1.00  0.00    -0.113 SA 
HETATM    3  C   UNL     1      -9.557   7.334  72.502  1.00  0.00    -0.152 C  
HETATM    4  C   UNL     1      -8.964   7.633  73.883  1.00  0.00    -0.321 C  
HETATM    5  CA  UNL     1     -10.472   6.085  72.426  1.00  0.00    -0.201 C  
HETATM    6  C   UNL     1     -10.285   8.612  72.038  1.00  0.00    -0.407 C  
HETATM    7  N   UNL     1     -10.428   5.600  71.033  1.00  0.00    -0.238 N  
HETATM    8  C   UNL     1     -10.072   4.905  73.334  1.00  0.00    -0.166 C  
HETATM    9  OXT UNL     1      -9.873   4.977  74.538  1.00  0.00    -0.159 OA 
HETATM   10  O   UNL     1     -10.037   3.709  72.687  1.00  0.00    -0.151 OA 
HETATM   11  C   UNL     1     -11.160   6.240  70.061  1.00  0.00    -0.388 C  
HETATM   12  CA  UNL     1      -9.936   6.303  69.104  1.00  0.00    -0.150 C  
HETATM   13  O   UNL     1     -12.283   6.685  70.129  1.00  0.00    -0.253 OA 
ENDROOT
BRANCH  12  14
HETATM   14  N   UNL     1      -9.529   7.640  68.604  1.00  0.00    -0.151 N  
HETATM   15  C   UNL     1     -10.210   8.255  67.577  1.00  0.00    -0.243 C  
HETATM   16  H   UNL     1      -8.731   8.113  69.029  1.00  0.00     0.000 HD 
HETATM   17  O   UNL     1     -11.146   7.707  67.000  1.00  0.00    -0.171 OA 
HETATM   18  C   UNL     1      -9.704   9.626  67.171  1.00  0.00    -0.222 C  
HETATM   19  C   UNL     1      -9.982  10.609  68.293  1.00  0.00    -0.158 C  
HETATM   20  C   UNL     1      -8.265   9.630  66.622  1.00  0.00    -0.120 A  
HETATM   21  C   UNL     1      -7.781   8.531  65.888  1.00  0.00    -0.097 A  
HETATM   22  O   UNL     1      -9.249  10.815  69.254  1.00  0.00    -0.153 OA 
HETATM   23  C   UNL     1      -6.205  10.819  66.042  1.00  0.00    -0.134 A  
HETATM   24  C   UNL     1      -6.526   8.568  65.268  1.00  0.00    -0.059 A  
HETATM   25  C   UNL     1      -7.440  10.766  66.696  1.00  0.00    -0.135 A  
HETATM   26  C   UNL     1      -5.747   9.718  65.331  1.00  0.00    -0.064 A  
BRANCH  19  27
HETATM   27  O   UNL     1     -11.219  11.214  68.088  1.00  0.00    -0.244 OA 
BRANCH  27  28
HETATM   28  C   UNL     1     -11.728  11.845  69.230  1.00  0.00    -0.328 A  
HETATM   29  C   UNL     1     -12.408  13.825  70.381  1.00  0.00    -0.423 A  
HETATM   30  C   UNL     1     -11.832  13.235  69.276  1.00  0.00    -0.383 A  
HETATM   31  C   UNL     1     -12.944  13.054  71.404  1.00  0.00    -0.373 A  
HETATM   32  C   UNL     1     -12.887  11.666  71.350  1.00  0.00    -0.461 A  
HETATM   33  C   UNL     1     -13.578  13.912  72.448  1.00  0.00    -0.676 C  
HETATM   34  C   UNL     1     -13.294  15.346  71.962  1.00  0.00    -0.545 C  
HETATM   35  C   UNL     1     -12.266  11.055  70.251  1.00  0.00    -0.447 A  
HETATM   36  C   UNL     1     -12.560  15.287  70.617  1.00  0.00    -0.471 C  
ENDBRANCH  27  28
ENDBRANCH  19  27
ENDBRANCH  12  14
TORSDOF 3
ENDMDL
MODEL       13
REMARK 921   NORMALIZED FREE ENERGY PREDICTED BY IDOCK:   -7.76 KCAL/MOL
REMARK 922        TOTAL FREE ENERGY PREDICTED BY IDOCK:  -10.00 KCAL/MOL
REMARK 923 INTER-LIGAND FREE ENERGY PREDICTED BY IDOCK:   -8.98 KCAL/MOL
REMARK 924 INTRA-LIGAND FREE ENERGY PREDICTED BY IDOCK:   -1.02 KCAL/MOL
REMARK 927      BINDING AFFINITY PREDICTED BY RF-SCORE:    0.00 PKD
ROOT
HETATM    1  C   UNL     1      -9.641  17.168  66.081  1.00  0.00    -0.218 C  
HETATM    2  S   UNL     1     -10.500  17.669  67.627  1.00  0.00    -0.361 SA 
HETATM    3  C   UNL     1      -8.943  18.160  68.507  1.00  0.00    -0.296 C  
HETATM    4  C   UNL     1      -9.227  19.344  69.436  1.00  0.00     0.005 C  
HETATM    5  CA  UNL     1      -7.911  18.427  67.382  1.00  0.00    -0.234 C  
HETATM    6  C   UNL     1      -8.528  16.974  69.402  1.00  0.00     0.297 C  
HETATM    7  N   UNL     1      -8.217  17.493  66.282  1.00  0.00    -0.258 N  
HETATM    8  C   UNL     1      -7.918  19.851  66.790  1.00  0.00    -0.310 C  
HETATM    9  OXT UNL     1      -7.833  20.884  67.437  1.00  0.00    -0.319 OA 
HETATM   10  O   UNL     1      -7.942  19.873  65.430  1.00  0.00    -0.312 OA 
HETATM   11  C   UNL     1      -7.832  16.177  66.373  1.00  0.00    -0.162 C  
HETATM   12  CA  UNL     1      -9.245  15.677  65.957  1.00  0.00    -0.339 C  
HETATM   13  O   UNL     1      -6.796  15.719  66.799  1.00  0.00    -0.229 OA 
ENDROOT
BRANCH  12  14
HETATM   14  N   UNL     1      -9.938  14.745  66.881  1.00  0.00    -0.240 N  
HETATM   15  C   UNL     1     -11.189  14.249  66.589  1.00  0.00    -0.334 C  
HETATM   16  H   UNL     1      -9.479  14.467  67.749  1.00  0.00     0.000 HD 
HETATM   17  O   UNL     1     -11.803  14.592  65.582  1.00  0.00    -0.356 OA 
HETATM   18  C   UNL     1     -11.780  13.294  67.608  1.00  0.00    -0.408 C  
HETATM   19  C   UNL     1     -10.980  12.004  67.601  1.00  0.00    -0.238 C  
HETATM   20  C   UNL     1     -12.022  13.921  68.994  1.00  0.00    -0.402 A  
HETATM   21  C   UNL     1     -12.385  15.276  69.108  1.00  0.00    -0.092 A  
HETATM   22  O   UNL     1      -9.964  11.797  68.253  1.00  0.00    -0.189 OA 
HETATM   23  C   UNL     1     -12.433  13.694  71.396  1.00  0.00    -0.374 A  
HETATM   24  C   UNL     1     -12.739  15.831  70.343  1.00  0.00    -0.202 A  
HETATM   25  C   UNL     1     -12.040  13.151  70.170  1.00  0.00    -0.392 A  
HETATM   26  C   UNL     1     -12.779  15.037  71.483  1.00  0.00    -0.414 A  
BRANCH  19  27
HETATM   27  O   UNL     1     -11.553  11.105  66.706  1.00  0.00    -0.381 OA 
BRANCH  27  28
HETATM   28  C   UNL     1     -10.711  10.766  65.639  1.00  0.00    -0.072 A  
HETATM   29  C   UNL     1      -9.050   9.349  64.672  1.00  0.00    -0.228 A  
HETATM   30  C   UNL     1      -9.811   9.709  65.764  1.00  0.00    -0.373 A  
HETATM   31  C   UNL     1      -9.222   9.973  63.445  1.00  0.00    -0.317 A  
HETATM   32  C   UNL     1     -10.148  10.999  63.294  1.00  0.00    -0.400 A  
HETATM   33  C   UNL     1      -8.345   9.361  62.403  1.00  0.00    -0.169 C  
HETATM   34  C   UNL     1      -7.540   8.303  63.180  1.00  0.00    -0.127 C  
HETATM   35  C   UNL     1     -10.898  11.403  64.407  1.00  0.00    -0.397 A  
HETATM   36  C   UNL     1      -8.012   8.281  64.638  1.00  0.00    -0.145 C  
ENDBRANCH  27  28
ENDBRANCH  19  27
ENDBRANCH  12  14
TORSDOF 3
ENDMDL
MODEL       14
REMARK 921   NORMALIZED FREE ENERGY PREDICTED BY IDOCK:   -7.73 KCAL/MOL
REMARK 922        TOTAL FREE ENERGY PREDICTED BY IDOCK:   -9.96 KCAL/MOL
REMARK 923 INTER-LIGAND FREE ENERGY PREDICTED BY IDOCK:   -8.63 KCAL/MOL
REMARK 924 INTRA-LIGAND FREE ENERGY PREDICTED BY IDOCK:   -1.33 KCAL/MOL
REMARK 927      BINDING AFFINITY PREDICTED BY RF-SCORE:    0.00 PKD
ROOT
HETATM    1  C   UNL     1      -9.445   5.990  70.001  1.00  0.00    -0.156 C  
HETATM    2  S   UNL     1      -8.326   7.000  71.053  1.00  0.00    -0.126 SA 
HETATM    3  C   UNL     1      -9.430   6.934  72.543  1.00  0.00    -0.138 C  
HETATM    4  C   UNL     1      -8.578   6.915  73.816  1.00  0.00    -0.165 C  
HETATM    5  CA  UNL     1     -10.330   5.691  72.325  1.00  0.00    -0.206 C  
HETATM    6  C   UNL     1     -10.247   8.242  72.567  1.00  0.00    -0.386 C  
HETATM    7  N   UNL     1     -10.559   5.572  70.871  1.00  0.00    -0.251 N  
HETATM    8  C   UNL     1      -9.747   4.348  72.808  1.00  0.00    -0.141 C  
HETATM    9  OXT UNL     1      -9.315   4.131  73.930  1.00  0.00    -0.099 OA 
HETATM   10  O   UNL     1      -9.830   3.355  71.882  1.00  0.00    -0.159 OA 
HETATM   11  C   UNL     1     -11.474   6.389  70.252  1.00  0.00    -0.402 C  
HETATM   12  CA  UNL     1     -10.464   6.760  69.129  1.00  0.00    -0.216 C  
HETATM   13  O   UNL     1     -12.565   6.735  70.642  1.00  0.00    -0.268 OA 
ENDROOT
BRANCH  12  14
HETATM   14  N   UNL     1     -10.177   8.202  68.920  1.00  0.00    -0.207 N  
HETATM   15  C   UNL     1     -10.371   8.797  67.694  1.00  0.00    -0.254 C  
HETATM   16  H   UNL     1      -9.829   8.761  69.699  1.00  0.00     0.000 HD 
HETATM   17  O   UNL     1     -10.740   8.156  66.713  1.00  0.00    -0.278 OA 
HETATM   18  C   UNL     1     -10.055  10.279  67.617  1.00  0.00    -0.229 C  
HETATM   19  C   UNL     1     -11.071  11.045  68.442  1.00  0.00    -0.251 C  
HETATM   20  C   UNL     1      -8.578  10.623  67.888  1.00  0.00    -0.124 A  
HETATM   21  C   UNL     1      -7.558   9.735  67.499  1.00  0.00    -0.091 A  
HETATM   22  O   UNL     1     -10.986  11.267  69.645  1.00  0.00    -0.227 OA 
HETATM   23  C   UNL     1      -6.836  12.244  68.460  1.00  0.00    -0.081 A  
HETATM   24  C   UNL     1      -6.208  10.086  67.615  1.00  0.00    -0.058 A  
HETATM   25  C   UNL     1      -8.182  11.878  68.384  1.00  0.00    -0.160 A  
HETATM   26  C   UNL     1      -5.848  11.346  68.079  1.00  0.00    -0.042 A  
BRANCH  19  27
HETATM   27  O   UNL     1     -12.139  11.425  67.634  1.00  0.00    -0.630 OA 
BRANCH  27  28
HETATM   28  C   UNL     1     -11.905  12.605  66.917  1.00  0.00    -0.355 A  
HETATM   29  C   UNL     1     -11.060  14.837  66.808  1.00  0.00    -0.338 A  
HETATM   30  C   UNL     1     -11.351  13.714  67.555  1.00  0.00    -0.335 A  
HETATM   31  C   UNL     1     -11.246  14.847  65.433  1.00  0.00    -0.359 A  
HETATM   32  C   UNL     1     -11.756  13.732  64.778  1.00  0.00    -0.399 A  
HETATM   33  C   UNL     1     -10.789  16.138  64.839  1.00  0.00    -0.353 C  
HETATM   34  C   UNL     1     -10.356  16.969  66.061  1.00  0.00    -0.324 C  
HETATM   35  C   UNL     1     -12.095  12.599  65.531  1.00  0.00    -0.515 A  
HETATM   36  C   UNL     1     -10.510  16.119  67.328  1.00  0.00    -0.309 C  
ENDBRANCH  27  28
ENDBRANCH  19  27
ENDBRANCH  12  14
TORSDOF 3
ENDMDL
MODEL       15
REMARK 921   NORMALIZED FREE ENERGY PREDICTED BY IDOCK:   -7.64 KCAL/MOL
REMARK 922        TOTAL FREE ENERGY PREDICTED BY IDOCK:   -9.86 KCAL/MOL
REMARK 923 INTER-LIGAND FREE ENERGY PREDICTED BY IDOCK:   -8.69 KCAL/MOL
REMARK 924 INTRA-LIGAND FREE ENERGY PREDICTED BY IDOCK:   -1.17 KCAL/MOL
REMARK 927      BINDING AFFINITY PREDICTED BY RF-SCORE:    0.00 PKD
ROOT
HETATM    1  C   UNL     1      -9.250  14.150  66.407  1.00  0.00    -0.183 C  
HETATM    2  S   UNL     1      -9.709  13.023  65.029  1.00  0.00     0.192 SA 
HETATM    3  C   UNL     1     -11.494  13.530  65.015  1.00  0.00    -0.318 C  
HETATM    4  C   UNL     1     -12.032  13.484  63.582  1.00  0.00    -0.439 C  
HETATM    5  CA  UNL     1     -11.524  14.923  65.694  1.00  0.00    -0.290 C  
HETATM    6  C   UNL     1     -12.277  12.476  65.824  1.00  0.00    -0.361 C  
HETATM    7  N   UNL     1     -10.463  14.927  66.721  1.00  0.00    -0.279 N  
HETATM    8  C   UNL     1     -11.268  16.127  64.766  1.00  0.00    -0.304 C  
HETATM    9  OXT UNL     1     -11.871  16.358  63.729  1.00  0.00    -1.002 OA 
HETATM   10  O   UNL     1     -10.339  16.996  65.248  1.00  0.00    -0.626 OA 
HETATM   11  C   UNL     1     -10.670  14.295  67.924  1.00  0.00    -0.240 C  
HETATM   12  CA  UNL     1      -9.303  13.560  67.836  1.00  0.00    -0.215 C  
HETATM   13  O   UNL     1     -11.669  14.276  68.606  1.00  0.00    -0.306 OA 
ENDROOT
BRANCH  12  14
HETATM   14  N   UNL     1      -9.319  12.078  67.923  1.00  0.00    -0.183 N  
HETATM   15  C   UNL     1      -8.319  11.391  68.574  1.00  0.00    -0.153 C  
HETATM   16  H   UNL     1     -10.085  11.559  67.492  1.00  0.00     0.000 HD 
HETATM   17  O   UNL     1      -7.350  11.966  69.064  1.00  0.00    -0.104 OA 
HETATM   18  C   UNL     1      -8.461   9.881  68.605  1.00  0.00    -0.114 C  
HETATM   19  C   UNL     1      -9.643   9.513  69.482  1.00  0.00    -0.188 C  
HETATM   20  C   UNL     1      -8.428   9.216  67.216  1.00  0.00    -0.121 A  
HETATM   21  C   UNL     1      -7.636   9.758  66.186  1.00  0.00    -0.101 A  
HETATM   22  O   UNL     1     -10.808   9.441  69.108  1.00  0.00    -0.220 OA 
HETATM   23  C   UNL     1      -8.869   7.301  65.756  1.00  0.00    -0.095 A  
HETATM   24  C   UNL     1      -7.488   9.098  64.962  1.00  0.00    -0.105 A  
HETATM   25  C   UNL     1      -9.051   7.981  66.964  1.00  0.00    -0.170 A  
HETATM   26  C   UNL     1      -8.089   7.862  64.753  1.00  0.00    -0.141 A  
BRANCH  19  27
HETATM   27  O   UNL     1      -9.209   9.310  70.789  1.00  0.00    -0.240 OA 
BRANCH  27  28
HETATM   28  C   UNL     1      -9.759   8.169  71.389  1.00  0.00    -0.171 A  
HETATM   29  C   UNL     1      -9.804   5.801  71.697  1.00  0.00    -0.205 A  
HETATM   30  C   UNL     1      -9.301   6.901  71.035  1.00  0.00    -0.156 A  
HETATM   31  C   UNL     1     -10.700   5.949  72.747  1.00  0.00    -0.274 A  
HETATM   32  C   UNL     1     -11.132   7.210  73.140  1.00  0.00    -0.302 A  
HETATM   33  C   UNL     1     -11.040   4.627  73.352  1.00  0.00    -0.418 C  
HETATM   34  C   UNL     1     -10.278   3.617  72.474  1.00  0.00    -0.229 C  
HETATM   35  C   UNL     1     -10.659   8.334  72.448  1.00  0.00    -0.408 A  
HETATM   36  C   UNL     1      -9.464   4.378  71.421  1.00  0.00    -0.220 C  
ENDBRANCH  27  28
ENDBRANCH  19  27
ENDBRANCH  12  14
TORSDOF 3
ENDMDL
MODEL       16
REMARK 921   NORMALIZED FREE ENERGY PREDICTED BY IDOCK:   -7.49 KCAL/MOL
REMARK 922        TOTAL FREE ENERGY PREDICTED BY IDOCK:   -9.68 KCAL/MOL
REMARK 923 INTER-LIGAND FREE ENERGY PREDICTED BY IDOCK:   -8.81 KCAL/MOL
REMARK 924 INTRA-LIGAND FREE ENERGY PREDICTED BY IDOCK:   -0.87 KCAL/MOL
REMARK 927      BINDING AFFINITY PREDICTED BY RF-SCORE:    0.00 PKD
ROOT
HETATM    1  C   UNL     1     -11.373   8.156  70.914  1.00  0.00    -0.268 C  
HETATM    2  S   UNL     1     -11.029   7.461  69.247  1.00  0.00     0.005 SA 
HETATM    3  C   UNL     1      -9.457   6.621  69.762  1.00  0.00    -0.147 C  
HETATM    4  C   UNL     1      -9.288   5.316  68.977  1.00  0.00    -0.171 C  
HETATM    5  CA  UNL     1      -9.567   6.464  71.300  1.00  0.00    -0.170 C  
HETATM    6  C   UNL     1      -8.290   7.545  69.358  1.00  0.00    -0.132 C  
HETATM    7  N   UNL     1     -10.320   7.631  71.802  1.00  0.00    -0.195 N  
HETATM    8  C   UNL     1     -10.299   5.200  71.794  1.00  0.00    -0.209 C  
HETATM    9  OXT UNL     1     -10.032   4.055  71.460  1.00  0.00    -0.183 OA 
HETATM   10  O   UNL     1     -11.248   5.455  72.734  1.00  0.00    -0.272 OA 
HETATM   11  C   UNL     1      -9.693   8.846  71.934  1.00  0.00    -0.279 C  
HETATM   12  CA  UNL     1     -10.846   9.583  71.195  1.00  0.00    -0.355 C  
HETATM   13  O   UNL     1      -8.578   9.082  72.342  1.00  0.00    -0.354 OA 
ENDROOT
BRANCH  12  14
HETATM   14  N   UNL     1     -10.486  10.386  70.000  1.00  0.00    -0.419 N  
HETATM   15  C   UNL     1     -11.455  10.893  69.163  1.00  0.00    -0.303 C  
HETATM   16  H   UNL     1      -9.503  10.566  69.794  1.00  0.00     0.000 HD 
HETATM   17  O   UNL     1     -12.649  10.663  69.339  1.00  0.00    -0.279 OA 
HETATM   18  C   UNL     1     -10.956  11.710  67.986  1.00  0.00    -0.275 C  
HETATM   19  C   UNL     1     -10.353  13.004  68.500  1.00  0.00    -0.239 C  
HETATM   20  C   UNL     1     -10.085  10.917  66.992  1.00  0.00    -0.244 A  
HETATM   21  C   UNL     1     -10.337   9.552  66.758  1.00  0.00    -0.298 A  
HETATM   22  O   UNL     1      -9.193  13.148  68.869  1.00  0.00     0.080 OA 
HETATM   23  C   UNL     1      -8.462  10.847  65.161  1.00  0.00    -0.038 A  
HETATM   24  C   UNL     1      -9.647   8.847  65.765  1.00  0.00    -0.245 A  
HETATM   25  C   UNL     1      -9.121  11.540  66.180  1.00  0.00    -0.217 A  
HETATM   26  C   UNL     1      -8.723   9.499  64.956  1.00  0.00    -0.205 A  
BRANCH  19  27
HETATM   27  O   UNL     1     -11.331  13.995  68.530  1.00  0.00    -0.247 OA 
BRANCH  27  28
HETATM   28  C   UNL     1     -10.923  15.198  67.941  1.00  0.00    -0.302 A  
HETATM   29  C   UNL     1     -10.252  17.482  68.133  1.00  0.00    -0.359 A  
HETATM   30  C   UNL     1     -10.728  16.333  68.727  1.00  0.00    -0.309 A  
HETATM   31  C   UNL     1      -9.903  17.499  66.789  1.00  0.00    -0.306 A  
HETATM   32  C   UNL     1     -10.051  16.362  66.003  1.00  0.00    -0.373 A  
HETATM   33  C   UNL     1      -9.344  18.827  66.396  1.00  0.00    -0.321 C  
HETATM   34  C   UNL     1      -9.463  19.667  67.681  1.00  0.00    -0.438 C  
HETATM   35  C   UNL     1     -10.573  15.199  66.586  1.00  0.00    -0.304 A  
HETATM   36  C   UNL     1     -10.028  18.792  68.806  1.00  0.00    -0.442 C  
ENDBRANCH  27  28
ENDBRANCH  19  27
ENDBRANCH  12  14
TORSDOF 3
ENDMDL
MODEL       17
REMARK 921   NORMALIZED FREE ENERGY PREDICTED BY IDOCK:   -7.48 KCAL/MOL
REMARK 922        TOTAL FREE ENERGY PREDICTED BY IDOCK:   -9.67 KCAL/MOL
REMARK 923 INTER-LIGAND FREE ENERGY PREDICTED BY IDOCK:   -8.52 KCAL/MOL
REMARK 924 INTRA-LIGAND FREE ENERGY PREDICTED BY IDOCK:   -1.15 KCAL/MOL
REMARK 927      BINDING AFFINITY PREDICTED BY RF-SCORE:    0.00 PKD
ROOT
HETATM    1  C   UNL     1      -8.932  11.887  65.485  1.00  0.00     0.169 C  
HETATM    2  S   UNL     1      -7.558  11.937  66.706  1.00  0.00     0.036 SA 
HETATM    3  C   UNL     1      -8.207  10.521  67.712  1.00  0.00    -0.107 C  
HETATM    4  C   UNL     1      -7.036   9.720  68.291  1.00  0.00    -0.073 C  
HETATM    5  CA  UNL     1      -9.141   9.739  66.755  1.00  0.00    -0.146 C  
HETATM    6  C   UNL     1      -8.975  11.122  68.908  1.00  0.00    -0.089 C  
HETATM    7  N   UNL     1      -9.765  10.728  65.854  1.00  0.00    -0.213 N  
HETATM    8  C   UNL     1      -8.458   8.678  65.869  1.00  0.00    -0.146 C  
HETATM    9  OXT UNL     1      -7.733   7.782  66.275  1.00  0.00    -0.085 OA 
HETATM   10  O   UNL     1      -8.801   8.765  64.556  1.00  0.00    -0.111 OA 
HETATM   11  C   UNL     1     -10.809  11.501  66.301  1.00  0.00    -0.282 C  
HETATM   12  CA  UNL     1     -10.147  12.803  65.766  1.00  0.00    -0.286 C  
HETATM   13  O   UNL     1     -11.747  11.178  66.994  1.00  0.00    -0.460 OA 
ENDROOT
BRANCH  12  14
HETATM   14  N   UNL     1      -9.917  13.900  66.739  1.00  0.00    -0.263 N  
HETATM   15  C   UNL     1     -10.847  14.900  66.918  1.00  0.00    -0.319 C  
HETATM   16  H   UNL     1      -9.055  13.914  67.285  1.00  0.00     0.000 HD 
HETATM   17  O   UNL     1     -11.876  14.956  66.250  1.00  0.00    -0.264 OA 
HETATM   18  C   UNL     1     -10.499  15.953  67.953  1.00  0.00    -0.288 C  
HETATM   19  C   UNL     1     -10.529  15.321  69.332  1.00  0.00    -0.251 C  
HETATM   20  C   UNL     1      -9.237  16.772  67.621  1.00  0.00    -0.223 A  
HETATM   21  C   UNL     1      -8.911  17.064  66.283  1.00  0.00    -0.289 A  
HETATM   22  O   UNL     1      -9.591  14.737  69.865  1.00  0.00     0.131 OA 
HETATM   23  C   UNL     1      -7.420  18.263  68.304  1.00  0.00    -0.288 A  
HETATM   24  C   UNL     1      -7.846  17.915  65.966  1.00  0.00    -0.189 A  
HETATM   25  C   UNL     1      -8.457  17.380  68.620  1.00  0.00    -0.257 A  
HETATM   26  C   UNL     1      -7.113  18.528  66.976  1.00  0.00    -0.211 A  
BRANCH  19  27
HETATM   27  O   UNL     1     -11.797  15.467  69.886  1.00  0.00    -0.304 OA 
BRANCH  27  28
HETATM   28  C   UNL     1     -12.291  14.293  70.468  1.00  0.00    -0.360 A  
HETATM   29  C   UNL     1     -12.353  11.909  70.605  1.00  0.00    -0.405 A  
HETATM   30  C   UNL     1     -11.914  13.048  69.965  1.00  0.00    -0.383 A  
HETATM   31  C   UNL     1     -13.099  11.989  71.773  1.00  0.00    -0.460 A  
HETATM   32  C   UNL     1     -13.444  13.223  72.312  1.00  0.00    -0.679 A  
HETATM   33  C   UNL     1     -13.389  10.630  72.320  1.00  0.00    -0.182 C  
HETATM   34  C   UNL     1     -12.775   9.679  71.276  1.00  0.00    -0.443 C  
HETATM   35  C   UNL     1     -13.039  14.390  71.647  1.00  0.00    -0.421 A  
HETATM   36  C   UNL     1     -12.088  10.506  70.183  1.00  0.00    -0.380 C  
ENDBRANCH  27  28
ENDBRANCH  19  27
ENDBRANCH  12  14
TORSDOF 3
ENDMDL
MODEL       18
REMARK 921   NORMALIZED FREE ENERGY PREDICTED BY IDOCK:   -7.37 KCAL/MOL
REMARK 922        TOTAL FREE ENERGY PREDICTED BY IDOCK:   -9.54 KCAL/MOL
REMARK 923 INTER-LIGAND FREE ENERGY PREDICTED BY IDOCK:   -8.42 KCAL/MOL
REMARK 924 INTRA-LIGAND FREE ENERGY PREDICTED BY IDOCK:   -1.12 KCAL/MOL
REMARK 927      BINDING AFFINITY PREDICTED BY RF-SCORE:    0.00 PKD
ROOT
HETATM    1  C   UNL     1      -8.905   5.797  70.215  1.00  0.00    -0.141 C  
HETATM    2  S   UNL     1      -7.944   7.203  70.908  1.00  0.00    -0.097 SA 
HETATM    3  C   UNL     1      -9.192   7.597  72.223  1.00  0.00    -0.144 C  
HETATM    4  C   UNL     1      -8.476   8.106  73.478  1.00  0.00    -0.310 C  
HETATM    5  CA  UNL     1     -10.012   6.294  72.406  1.00  0.00    -0.172 C  
HETATM    6  C   UNL     1     -10.061   8.758  71.698  1.00  0.00    -0.390 C  
HETATM    7  N   UNL     1     -10.085   5.639  71.085  1.00  0.00    -0.196 N  
HETATM    8  C   UNL     1      -9.427   5.267  73.395  1.00  0.00    -0.137 C  
HETATM    9  OXT UNL     1      -9.104   5.505  74.550  1.00  0.00    -0.119 OA 
HETATM   10  O   UNL     1      -9.372   4.003  72.896  1.00  0.00    -0.112 OA 
HETATM   11  C   UNL     1     -10.964   6.104  70.137  1.00  0.00    -0.358 C  
HETATM   12  CA  UNL     1      -9.860   6.119  69.041  1.00  0.00    -0.141 C  
HETATM   13  O   UNL     1     -12.104   6.483  70.282  1.00  0.00    -0.348 OA 
ENDROOT
BRANCH  12  14
HETATM   14  N   UNL     1      -9.613   7.404  68.340  1.00  0.00    -0.147 N  
HETATM   15  C   UNL     1     -10.447   7.839  67.335  1.00  0.00    -0.292 C  
HETATM   16  H   UNL     1      -8.810   7.974  68.608  1.00  0.00     0.000 HD 
HETATM   17  O   UNL     1     -11.397   7.166  66.943  1.00  0.00    -0.105 OA 
HETATM   18  C   UNL     1     -10.094   9.176  66.711  1.00  0.00    -0.341 C  
HETATM   19  C   UNL     1     -10.320  10.275  67.732  1.00  0.00    -0.204 C  
HETATM   20  C   UNL     1      -8.728   9.198  65.998  1.00  0.00    -0.176 A  
HETATM   21  C   UNL     1      -8.246   8.046  65.349  1.00  0.00    -0.152 A  
HETATM   22  O   UNL     1      -9.503  10.646  68.567  1.00  0.00    -0.161 OA 
HETATM   23  C   UNL     1      -6.840  10.427  65.040  1.00  0.00    -0.065 A  
HETATM   24  C   UNL     1      -7.074   8.080  64.585  1.00  0.00    -0.076 A  
HETATM   25  C   UNL     1      -7.988  10.382  65.837  1.00  0.00    -0.151 A  
HETATM   26  C   UNL     1      -6.381   9.274  64.417  1.00  0.00    -0.077 A  
BRANCH  19  27
HETATM   27  O   UNL     1     -11.614  10.772  67.604  1.00  0.00    -0.523 OA 
BRANCH  27  28
HETATM   28  C   UNL     1     -11.907  11.804  68.505  1.00  0.00    -0.303 A  
HETATM   29  C   UNL     1     -12.479  12.542  70.703  1.00  0.00    -0.323 A  
HETATM   30  C   UNL     1     -12.272  11.506  69.817  1.00  0.00    -0.310 A  
HETATM   31  C   UNL     1     -12.262  13.860  70.324  1.00  0.00    -0.428 A  
HETATM   32  C   UNL     1     -11.855  14.168  69.032  1.00  0.00    -0.384 A  
HETATM   33  C   UNL     1     -12.477  14.791  71.472  1.00  0.00    -0.403 C  
HETATM   34  C   UNL     1     -12.935  13.863  72.613  1.00  0.00    -0.440 C  
HETATM   35  C   UNL     1     -11.681  13.126  68.109  1.00  0.00    -0.391 A  
HETATM   36  C   UNL     1     -12.914  12.411  72.122  1.00  0.00    -0.308 C  
ENDBRANCH  27  28
ENDBRANCH  19  27
ENDBRANCH  12  14
TORSDOF 3
ENDMDL
MODEL       19
REMARK 921   NORMALIZED FREE ENERGY PREDICTED BY IDOCK:   -7.22 KCAL/MOL
REMARK 922        TOTAL FREE ENERGY PREDICTED BY IDOCK:   -9.36 KCAL/MOL
REMARK 923 INTER-LIGAND FREE ENERGY PREDICTED BY IDOCK:   -8.26 KCAL/MOL
REMARK 924 INTRA-LIGAND FREE ENERGY PREDICTED BY IDOCK:   -1.10 KCAL/MOL
REMARK 927      BINDING AFFINITY PREDICTED BY RF-SCORE:    0.00 PKD
ROOT
HETATM    1  C   UNL     1     -10.602  10.441  67.120  1.00  0.00    -0.261 C  
HETATM    2  S   UNL     1      -8.767  10.520  67.033  1.00  0.00    -0.130 SA 
HETATM    3  C   UNL     1      -8.504   9.331  68.432  1.00  0.00    -0.120 C  
HETATM    4  C   UNL     1      -7.241   8.503  68.175  1.00  0.00    -0.087 C  
HETATM    5  CA  UNL     1      -9.823   8.523  68.530  1.00  0.00    -0.173 C  
HETATM    6  C   UNL     1      -8.243  10.167  69.702  1.00  0.00    -0.176 C  
HETATM    7  N   UNL     1     -10.919   9.435  68.151  1.00  0.00    -0.114 N  
HETATM    8  C   UNL     1      -9.919   7.285  67.615  1.00  0.00    -0.162 C  
HETATM    9  OXT UNL     1      -9.095   6.384  67.559  1.00  0.00    -0.116 OA 
HETATM   10  O   UNL     1     -11.079   7.223  66.907  1.00  0.00    -0.287 OA 
HETATM   11  C   UNL     1     -11.379  10.365  69.052  1.00  0.00    -0.219 C  
HETATM   12  CA  UNL     1     -11.303  11.506  67.997  1.00  0.00    -0.298 C  
HETATM   13  O   UNL     1     -11.568  10.239  70.240  1.00  0.00    -0.272 OA 
ENDROOT
BRANCH  12  14
HETATM   14  N   UNL     1     -10.489  12.698  68.340  1.00  0.00    -0.234 N  
HETATM   15  C   UNL     1     -10.295  13.715  67.431  1.00  0.00    -0.244 C  
HETATM   16  H   UNL     1     -10.066  12.767  69.266  1.00  0.00     0.000 HD 
HETATM   17  O   UNL     1     -10.742  13.657  66.288  1.00  0.00    -0.282 OA 
HETATM   18  C   UNL     1      -9.457  14.884  67.911  1.00  0.00    -0.200 C  
HETATM   19  C   UNL     1     -10.224  15.636  68.983  1.00  0.00    -0.225 C  
HETATM   20  C   UNL     1      -8.004  14.516  68.265  1.00  0.00    -0.137 A  
HETATM   21  C   UNL     1      -7.333  13.503  67.553  1.00  0.00    -0.174 A  
HETATM   22  O   UNL     1     -10.220  15.367  70.179  1.00  0.00    -0.292 OA 
HETATM   23  C   UNL     1      -5.882  15.027  69.373  1.00  0.00    -0.103 A  
HETATM   24  C   UNL     1      -5.975  13.244  67.767  1.00  0.00    -0.145 A  
HETATM   25  C   UNL     1      -7.248  15.258  69.189  1.00  0.00    -0.169 A  
HETATM   26  C   UNL     1      -5.246  14.017  68.664  1.00  0.00    -0.090 A  
BRANCH  19  27
HETATM   27  O   UNL     1     -10.969  16.656  68.396  1.00  0.00    -0.346 OA 
BRANCH  27  28
HETATM   28  C   UNL     1     -10.194  17.747  67.983  1.00  0.00    -0.377 A  
HETATM   29  C   UNL     1      -8.263  19.132  68.221  1.00  0.00    -0.369 A  
HETATM   30  C   UNL     1      -9.049  18.103  68.694  1.00  0.00    -0.290 A  
HETATM   31  C   UNL     1      -8.558  19.761  67.019  1.00  0.00    -0.378 A  
HETATM   32  C   UNL     1      -9.671  19.386  66.277  1.00  0.00    -0.455 A  
HETATM   33  C   UNL     1      -7.524  20.784  66.680  1.00  0.00    -0.167 C  
HETATM   34  C   UNL     1      -6.572  20.755  67.890  1.00  0.00    -0.366 C  
HETATM   35  C   UNL     1     -10.502  18.369  66.768  1.00  0.00    -0.415 A  
HETATM   36  C   UNL     1      -7.037  19.673  68.872  1.00  0.00    -0.388 C  
ENDBRANCH  27  28
ENDBRANCH  19  27
ENDBRANCH  12  14
TORSDOF 3
ENDMDL
MODEL       20
REMARK 921   NORMALIZED FREE ENERGY PREDICTED BY IDOCK:   -7.16 KCAL/MOL
REMARK 922        TOTAL FREE ENERGY PREDICTED BY IDOCK:   -9.29 KCAL/MOL
REMARK 923 INTER-LIGAND FREE ENERGY PREDICTED BY IDOCK:   -8.27 KCAL/MOL
REMARK 924 INTRA-LIGAND FREE ENERGY PREDICTED BY IDOCK:   -1.02 KCAL/MOL
REMARK 927      BINDING AFFINITY PREDICTED BY RF-SCORE:    0.00 PKD
ROOT
HETATM    1  C   UNL     1      -7.877   5.598  67.912  1.00  0.00    -0.097 C  
HETATM    2  S   UNL     1      -7.906   5.940  69.718  1.00  0.00    -0.102 SA 
HETATM    3  C   UNL     1      -9.569   5.163  69.986  1.00  0.00    -0.181 C  
HETATM    4  C   UNL     1      -9.614   4.505  71.369  1.00  0.00    -0.232 C  
HETATM    5  CA  UNL     1      -9.766   4.204  68.785  1.00  0.00    -0.096 C  
HETATM    6  C   UNL     1     -10.611   6.300  69.994  1.00  0.00    -0.307 C  
HETATM    7  N   UNL     1      -9.097   4.821  67.624  1.00  0.00    -0.111 N  
HETATM    8  C   UNL     1      -9.178   2.788  68.954  1.00  0.00    -0.161 C  
HETATM    9  OXT UNL     1      -9.403   2.039  69.893  1.00  0.00    -0.110 OA 
HETATM   10  O   UNL     1      -8.424   2.384  67.896  1.00  0.00    -0.070 OA 
HETATM   11  C   UNL     1      -9.706   5.851  66.948  1.00  0.00    -0.147 C  
HETATM   12  CA  UNL     1      -8.412   6.714  66.984  1.00  0.00    -0.113 C  
HETATM   13  O   UNL     1     -10.873   5.976  66.651  1.00  0.00    -0.299 OA 
ENDROOT
BRANCH  12  14
HETATM   14  N   UNL     1      -8.511   8.065  67.589  1.00  0.00    -0.130 N  
HETATM   15  C   UNL     1      -9.302   9.042  67.027  1.00  0.00    -0.150 C  
HETATM   16  H   UNL     1      -7.983   8.275  68.437  1.00  0.00     0.000 HD 
HETATM   17  O   UNL     1      -9.918   8.855  65.980  1.00  0.00    -0.270 OA 
HETATM   18  C   UNL     1      -9.329  10.375  67.751  1.00  0.00    -0.155 C  
HETATM   19  C   UNL     1     -10.036  10.201  69.082  1.00  0.00    -0.210 C  
HETATM   20  C   UNL     1      -7.964  11.088  67.807  1.00  0.00    -0.115 A  
HETATM   21  C   UNL     1      -7.050  10.960  66.745  1.00  0.00    -0.129 A  
HETATM   22  O   UNL     1      -9.503   9.842  70.126  1.00  0.00    -0.240 OA 
HETATM   23  C   UNL     1      -6.477  12.774  68.776  1.00  0.00    -0.085 A  
HETATM   24  C   UNL     1      -5.865  11.704  66.714  1.00  0.00    -0.140 A  
HETATM   25  C   UNL     1      -7.640  12.001  68.827  1.00  0.00    -0.070 A  
HETATM   26  C   UNL     1      -5.587  12.622  67.721  1.00  0.00    -0.122 A  
BRANCH  19  27
HETATM   27  O   UNL     1     -11.392  10.473  68.929  1.00  0.00    -0.251 OA 
BRANCH  27  28
HETATM   28  C   UNL     1     -11.894  11.367  69.884  1.00  0.00    -0.359 A  
HETATM   29  C   UNL     1     -12.364  13.597  70.597  1.00  0.00    -0.440 A  
HETATM   30  C   UNL     1     -11.793  12.742  69.678  1.00  0.00    -0.384 A  
HETATM   31  C   UNL     1     -13.091  13.107  71.673  1.00  0.00    -0.444 A  
HETATM   32  C   UNL     1     -13.237  11.739  71.866  1.00  0.00    -0.468 A  
HETATM   33  C   UNL     1     -13.673  14.221  72.479  1.00  0.00    -0.608 C  
HETATM   34  C   UNL     1     -13.140  15.489  71.787  1.00  0.00    -0.548 C  
HETATM   35  C   UNL     1     -12.626  10.858  70.962  1.00  0.00    -0.517 A  
HETATM   36  C   UNL     1     -12.315  15.085  70.560  1.00  0.00    -0.411 C  
ENDBRANCH  27  28
ENDBRANCH  19  27
ENDBRANCH  12  14
TORSDOF 3
ENDMDL
MODEL       21
REMARK 921   NORMALIZED FREE ENERGY PREDICTED BY IDOCK:   -7.15 KCAL/MOL
REMARK 922        TOTAL FREE ENERGY PREDICTED BY IDOCK:   -9.28 KCAL/MOL
REMARK 923 INTER-LIGAND FREE ENERGY PREDICTED BY IDOCK:   -8.17 KCAL/MOL
REMARK 924 INTRA-LIGAND FREE ENERGY PREDICTED BY IDOCK:   -1.12 KCAL/MOL
REMARK 927      BINDING AFFINITY PREDICTED BY RF-SCORE:    0.00 PKD
ROOT
HETATM    1  C   UNL     1     -10.661  15.235  66.440  1.00  0.00    -0.318 C  
HETATM    2  S   UNL     1     -11.529  15.015  68.046  1.00  0.00    -0.343 SA 
HETATM    3  C   UNL     1     -10.271  15.967  69.022  1.00  0.00    -0.236 C  
HETATM    4  C   UNL     1     -10.964  16.715  70.166  1.00  0.00    -0.110 C  
HETATM    5  CA  UNL     1      -9.546  16.862  67.984  1.00  0.00    -0.247 C  
HETATM    6  C   UNL     1      -9.317  14.941  69.666  1.00  0.00     0.084 C  
HETATM    7  N   UNL     1      -9.505  16.107  66.716  1.00  0.00    -0.227 N  
HETATM    8  C   UNL     1     -10.213  18.220  67.688  1.00  0.00    -0.382 C  
HETATM    9  OXT UNL     1     -10.531  19.047  68.529  1.00  0.00    -0.316 OA 
HETATM   10  O   UNL     1     -10.350  18.479  66.360  1.00  0.00    -0.386 OA 
HETATM   11  C   UNL     1      -8.585  15.101  66.546  1.00  0.00    -0.191 C  
HETATM   12  CA  UNL     1      -9.673  14.119  66.025  1.00  0.00    -0.274 C  
HETATM   13  O   UNL     1      -7.423  15.073  66.883  1.00  0.00    -0.084 OA 
ENDROOT
BRANCH  12  14
HETATM   14  N   UNL     1      -9.822  12.826  66.737  1.00  0.00    -0.236 N  
HETATM   15  C   UNL     1     -10.742  11.887  66.326  1.00  0.00    -0.271 C  
HETATM   16  H   UNL     1      -9.232  12.628  67.546  1.00  0.00     0.000 HD 
HETATM   17  O   UNL     1     -11.509  12.097  65.390  1.00  0.00    -0.336 OA 
HETATM   18  C   UNL     1     -10.783  10.601  67.130  1.00  0.00    -0.327 C  
HETATM   19  C   UNL     1      -9.500   9.828  66.893  1.00  0.00    -0.160 C  
HETATM   20  C   UNL     1     -11.186  10.792  68.604  1.00  0.00    -0.333 A  
HETATM   21  C   UNL     1     -12.102  11.798  68.967  1.00  0.00    -0.276 A  
HETATM   22  O   UNL     1      -8.456   9.980  67.517  1.00  0.00    -0.118 OA 
HETATM   23  C   UNL     1     -11.298   9.973  70.909  1.00  0.00    -0.439 A  
HETATM   24  C   UNL     1     -12.582  11.903  70.278  1.00  0.00    -0.091 A  
HETATM   25  C   UNL     1     -10.787   9.894  69.610  1.00  0.00    -0.281 A  
HETATM   26  C   UNL     1     -12.194  10.980  71.243  1.00  0.00    -0.365 A  
BRANCH  19  27
HETATM   27  O   UNL     1      -9.674   8.946  65.830  1.00  0.00    -0.255 OA 
BRANCH  27  28
HETATM   28  C   UNL     1      -9.685   7.600  66.217  1.00  0.00    -0.056 A  
HETATM   29  C   UNL     1      -8.599   5.480  66.391  1.00  0.00    -0.121 A  
HETATM   30  C   UNL     1      -8.595   6.780  65.930  1.00  0.00    -0.153 A  
HETATM   31  C   UNL     1      -9.633   5.008  67.187  1.00  0.00    -0.165 A  
HETATM   32  C   UNL     1     -10.705   5.829  67.518  1.00  0.00    -0.320 A  
HETATM   33  C   UNL     1      -9.378   3.603  67.623  1.00  0.00    -0.246 C  
HETATM   34  C   UNL     1      -8.058   3.237  66.918  1.00  0.00    -0.084 C  
HETATM   35  C   UNL     1     -10.733   7.140  67.021  1.00  0.00    -0.420 A  
HETATM   36  C   UNL     1      -7.546   4.456  66.142  1.00  0.00    -0.086 C  
ENDBRANCH  27  28
ENDBRANCH  19  27
ENDBRANCH  12  14
TORSDOF 3
ENDMDL
MODEL       22
REMARK 921   NORMALIZED FREE ENERGY PREDICTED BY IDOCK:   -7.14 KCAL/MOL
REMARK 922        TOTAL FREE ENERGY PREDICTED BY IDOCK:   -9.27 KCAL/MOL
REMARK 923 INTER-LIGAND FREE ENERGY PREDICTED BY IDOCK:   -8.50 KCAL/MOL
REMARK 924 INTRA-LIGAND FREE ENERGY PREDICTED BY IDOCK:   -0.77 KCAL/MOL
REMARK 927      BINDING AFFINITY PREDICTED BY RF-SCORE:    0.00 PKD
ROOT
HETATM    1  C   UNL     1     -10.446   7.220  72.283  1.00  0.00    -0.214 C  
HETATM    2  S   UNL     1     -10.272   6.237  70.739  1.00  0.00    -0.199 SA 
HETATM    3  C   UNL     1      -8.497   5.796  71.047  1.00  0.00    -0.123 C  
HETATM    4  C   UNL     1      -8.211   4.394  70.499  1.00  0.00    -0.071 C  
HETATM    5  CA  UNL     1      -8.296   5.968  72.574  1.00  0.00    -0.116 C  
HETATM    6  C   UNL     1      -7.632   6.782  70.236  1.00  0.00    -0.096 C  
HETATM    7  N   UNL     1      -9.167   7.080  73.003  1.00  0.00    -0.134 N  
HETATM    8  C   UNL     1      -8.657   4.744  73.440  1.00  0.00    -0.102 C  
HETATM    9  OXT UNL     1      -8.228   3.612  73.273  1.00  0.00    -0.078 OA 
HETATM   10  O   UNL     1      -9.454   5.045  74.500  1.00  0.00    -0.121 OA 
HETATM   11  C   UNL     1      -8.785   8.379  72.769  1.00  0.00    -0.186 C  
HETATM   12  CA  UNL     1     -10.177   8.739  72.174  1.00  0.00    -0.301 C  
HETATM   13  O   UNL     1      -7.687   8.876  72.874  1.00  0.00    -0.365 OA 
ENDROOT
BRANCH  12  14
HETATM   14  N   UNL     1     -10.206   9.304  70.802  1.00  0.00    -0.263 N  
HETATM   15  C   UNL     1     -11.387   9.415  70.102  1.00  0.00    -0.185 C  
HETATM   16  H   UNL     1      -9.336   9.616  70.369  1.00  0.00     0.000 HD 
HETATM   17  O   UNL     1     -12.452   9.009  70.558  1.00  0.00     0.043 OA 
HETATM   18  C   UNL     1     -11.283  10.024  68.716  1.00  0.00    -0.173 C  
HETATM   19  C   UNL     1     -10.918  11.491  68.845  1.00  0.00    -0.229 C  
HETATM   20  C   UNL     1     -10.425   9.207  67.731  1.00  0.00    -0.306 A  
HETATM   21  C   UNL     1     -10.392   7.802  67.813  1.00  0.00    -0.284 A  
HETATM   22  O   UNL     1      -9.778  11.933  68.935  1.00  0.00    -0.093 OA 
HETATM   23  C   UNL     1      -9.144   9.034  65.653  1.00  0.00    -0.278 A  
HETATM   24  C   UNL     1      -9.728   7.035  66.849  1.00  0.00    -0.228 A  
HETATM   25  C   UNL     1      -9.772   9.802  66.637  1.00  0.00    -0.257 A  
HETATM   26  C   UNL     1      -9.119   7.650  65.761  1.00  0.00    -0.042 A  
BRANCH  19  27
HETATM   27  O   UNL     1     -12.078  12.259  68.889  1.00  0.00    -0.265 OA 
BRANCH  27  28
HETATM   28  C   UNL     1     -12.248  12.946  70.097  1.00  0.00    -0.266 A  
HETATM   29  C   UNL     1     -12.037  14.934  71.404  1.00  0.00    -0.392 A  
HETATM   30  C   UNL     1     -11.787  14.255  70.230  1.00  0.00    -0.377 A  
HETATM   31  C   UNL     1     -12.795  14.358  72.414  1.00  0.00    -0.436 A  
HETATM   32  C   UNL     1     -13.299  13.070  72.277  1.00  0.00    -0.606 A  
HETATM   33  C   UNL     1     -12.993  15.311  73.547  1.00  0.00    -0.634 C  
HETATM   34  C   UNL     1     -12.180  16.550  73.127  1.00  0.00    -0.452 C  
HETATM   35  C   UNL     1     -13.017  12.353  71.105  1.00  0.00    -0.232 A  
HETATM   36  C   UNL     1     -11.583  16.313  71.735  1.00  0.00    -0.436 C  
ENDBRANCH  27  28
ENDBRANCH  19  27
ENDBRANCH  12  14
TORSDOF 3
ENDMDL
MODEL       23
REMARK 921   NORMALIZED FREE ENERGY PREDICTED BY IDOCK:   -7.13 KCAL/MOL
REMARK 922        TOTAL FREE ENERGY PREDICTED BY IDOCK:   -9.25 KCAL/MOL
REMARK 923 INTER-LIGAND FREE ENERGY PREDICTED BY IDOCK:   -8.32 KCAL/MOL
REMARK 924 INTRA-LIGAND FREE ENERGY PREDICTED BY IDOCK:   -0.93 KCAL/MOL
REMARK 927      BINDING AFFINITY PREDICTED BY RF-SCORE:    0.00 PKD
ROOT
HETATM    1  C   UNL     1      -8.731  14.015  66.105  1.00  0.00     0.545 C  
HETATM    2  S   UNL     1      -9.955  13.288  64.942  1.00  0.00    -0.050 SA 
HETATM    3  C   UNL     1     -11.387  14.258  65.613  1.00  0.00    -0.317 C  
HETATM    4  C   UNL     1     -12.363  14.587  64.479  1.00  0.00    -0.434 C  
HETATM    5  CA  UNL     1     -10.751  15.481  66.321  1.00  0.00    -0.307 C  
HETATM    6  C   UNL     1     -12.138  13.343  66.603  1.00  0.00    -0.429 C  
HETATM    7  N   UNL     1      -9.461  15.033  66.882  1.00  0.00    -0.227 N  
HETATM    8  C   UNL     1     -10.462  16.700  65.423  1.00  0.00    -0.233 C  
HETATM    9  OXT UNL     1     -11.276  17.248  64.694  1.00  0.00    -1.014 OA 
HETATM   10  O   UNL     1      -9.203  17.196  65.569  1.00  0.00    -0.376 OA 
HETATM   11  C   UNL     1      -9.436  14.301  68.045  1.00  0.00    -0.204 C  
HETATM   12  CA  UNL     1      -8.480  13.244  67.423  1.00  0.00    -0.206 C  
HETATM   13  O   UNL     1     -10.099  14.448  69.046  1.00  0.00    -0.221 OA 
ENDROOT
BRANCH  12  14
HETATM   14  N   UNL     1      -8.926  11.828  67.438  1.00  0.00    -0.168 N  
HETATM   15  C   UNL     1      -8.453  10.942  68.380  1.00  0.00    -0.141 C  
HETATM   16  H   UNL     1      -9.596  11.506  66.739  1.00  0.00     0.000 HD 
HETATM   17  O   UNL     1      -7.609  11.268  69.211  1.00  0.00    -0.107 OA 
HETATM   18  C   UNL     1      -9.000   9.529  68.297  1.00  0.00    -0.124 C  
HETATM   19  C   UNL     1     -10.470   9.544  68.670  1.00  0.00    -0.211 C  
HETATM   20  C   UNL     1      -8.650   8.794  66.989  1.00  0.00    -0.119 A  
HETATM   21  C   UNL     1      -7.426   9.041  66.339  1.00  0.00    -0.092 A  
HETATM   22  O   UNL     1     -11.395   9.762  67.896  1.00  0.00    -0.096 OA 
HETATM   23  C   UNL     1      -9.037   6.978  65.393  1.00  0.00     0.286 A  
HETATM   24  C   UNL     1      -7.031   8.290  65.226  1.00  0.00    -0.066 A  
HETATM   25  C   UNL     1      -9.450   7.756  66.479  1.00  0.00    -0.262 A  
HETATM   26  C   UNL     1      -7.828   7.248  64.764  1.00  0.00    -0.126 A  
BRANCH  19  27
HETATM   27  O   UNL     1     -10.608   9.314  70.036  1.00  0.00    -0.207 OA 
BRANCH  27  28
HETATM   28  C   UNL     1     -11.442  10.240  70.677  1.00  0.00    -0.349 A  
HETATM   29  C   UNL     1     -12.349  12.441  70.857  1.00  0.00    -0.358 A  
HETATM   30  C   UNL     1     -11.463  11.570  70.260  1.00  0.00    -0.192 A  
HETATM   31  C   UNL     1     -13.258  11.996  71.807  1.00  0.00    -0.421 A  
HETATM   32  C   UNL     1     -13.278  10.662  72.199  1.00  0.00    -0.379 A  
HETATM   33  C   UNL     1     -14.160  13.101  72.248  1.00  0.00    -0.372 C  
HETATM   34  C   UNL     1     -13.630  14.330  71.484  1.00  0.00    -0.431 C  
HETATM   35  C   UNL     1     -12.354   9.775  71.630  1.00  0.00    -0.495 A  
HETATM   36  C   UNL     1     -12.477  13.897  70.571  1.00  0.00    -0.422 C  
ENDBRANCH  27  28
ENDBRANCH  19  27
ENDBRANCH  12  14
TORSDOF 3
ENDMDL
MODEL       24
REMARK 921   NORMALIZED FREE ENERGY PREDICTED BY IDOCK:   -7.10 KCAL/MOL
REMARK 922        TOTAL FREE ENERGY PREDICTED BY IDOCK:   -9.22 KCAL/MOL
REMARK 923 INTER-LIGAND FREE ENERGY PREDICTED BY IDOCK:   -8.14 KCAL/MOL
REMARK 924 INTRA-LIGAND FREE ENERGY PREDICTED BY IDOCK:   -1.08 KCAL/MOL
REMARK 927      BINDING AFFINITY PREDICTED BY RF-SCORE:    0.00 PKD
ROOT
HETATM    1  C   UNL     1     -10.095  17.088  68.376  1.00  0.00    -0.302 C  
HETATM    2  S   UNL     1      -8.320  16.746  68.712  1.00  0.00    -0.228 SA 
HETATM    3  C   UNL     1      -7.707  17.737  67.269  1.00  0.00    -0.206 C  
HETATM    4  C   UNL     1      -6.367  18.390  67.623  1.00  0.00    -0.191 C  
HETATM    5  CA  UNL     1      -8.858  18.718  66.933  1.00  0.00    -0.294 C  
HETATM    6  C   UNL     1      -7.435  16.749  66.116  1.00  0.00    -0.119 C  
HETATM    7  N   UNL     1     -10.123  18.021  67.235  1.00  0.00    -0.326 N  
HETATM    8  C   UNL     1      -8.863  20.042  67.724  1.00  0.00    -0.302 C  
HETATM    9  OXT UNL     1      -7.918  20.811  67.816  1.00  0.00    -0.173 OA 
HETATM   10  O   UNL     1     -10.073  20.346  68.265  1.00  0.00    -0.326 OA 
HETATM   11  C   UNL     1     -10.617  17.085  66.359  1.00  0.00    -0.172 C  
HETATM   12  CA  UNL     1     -10.850  16.057  67.503  1.00  0.00    -0.292 C  
HETATM   13  O   UNL     1     -10.641  17.118  65.150  1.00  0.00    -0.695 OA 
ENDROOT
BRANCH  12  14
HETATM   14  N   UNL     1     -10.202  14.728  67.368  1.00  0.00    -0.236 N  
HETATM   15  C   UNL     1     -10.298  13.784  68.365  1.00  0.00    -0.247 C  
HETATM   16  H   UNL     1      -9.677  14.510  66.521  1.00  0.00     0.000 HD 
HETATM   17  O   UNL     1     -10.877  14.015  69.424  1.00  0.00    -0.206 OA 
HETATM   18  C   UNL     1      -9.605  12.461  68.097  1.00  0.00    -0.218 C  
HETATM   19  C   UNL     1     -10.336  11.737  66.981  1.00  0.00    -0.214 C  
HETATM   20  C   UNL     1      -8.078  12.571  67.933  1.00  0.00    -0.163 A  
HETATM   21  C   UNL     1      -7.352  13.533  68.661  1.00  0.00    -0.112 A  
HETATM   22  O   UNL     1     -10.129  11.890  65.783  1.00  0.00    -0.226 OA 
HETATM   23  C   UNL     1      -5.939  11.644  67.184  1.00  0.00    -0.127 A  
HETATM   24  C   UNL     1      -5.953  13.563  68.629  1.00  0.00    -0.086 A  
HETATM   25  C   UNL     1      -7.337  11.640  67.183  1.00  0.00    -0.143 A  
HETATM   26  C   UNL     1      -5.247  12.609  67.904  1.00  0.00    -0.096 A  
BRANCH  19  27
HETATM   27  O   UNL     1     -11.307  10.901  67.525  1.00  0.00    -0.394 OA 
BRANCH  27  28
HETATM   28  C   UNL     1     -10.841   9.609  67.801  1.00  0.00    -0.217 A  
HETATM   29  C   UNL     1     -10.443   7.831  69.345  1.00  0.00    -0.221 A  
HETATM   30  C   UNL     1     -10.834   9.132  69.111  1.00  0.00    -0.131 A  
HETATM   31  C   UNL     1     -10.129   6.980  68.294  1.00  0.00    -0.185 A  
HETATM   32  C   UNL     1     -10.175   7.430  66.980  1.00  0.00    -0.357 A  
HETATM   33  C   UNL     1      -9.812   5.608  68.790  1.00  0.00    -0.193 C  
HETATM   34  C   UNL     1      -9.904   5.744  70.322  1.00  0.00    -0.244 C  
HETATM   35  C   UNL     1     -10.530   8.763  66.731  1.00  0.00    -0.283 A  
HETATM   36  C   UNL     1     -10.333   7.172  70.676  1.00  0.00    -0.217 C  
ENDBRANCH  27  28
ENDBRANCH  19  27
ENDBRANCH  12  14
TORSDOF 3
ENDMDL
MODEL       25
REMARK 921   NORMALIZED FREE ENERGY PREDICTED BY IDOCK:   -6.95 KCAL/MOL
REMARK 922        TOTAL FREE ENERGY PREDICTED BY IDOCK:   -9.05 KCAL/MOL
REMARK 923 INTER-LIGAND FREE ENERGY PREDICTED BY IDOCK:   -8.23 KCAL/MOL
REMARK 924 INTRA-LIGAND FREE ENERGY PREDICTED BY IDOCK:   -0.82 KCAL/MOL
REMARK 927      BINDING AFFINITY PREDICTED BY RF-SCORE:    0.00 PKD
ROOT
HETATM    1  C   UNL     1      -8.125   6.410  68.400  1.00  0.00    -0.113 C  
HETATM    2  S   UNL     1      -8.775   6.862  70.060  1.00  0.00    -0.142 SA 
HETATM    3  C   UNL     1     -10.090   5.554  70.061  1.00  0.00    -0.241 C  
HETATM    4  C   UNL     1     -10.304   5.039  71.488  1.00  0.00    -0.252 C  
HETATM    5  CA  UNL     1      -9.610   4.496  69.036  1.00  0.00    -0.175 C  
HETATM    6  C   UNL     1     -11.407   6.227  69.623  1.00  0.00    -0.492 C  
HETATM    7  N   UNL     1      -8.884   5.220  67.974  1.00  0.00    -0.105 N  
HETATM    8  C   UNL     1      -8.659   3.413  69.585  1.00  0.00    -0.064 C  
HETATM    9  OXT UNL     1      -8.879   2.712  70.561  1.00  0.00    -0.068 OA 
HETATM   10  O   UNL     1      -7.548   3.230  68.823  1.00  0.00    -0.049 OA 
HETATM   11  C   UNL     1      -9.583   5.896  67.004  1.00  0.00    -0.132 C  
HETATM   12  CA  UNL     1      -8.715   7.173  67.191  1.00  0.00    -0.121 C  
HETATM   13  O   UNL     1     -10.590   5.560  66.424  1.00  0.00    -0.264 OA 
ENDROOT
BRANCH  12  14
HETATM   14  N   UNL     1      -9.423   8.439  67.507  1.00  0.00    -0.146 N  
HETATM   15  C   UNL     1      -8.742   9.536  67.986  1.00  0.00    -0.120 C  
HETATM   16  H   UNL     1     -10.432   8.497  67.369  1.00  0.00     0.000 HD 
HETATM   17  O   UNL     1      -7.536   9.501  68.217  1.00  0.00    -0.077 OA 
HETATM   18  C   UNL     1      -9.579  10.772  68.255  1.00  0.00    -0.170 C  
HETATM   19  C   UNL     1     -10.078  11.330  66.935  1.00  0.00    -0.212 C  
HETATM   20  C   UNL     1     -10.650  10.583  69.347  1.00  0.00    -0.269 A  
HETATM   21  C   UNL     1     -10.408   9.729  70.439  1.00  0.00    -0.354 A  
HETATM   22  O   UNL     1     -11.099  10.977  66.357  1.00  0.00    -0.201 OA 
HETATM   23  C   UNL     1     -12.704  11.300  70.467  1.00  0.00    -0.257 A  
HETATM   24  C   UNL     1     -11.309   9.644  71.507  1.00  0.00    -0.420 A  
HETATM   25  C   UNL     1     -11.826  11.353  69.381  1.00  0.00    -0.419 A  
HETATM   26  C   UNL     1     -12.447  10.442  71.529  1.00  0.00    -0.508 A  
BRANCH  19  27
HETATM   27  O   UNL     1      -9.176  12.277  66.457  1.00  0.00    -0.221 OA 
BRANCH  27  28
HETATM   28  C   UNL     1      -9.640  13.594  66.565  1.00  0.00    -0.286 A  
HETATM   29  C   UNL     1      -9.979  15.579  67.850  1.00  0.00    -0.218 A  
HETATM   30  C   UNL     1      -9.588  14.258  67.790  1.00  0.00    -0.221 A  
HETATM   31  C   UNL     1     -10.352  16.265  66.703  1.00  0.00    -0.302 A  
HETATM   32  C   UNL     1     -10.366  15.628  65.467  1.00  0.00    -0.421 A  
HETATM   33  C   UNL     1     -10.656  17.695  67.008  1.00  0.00    -0.254 C  
HETATM   34  C   UNL     1     -10.490  17.785  68.536  1.00  0.00    -0.332 C  
HETATM   35  C   UNL     1     -10.010  14.273  65.400  1.00  0.00    -0.334 A  
HETATM   36  C   UNL     1     -10.031  16.425  69.074  1.00  0.00    -0.267 C  
ENDBRANCH  27  28
ENDBRANCH  19  27
ENDBRANCH  12  14
TORSDOF 3
ENDMDL
MODEL       26
REMARK 921   NORMALIZED FREE ENERGY PREDICTED BY IDOCK:   -6.95 KCAL/MOL
REMARK 922        TOTAL FREE ENERGY PREDICTED BY IDOCK:   -9.04 KCAL/MOL
REMARK 923 INTER-LIGAND FREE ENERGY PREDICTED BY IDOCK:   -8.38 KCAL/MOL
REMARK 924 INTRA-LIGAND FREE ENERGY PREDICTED BY IDOCK:   -0.66 KCAL/MOL
REMARK 927      BINDING AFFINITY PREDICTED BY RF-SCORE:    0.00 PKD
ROOT
HETATM    1  C   UNL     1     -11.605   7.753  71.414  1.00  0.00    -0.276 C  
HETATM    2  S   UNL     1     -11.311   6.971  69.776  1.00  0.00    -0.133 SA 
HETATM    3  C   UNL     1      -9.719   6.165  70.283  1.00  0.00    -0.164 C  
HETATM    4  C   UNL     1      -9.569   4.821  69.563  1.00  0.00    -0.250 C  
HETATM    5  CA  UNL     1      -9.779   6.089  71.830  1.00  0.00    -0.151 C  
HETATM    6  C   UNL     1      -8.570   7.070  69.793  1.00  0.00    -0.141 C  
HETATM    7  N   UNL     1     -10.521   7.278  72.294  1.00  0.00    -0.208 N  
HETATM    8  C   UNL     1     -10.488   4.850  72.413  1.00  0.00    -0.209 C  
HETATM    9  OXT UNL     1     -10.226   3.690  72.131  1.00  0.00    -0.167 OA 
HETATM   10  O   UNL     1     -11.408   5.151  73.369  1.00  0.00    -0.313 OA 
HETATM   11  C   UNL     1      -9.895   8.500  72.341  1.00  0.00    -0.288 C  
HETATM   12  CA  UNL     1     -11.075   9.194  71.603  1.00  0.00    -0.375 C  
HETATM   13  O   UNL     1      -8.770   8.761  72.700  1.00  0.00    -0.408 OA 
ENDROOT
BRANCH  12  14
HETATM   14  N   UNL     1     -10.758   9.934  70.356  1.00  0.00    -0.300 N  
HETATM   15  C   UNL     1     -11.754  10.358  69.505  1.00  0.00    -0.188 C  
HETATM   16  H   UNL     1      -9.784  10.132  70.124  1.00  0.00     0.000 HD 
HETATM   17  O   UNL     1     -12.937  10.101  69.713  1.00  0.00     0.113 OA 
HETATM   18  C   UNL     1     -11.298  11.117  68.273  1.00  0.00    -0.365 C  
HETATM   19  C   UNL     1     -10.732  12.459  68.700  1.00  0.00    -0.232 C  
HETATM   20  C   UNL     1     -10.416  10.294  67.316  1.00  0.00    -0.307 A  
HETATM   21  C   UNL     1     -10.626   8.910  67.168  1.00  0.00    -0.301 A  
HETATM   22  O   UNL     1      -9.572  12.662  69.041  1.00  0.00     0.148 OA 
HETATM   23  C   UNL     1      -8.816  10.165  65.468  1.00  0.00    -0.191 A  
HETATM   24  C   UNL     1      -9.927   8.169  66.209  1.00  0.00    -0.148 A  
HETATM   25  C   UNL     1      -9.483  10.897  66.453  1.00  0.00    -0.214 A  
HETATM   26  C   UNL     1      -9.035   8.799  65.348  1.00  0.00    -0.211 A  
BRANCH  19  27
HETATM   27  O   UNL     1     -11.741  13.418  68.684  1.00  0.00    -0.305 OA 
BRANCH  27  28
HETATM   28  C   UNL     1     -11.267  14.724  68.509  1.00  0.00    -0.276 A  
HETATM   29  C   UNL     1     -10.695  16.552  67.082  1.00  0.00    -0.220 A  
HETATM   30  C   UNL     1     -11.089  15.239  67.225  1.00  0.00    -0.325 A  
HETATM   31  C   UNL     1     -10.546  17.377  68.189  1.00  0.00    -0.376 A  
HETATM   32  C   UNL     1     -10.763  16.889  69.472  1.00  0.00    -0.205 A  
HETATM   33  C   UNL     1     -10.191  18.768  67.778  1.00  0.00    -0.446 C  
HETATM   34  C   UNL     1     -10.068  18.675  66.245  1.00  0.00    -0.431 C  
HETATM   35  C   UNL     1     -11.123  15.544  69.633  1.00  0.00    -0.280 A  
HETATM   36  C   UNL     1     -10.415  17.251  65.797  1.00  0.00    -0.237 C  
ENDBRANCH  27  28
ENDBRANCH  19  27
ENDBRANCH  12  14
TORSDOF 3
ENDMDL
MODEL       27
REMARK 921   NORMALIZED FREE ENERGY PREDICTED BY IDOCK:   -6.90 KCAL/MOL
REMARK 922        TOTAL FREE ENERGY PREDICTED BY IDOCK:   -8.98 KCAL/MOL
REMARK 923 INTER-LIGAND FREE ENERGY PREDICTED BY IDOCK:   -7.47 KCAL/MOL
REMARK 924 INTRA-LIGAND FREE ENERGY PREDICTED BY IDOCK:   -1.51 KCAL/MOL
REMARK 927      BINDING AFFINITY PREDICTED BY RF-SCORE:    0.00 PKD
ROOT
HETATM    1  C   UNL     1      -8.175  11.678  66.214  1.00  0.00     0.012 C  
HETATM    2  S   UNL     1      -9.672  11.237  65.243  1.00  0.00    -0.248 SA 
HETATM    3  C   UNL     1     -10.856  12.026  66.433  1.00  0.00    -0.278 C  
HETATM    4  C   UNL     1     -12.049  12.606  65.667  1.00  0.00    -0.502 C  
HETATM    5  CA  UNL     1     -10.009  13.054  67.225  1.00  0.00    -0.232 C  
HETATM    6  C   UNL     1     -11.406  10.908  67.343  1.00  0.00    -0.273 C  
HETATM    7  N   UNL     1      -8.650  12.491  67.349  1.00  0.00    -0.178 N  
HETATM    8  C   UNL     1      -9.870  14.447  66.579  1.00  0.00    -0.287 C  
HETATM    9  OXT UNL     1     -10.800  15.147  66.206  1.00  0.00    -0.324 OA 
HETATM   10  O   UNL     1      -8.587  14.897  66.529  1.00  0.00    -0.230 OA 
HETATM   11  C   UNL     1      -8.396  11.511  68.279  1.00  0.00    -0.154 C  
HETATM   12  CA  UNL     1      -7.668  10.626  67.228  1.00  0.00    -0.108 C  
HETATM   13  O   UNL     1      -8.801  11.424  69.416  1.00  0.00     0.232 OA 
ENDROOT
BRANCH  12  14
HETATM   14  N   UNL     1      -8.174   9.244  67.033  1.00  0.00    -0.115 N  
HETATM   15  C   UNL     1      -7.679   8.193  67.772  1.00  0.00    -0.110 C  
HETATM   16  H   UNL     1      -8.901   9.070  66.338  1.00  0.00     0.000 HD 
HETATM   17  O   UNL     1      -6.770   8.342  68.584  1.00  0.00    -0.056 OA 
HETATM   18  C   UNL     1      -8.292   6.834  67.487  1.00  0.00    -0.122 C  
HETATM   19  C   UNL     1      -9.733   6.831  67.962  1.00  0.00    -0.124 C  
HETATM   20  C   UNL     1      -8.061   6.327  66.051  1.00  0.00    -0.119 A  
HETATM   21  C   UNL     1      -6.872   6.644  65.367  1.00  0.00    -0.055 A  
HETATM   22  O   UNL     1     -10.696   7.210  67.306  1.00  0.00    -0.286 OA 
HETATM   23  C   UNL     1      -8.630   4.830  64.200  1.00  0.00    -0.137 A  
HETATM   24  C   UNL     1      -6.584   6.086  64.117  1.00  0.00    -0.037 A  
HETATM   25  C   UNL     1      -8.937   5.420  65.429  1.00  0.00    -0.130 A  
HETATM   26  C   UNL     1      -7.454   5.166  63.542  1.00  0.00    -0.053 A  
BRANCH  19  27
HETATM   27  O   UNL     1      -9.791   6.372  69.275  1.00  0.00    -0.145 OA 
BRANCH  27  28
HETATM   28  C   UNL     1     -10.711   7.068  70.070  1.00  0.00    -0.242 A  
HETATM   29  C   UNL     1     -11.685   9.120  70.806  1.00  0.00    -0.308 A  
HETATM   30  C   UNL     1     -10.719   8.462  70.074  1.00  0.00    -0.236 A  
HETATM   31  C   UNL     1     -12.679   8.417  71.471  1.00  0.00    -0.330 A  
HETATM   32  C   UNL     1     -12.709   7.028  71.438  1.00  0.00    -0.421 A  
HETATM   33  C   UNL     1     -13.649   9.346  72.125  1.00  0.00    -0.528 C  
HETATM   34  C   UNL     1     -13.070  10.743  71.830  1.00  0.00    -0.573 C  
HETATM   35  C   UNL     1     -11.708   6.345  70.733  1.00  0.00    -0.378 A  
HETATM   36  C   UNL     1     -11.816  10.596  70.960  1.00  0.00    -0.396 C  
ENDBRANCH  27  28
ENDBRANCH  19  27
ENDBRANCH  12  14
TORSDOF 3
ENDMDL
MODEL       28
REMARK 921   NORMALIZED FREE ENERGY PREDICTED BY IDOCK:   -6.89 KCAL/MOL
REMARK 922        TOTAL FREE ENERGY PREDICTED BY IDOCK:   -8.98 KCAL/MOL
REMARK 923 INTER-LIGAND FREE ENERGY PREDICTED BY IDOCK:   -7.54 KCAL/MOL
REMARK 924 INTRA-LIGAND FREE ENERGY PREDICTED BY IDOCK:   -1.44 KCAL/MOL
REMARK 927      BINDING AFFINITY PREDICTED BY RF-SCORE:    0.00 PKD
ROOT
HETATM    1  C   UNL     1      -7.396   8.252  66.553  1.00  0.00    -0.081 C  
HETATM    2  S   UNL     1      -9.019   8.248  65.691  1.00  0.00    -0.051 SA 
HETATM    3  C   UNL     1      -8.742   9.879  64.852  1.00  0.00    -0.176 C  
HETATM    4  C   UNL     1      -9.411   9.870  63.473  1.00  0.00    -0.231 C  
HETATM    5  CA  UNL     1      -7.205  10.075  64.846  1.00  0.00    -0.140 C  
HETATM    6  C   UNL     1      -9.459  10.955  65.693  1.00  0.00    -0.252 C  
HETATM    7  N   UNL     1      -6.684   9.453  66.080  1.00  0.00    -0.079 N  
HETATM    8  C   UNL     1      -6.453   9.439  63.660  1.00  0.00    -0.095 C  
HETATM    9  OXT UNL     1      -6.717   9.618  62.480  1.00  0.00    -0.097 OA 
HETATM   10  O   UNL     1      -5.375   8.699  64.035  1.00  0.00    -0.054 OA 
HETATM   11  C   UNL     1      -6.801  10.111  67.280  1.00  0.00    -0.078 C  
HETATM   12  CA  UNL     1      -7.368   8.844  67.982  1.00  0.00    -0.084 C  
HETATM   13  O   UNL     1      -6.646  11.287  67.517  1.00  0.00    -0.065 OA 
ENDROOT
BRANCH  12  14
HETATM   14  N   UNL     1      -8.685   8.970  68.655  1.00  0.00    -0.132 N  
HETATM   15  C   UNL     1      -8.850   9.785  69.752  1.00  0.00    -0.224 C  
HETATM   16  H   UNL     1      -9.483   8.444  68.298  1.00  0.00     0.000 HD 
HETATM   17  O   UNL     1      -7.911  10.401  70.250  1.00  0.00    -0.104 OA 
HETATM   18  C   UNL     1     -10.249   9.838  70.337  1.00  0.00    -0.343 C  
HETATM   19  C   UNL     1     -11.171  10.535  69.355  1.00  0.00    -0.269 C  
HETATM   20  C   UNL     1     -10.754   8.490  70.885  1.00  0.00    -0.268 A  
HETATM   21  C   UNL     1      -9.855   7.577  71.469  1.00  0.00    -0.185 A  
HETATM   22  O   UNL     1     -11.765   9.991  68.431  1.00  0.00    -0.053 OA 
HETATM   23  C   UNL     1     -12.580   7.035  71.622  1.00  0.00    -0.419 A  
HETATM   24  C   UNL     1     -10.309   6.409  72.091  1.00  0.00    -0.213 A  
HETATM   25  C   UNL     1     -12.124   8.181  70.964  1.00  0.00    -0.223 A  
HETATM   26  C   UNL     1     -11.672   6.147  72.182  1.00  0.00    -0.361 A  
BRANCH  19  27
HETATM   27  O   UNL     1     -11.207  11.898  69.635  1.00  0.00    -0.207 OA 
BRANCH  27  28
HETATM   28  C   UNL     1     -10.969  12.705  68.515  1.00  0.00    -0.261 A  
HETATM   29  C   UNL     1     -11.731  13.747  66.505  1.00  0.00    -0.412 A  
HETATM   30  C   UNL     1     -11.965  12.886  67.557  1.00  0.00    -0.354 A  
HETATM   31  C   UNL     1     -10.554  14.480  66.432  1.00  0.00    -0.302 A  
HETATM   32  C   UNL     1      -9.571  14.343  67.405  1.00  0.00    -0.216 A  
HETATM   33  C   UNL     1     -10.564  15.395  65.252  1.00  0.00    -0.450 C  
HETATM   34  C   UNL     1     -11.897  15.072  64.552  1.00  0.00    -0.377 C  
HETATM   35  C   UNL     1      -9.780  13.440  68.457  1.00  0.00    -0.156 A  
HETATM   36  C   UNL     1     -12.658  14.025  65.374  1.00  0.00    -0.529 C  
ENDBRANCH  27  28
ENDBRANCH  19  27
ENDBRANCH  12  14
TORSDOF 3
ENDMDL
MODEL       29
REMARK 921   NORMALIZED FREE ENERGY PREDICTED BY IDOCK:   -6.88 KCAL/MOL
REMARK 922        TOTAL FREE ENERGY PREDICTED BY IDOCK:   -8.96 KCAL/MOL
REMARK 923 INTER-LIGAND FREE ENERGY PREDICTED BY IDOCK:   -7.66 KCAL/MOL
REMARK 924 INTRA-LIGAND FREE ENERGY PREDICTED BY IDOCK:   -1.30 KCAL/MOL
REMARK 927      BINDING AFFINITY PREDICTED BY RF-SCORE:    0.00 PKD
ROOT
HETATM    1  C   UNL     1      -7.692   5.045  68.208  1.00  0.00    -0.083 C  
HETATM    2  S   UNL     1      -9.231   4.096  67.879  1.00  0.00    -0.163 SA 
HETATM    3  C   UNL     1      -9.935   5.359  66.717  1.00  0.00    -0.192 C  
HETATM    4  C   UNL     1     -10.746   4.659  65.622  1.00  0.00    -0.193 C  
HETATM    5  CA  UNL     1      -8.716   6.179  66.223  1.00  0.00    -0.143 C  
HETATM    6  C   UNL     1     -10.924   6.225  67.525  1.00  0.00    -0.444 C  
HETATM    7  N   UNL     1      -7.751   6.235  67.339  1.00  0.00    -0.096 N  
HETATM    8  C   UNL     1      -7.972   5.602  65.002  1.00  0.00    -0.115 C  
HETATM    9  OXT UNL     1      -8.493   5.293  63.940  1.00  0.00    -0.137 OA 
HETATM   10  O   UNL     1      -6.624   5.539  65.168  1.00  0.00    -0.038 OA 
HETATM   11  C   UNL     1      -7.959   7.104  68.382  1.00  0.00    -0.124 C  
HETATM   12  CA  UNL     1      -7.705   5.988  69.435  1.00  0.00    -0.098 C  
HETATM   13  O   UNL     1      -8.357   8.246  68.348  1.00  0.00    -0.129 OA 
ENDROOT
BRANCH  12  14
HETATM   14  N   UNL     1      -8.775   5.736  70.432  1.00  0.00    -0.132 N  
HETATM   15  C   UNL     1      -8.682   6.224  71.717  1.00  0.00    -0.133 C  
HETATM   16  H   UNL     1      -9.594   5.191  70.162  1.00  0.00     0.000 HD 
HETATM   17  O   UNL     1      -7.694   6.842  72.105  1.00  0.00    -0.092 OA 
HETATM   18  C   UNL     1      -9.849   5.910  72.633  1.00  0.00    -0.180 C  
HETATM   19  C   UNL     1     -11.073   6.668  72.155  1.00  0.00    -0.254 C  
HETATM   20  C   UNL     1     -10.056   4.406  72.897  1.00  0.00    -0.214 A  
HETATM   21  C   UNL     1      -8.952   3.535  72.953  1.00  0.00    -0.109 A  
HETATM   22  O   UNL     1     -11.861   6.276  71.302  1.00  0.00    -0.303 OA 
HETATM   23  C   UNL     1     -11.459   2.545  73.647  1.00  0.00    -0.257 A  
HETATM   24  C   UNL     1      -9.105   2.194  73.322  1.00  0.00    -0.079 A  
HETATM   25  C   UNL     1     -11.312   3.874  73.238  1.00  0.00    -0.206 A  
HETATM   26  C   UNL     1     -10.354   1.704  73.686  1.00  0.00    -0.161 A  
BRANCH  19  27
HETATM   27  O   UNL     1     -11.142   7.899  72.801  1.00  0.00    -0.357 OA 
BRANCH  27  28
HETATM   28  C   UNL     1     -11.368   8.974  71.933  1.00  0.00    -0.368 A  
HETATM   29  C   UNL     1     -10.688  10.337  70.092  1.00  0.00    -0.334 A  
HETATM   30  C   UNL     1     -10.407   9.324  70.985  1.00  0.00    -0.388 A  
HETATM   31  C   UNL     1     -11.931  10.954  70.082  1.00  0.00    -0.435 A  
HETATM   32  C   UNL     1     -12.915  10.584  70.992  1.00  0.00    -0.475 A  
HETATM   33  C   UNL     1     -12.023  11.959  68.981  1.00  0.00    -0.321 C  
HETATM   34  C   UNL     1     -10.620  11.932  68.346  1.00  0.00    -0.239 C  
HETATM   35  C   UNL     1     -12.627   9.585  71.932  1.00  0.00    -0.479 A  
HETATM   36  C   UNL     1      -9.768  10.869  69.049  1.00  0.00    -0.181 C  
ENDBRANCH  27  28
ENDBRANCH  19  27
ENDBRANCH  12  14
TORSDOF 3
ENDMDL
MODEL       30
REMARK 921   NORMALIZED FREE ENERGY PREDICTED BY IDOCK:   -6.87 KCAL/MOL
REMARK 922        TOTAL FREE ENERGY PREDICTED BY IDOCK:   -8.95 KCAL/MOL
REMARK 923 INTER-LIGAND FREE ENERGY PREDICTED BY IDOCK:   -8.14 KCAL/MOL
REMARK 924 INTRA-LIGAND FREE ENERGY PREDICTED BY IDOCK:   -0.81 KCAL/MOL
REMARK 927      BINDING AFFINITY PREDICTED BY RF-SCORE:    0.00 PKD
ROOT
HETATM    1  C   UNL     1      -7.536   7.467  67.276  1.00  0.00    -0.108 C  
HETATM    2  S   UNL     1      -8.456   6.195  68.232  1.00  0.00    -0.113 SA 
HETATM    3  C   UNL     1      -9.433   5.596  66.774  1.00  0.00    -0.141 C  
HETATM    4  C   UNL     1      -9.686   4.090  66.906  1.00  0.00    -0.215 C  
HETATM    5  CA  UNL     1      -8.613   6.027  65.532  1.00  0.00    -0.143 C  
HETATM    6  C   UNL     1     -10.810   6.290  66.827  1.00  0.00    -0.367 C  
HETATM    7  N   UNL     1      -7.953   7.303  65.871  1.00  0.00    -0.109 N  
HETATM    8  C   UNL     1      -7.511   5.047  65.082  1.00  0.00    -0.076 C  
HETATM    9  OXT UNL     1      -7.676   3.858  64.853  1.00  0.00    -0.079 OA 
HETATM   10  O   UNL     1      -6.308   5.644  64.869  1.00  0.00    -0.035 OA 
HETATM   11  C   UNL     1      -8.672   8.474  65.849  1.00  0.00    -0.174 C  
HETATM   12  CA  UNL     1      -8.141   8.891  67.250  1.00  0.00    -0.104 C  
HETATM   13  O   UNL     1      -9.505   8.836  65.049  1.00  0.00     0.081 OA 
ENDROOT
BRANCH  12  14
HETATM   14  N   UNL     1      -9.148   9.184  68.300  1.00  0.00    -0.133 N  
HETATM   15  C   UNL     1      -8.991  10.247  69.162  1.00  0.00    -0.180 C  
HETATM   16  H   UNL     1      -9.972   8.588  68.386  1.00  0.00     0.000 HD 
HETATM   17  O   UNL     1      -7.994  10.964  69.132  1.00  0.00    -0.147 OA 
HETATM   18  C   UNL     1     -10.098  10.448  70.179  1.00  0.00     0.022 C  
HETATM   19  C   UNL     1     -11.360  10.882  69.458  1.00  0.00    -0.283 C  
HETATM   20  C   UNL     1     -10.263   9.280  71.170  1.00  0.00    -0.387 A  
HETATM   21  C   UNL     1      -9.142   8.538  71.588  1.00  0.00    -0.296 A  
HETATM   22  O   UNL     1     -12.189  10.127  68.963  1.00  0.00     0.075 OA 
HETATM   23  C   UNL     1     -11.587   8.060  72.829  1.00  0.00    -0.390 A  
HETATM   24  C   UNL     1      -9.250   7.562  72.586  1.00  0.00    -0.201 A  
HETATM   25  C   UNL     1     -11.488   9.005  71.804  1.00  0.00    -0.442 A  
HETATM   26  C   UNL     1     -10.467   7.335  73.217  1.00  0.00    -0.416 A  
BRANCH  19  27
HETATM   27  O   UNL     1     -11.415  12.272  69.407  1.00  0.00    -0.271 OA 
BRANCH  27  28
HETATM   28  C   UNL     1     -11.508  12.779  68.105  1.00  0.00    -0.314 A  
HETATM   29  C   UNL     1     -11.580  12.438  65.742  1.00  0.00    -0.449 A  
HETATM   30  C   UNL     1     -11.407  11.923  67.010  1.00  0.00    -0.392 A  
HETATM   31  C   UNL     1     -11.921  13.770  65.553  1.00  0.00    -0.404 A  
HETATM   32  C   UNL     1     -12.068  14.625  66.639  1.00  0.00    -0.229 A  
HETATM   33  C   UNL     1     -12.129  14.072  64.106  1.00  0.00    -0.456 C  
HETATM   34  C   UNL     1     -11.795  12.741  63.405  1.00  0.00    -0.591 C  
HETATM   35  C   UNL     1     -11.854  14.124  67.931  1.00  0.00    -0.405 A  
HETATM   36  C   UNL     1     -11.464  11.683  64.464  1.00  0.00    -0.272 C  
ENDBRANCH  27  28
ENDBRANCH  19  27
ENDBRANCH  12  14
TORSDOF 3
ENDMDL
MODEL       31
REMARK 921   NORMALIZED FREE ENERGY PREDICTED BY IDOCK:   -6.85 KCAL/MOL
REMARK 922        TOTAL FREE ENERGY PREDICTED BY IDOCK:   -8.92 KCAL/MOL
REMARK 923 INTER-LIGAND FREE ENERGY PREDICTED BY IDOCK:   -7.76 KCAL/MOL
REMARK 924 INTRA-LIGAND FREE ENERGY PREDICTED BY IDOCK:   -1.16 KCAL/MOL
REMARK 927      BINDING AFFINITY PREDICTED BY RF-SCORE:    0.00 PKD
ROOT
HETATM    1  C   UNL     1      -8.534  10.603  65.057  1.00  0.00    -0.133 C  
HETATM    2  S   UNL     1      -7.294  11.326  66.206  1.00  0.00     0.075 SA 
HETATM    3  C   UNL     1      -7.189   9.815  67.276  1.00  0.00    -0.086 C  
HETATM    4  C   UNL     1      -5.762   9.661  67.813  1.00  0.00    -0.040 C  
HETATM    5  CA  UNL     1      -7.694   8.652  66.385  1.00  0.00    -0.095 C  
HETATM    6  C   UNL     1      -8.105  10.049  68.494  1.00  0.00    -0.103 C  
HETATM    7  N   UNL     1      -8.731   9.209  65.494  1.00  0.00    -0.169 N  
HETATM    8  C   UNL     1      -6.632   7.982  65.490  1.00  0.00    -0.045 C  
HETATM    9  OXT UNL     1      -5.565   7.533  65.878  1.00  0.00    -0.031 OA 
HETATM   10  O   UNL     1      -7.023   7.847  64.194  1.00  0.00    -0.065 OA 
HETATM   11  C   UNL     1      -9.998   9.439  65.976  1.00  0.00    -0.281 C  
HETATM   12  CA  UNL     1     -10.023  10.875  65.379  1.00  0.00    -0.263 C  
HETATM   13  O   UNL     1     -10.660   8.754  66.721  1.00  0.00    -0.258 OA 
ENDROOT
BRANCH  12  14
HETATM   14  N   UNL     1     -10.287  11.997  66.314  1.00  0.00    -0.217 N  
HETATM   15  C   UNL     1     -11.566  12.459  66.530  1.00  0.00    -0.387 C  
HETATM   16  H   UNL     1      -9.507  12.435  66.805  1.00  0.00     0.000 HD 
HETATM   17  O   UNL     1     -12.532  11.999  65.926  1.00  0.00    -0.337 OA 
HETATM   18  C   UNL     1     -11.703  13.599  67.521  1.00  0.00    -0.406 C  
HETATM   19  C   UNL     1     -11.372  13.090  68.911  1.00  0.00    -0.287 C  
HETATM   20  C   UNL     1     -10.984  14.893  67.095  1.00  0.00    -0.323 A  
HETATM   21  C   UNL     1     -10.893  15.241  65.735  1.00  0.00    -0.363 A  
HETATM   22  O   UNL     1     -10.247  13.033  69.396  1.00  0.00     0.289 OA 
HETATM   23  C   UNL     1     -10.043  17.087  67.636  1.00  0.00    -0.298 A  
HETATM   24  C   UNL     1     -10.363  16.474  65.335  1.00  0.00    -0.246 A  
HETATM   25  C   UNL     1     -10.533  15.840  68.032  1.00  0.00    -0.270 A  
HETATM   26  C   UNL     1      -9.955  17.403  66.286  1.00  0.00    -0.306 A  
BRANCH  19  27
HETATM   27  O   UNL     1     -12.536  12.656  69.540  1.00  0.00    -0.017 OA 
BRANCH  27  28
HETATM   28  C   UNL     1     -12.388  11.432  70.205  1.00  0.00    -0.266 A  
HETATM   29  C   UNL     1     -11.318   9.310  70.438  1.00  0.00    -0.283 A  
HETATM   30  C   UNL     1     -11.500  10.473  69.720  1.00  0.00    -0.365 A  
HETATM   31  C   UNL     1     -11.948   9.118  71.659  1.00  0.00    -0.437 A  
HETATM   32  C   UNL     1     -12.802  10.086  72.176  1.00  0.00    -0.414 A  
HETATM   33  C   UNL     1     -11.537   7.824  72.279  1.00  0.00    -0.390 C  
HETATM   34  C   UNL     1     -10.606   7.195  71.226  1.00  0.00    -0.230 C  
HETATM   35  C   UNL     1     -13.028  11.255  71.436  1.00  0.00    -0.482 A  
HETATM   36  C   UNL     1     -10.448   8.165  70.049  1.00  0.00    -0.231 C  
ENDBRANCH  27  28
ENDBRANCH  19  27
ENDBRANCH  12  14
TORSDOF 3
ENDMDL
MODEL       32
REMARK 921   NORMALIZED FREE ENERGY PREDICTED BY IDOCK:   -6.84 KCAL/MOL
REMARK 922        TOTAL FREE ENERGY PREDICTED BY IDOCK:   -8.92 KCAL/MOL
REMARK 923 INTER-LIGAND FREE ENERGY PREDICTED BY IDOCK:   -7.75 KCAL/MOL
REMARK 924 INTRA-LIGAND FREE ENERGY PREDICTED BY IDOCK:   -1.17 KCAL/MOL
REMARK 927      BINDING AFFINITY PREDICTED BY RF-SCORE:    0.00 PKD
ROOT
HETATM    1  C   UNL     1      -8.858   5.752  70.013  1.00  0.00    -0.135 C  
HETATM    2  S   UNL     1      -7.781   7.099  70.649  1.00  0.00    -0.095 SA 
HETATM    3  C   UNL     1      -8.937   7.574  72.020  1.00  0.00    -0.125 C  
HETATM    4  C   UNL     1      -8.132   8.043  73.235  1.00  0.00    -0.240 C  
HETATM    5  CA  UNL     1      -9.826   6.325  72.251  1.00  0.00    -0.161 C  
HETATM    6  C   UNL     1      -9.758   8.784  71.529  1.00  0.00    -0.361 C  
HETATM    7  N   UNL     1     -10.002   5.670  70.940  1.00  0.00    -0.185 N  
HETATM    8  C   UNL     1      -9.257   5.268  73.219  1.00  0.00    -0.128 C  
HETATM    9  OXT UNL     1      -8.865   5.490  74.354  1.00  0.00    -0.117 OA 
HETATM   10  O   UNL     1      -9.304   4.001  72.726  1.00  0.00    -0.116 OA 
HETATM   11  C   UNL     1     -10.896   6.184  70.032  1.00  0.00    -0.341 C  
HETATM   12  CA  UNL     1      -9.847   6.126  68.884  1.00  0.00    -0.140 C  
HETATM   13  O   UNL     1     -12.002   6.633  70.229  1.00  0.00    -0.387 OA 
ENDROOT
BRANCH  12  14
HETATM   14  N   UNL     1      -9.557   7.391  68.163  1.00  0.00    -0.141 N  
HETATM   15  C   UNL     1     -10.355   7.820  67.127  1.00  0.00    -0.319 C  
HETATM   16  H   UNL     1      -8.751   7.952  68.440  1.00  0.00     0.000 HD 
HETATM   17  O   UNL     1     -11.306   7.157  66.723  1.00  0.00    -0.001 OA 
HETATM   18  C   UNL     1      -9.958   9.136  66.484  1.00  0.00    -0.359 C  
HETATM   19  C   UNL     1     -10.191  10.261  67.475  1.00  0.00    -0.210 C  
HETATM   20  C   UNL     1      -8.574   9.116  65.809  1.00  0.00    -0.171 A  
HETATM   21  C   UNL     1      -8.097   7.942  65.197  1.00  0.00    -0.144 A  
HETATM   22  O   UNL     1      -9.390  10.635  68.324  1.00  0.00    -0.146 OA 
HETATM   23  C   UNL     1      -6.638  10.289  64.877  1.00  0.00    -0.105 A  
HETATM   24  C   UNL     1      -6.905   7.937  64.465  1.00  0.00    -0.062 A  
HETATM   25  C   UNL     1      -7.807  10.283  65.643  1.00  0.00    -0.151 A  
HETATM   26  C   UNL     1      -6.185   9.114  64.291  1.00  0.00    -0.075 A  
BRANCH  19  27
HETATM   27  O   UNL     1     -11.471  10.780  67.301  1.00  0.00    -0.436 OA 
BRANCH  27  28
HETATM   28  C   UNL     1     -11.486  12.034  66.677  1.00  0.00    -0.346 A  
HETATM   29  C   UNL     1     -11.045  14.381  66.719  1.00  0.00    -0.323 A  
HETATM   30  C   UNL     1     -11.095  13.172  67.380  1.00  0.00    -0.301 A  
HETATM   31  C   UNL     1     -11.308  14.461  65.358  1.00  0.00    -0.339 A  
HETATM   32  C   UNL     1     -11.656  13.326  64.635  1.00  0.00    -0.385 A  
HETATM   33  C   UNL     1     -11.116  15.854  64.855  1.00  0.00    -0.400 C  
HETATM   34  C   UNL     1     -10.762  16.653  66.123  1.00  0.00    -0.132 C  
HETATM   35  C   UNL     1     -11.751  12.098  65.305  1.00  0.00    -0.364 A  
HETATM   36  C   UNL     1     -10.695  15.697  67.320  1.00  0.00    -0.305 C  
ENDBRANCH  27  28
ENDBRANCH  19  27
ENDBRANCH  12  14
TORSDOF 3
ENDMDL
MODEL       33
REMARK 921   NORMALIZED FREE ENERGY PREDICTED BY IDOCK:   -6.82 KCAL/MOL
REMARK 922        TOTAL FREE ENERGY PREDICTED BY IDOCK:   -8.89 KCAL/MOL
REMARK 923 INTER-LIGAND FREE ENERGY PREDICTED BY IDOCK:   -8.49 KCAL/MOL
REMARK 924 INTRA-LIGAND FREE ENERGY PREDICTED BY IDOCK:   -0.40 KCAL/MOL
REMARK 927      BINDING AFFINITY PREDICTED BY RF-SCORE:    0.00 PKD
ROOT
HETATM    1  C   UNL     1      -7.843   7.494  68.363  1.00  0.00    -0.122 C  
HETATM    2  S   UNL     1      -8.485   5.773  68.302  1.00  0.00    -0.113 SA 
HETATM    3  C   UNL     1      -9.439   6.029  66.732  1.00  0.00    -0.144 C  
HETATM    4  C   UNL     1      -9.436   4.736  65.910  1.00  0.00    -0.171 C  
HETATM    5  CA  UNL     1      -8.776   7.253  66.051  1.00  0.00    -0.151 C  
HETATM    6  C   UNL     1     -10.904   6.309  67.125  1.00  0.00    -0.460 C  
HETATM    7  N   UNL     1      -8.312   8.150  67.128  1.00  0.00    -0.119 N  
HETATM    8  C   UNL     1      -7.559   6.945  65.155  1.00  0.00    -0.102 C  
HETATM    9  OXT UNL     1      -7.543   6.132  64.243  1.00  0.00    -0.081 OA 
HETATM   10  O   UNL     1      -6.484   7.738  65.410  1.00  0.00    -0.041 OA 
HETATM   11  C   UNL     1      -9.212   8.955  67.784  1.00  0.00    -0.141 C  
HETATM   12  CA  UNL     1      -8.671   8.518  69.176  1.00  0.00    -0.134 C  
HETATM   13  O   UNL     1     -10.139   9.584  67.327  1.00  0.00    -0.187 OA 
ENDROOT
BRANCH  12  14
HETATM   14  N   UNL     1      -9.647   7.943  70.135  1.00  0.00    -0.175 N  
HETATM   15  C   UNL     1      -9.787   8.458  71.405  1.00  0.00    -0.197 C  
HETATM   16  H   UNL     1     -10.224   7.151  69.850  1.00  0.00     0.000 HD 
HETATM   17  O   UNL     1      -9.082   9.378  71.813  1.00  0.00    -0.223 OA 
HETATM   18  C   UNL     1     -10.829   7.791  72.281  1.00  0.00    -0.339 C  
HETATM   19  C   UNL     1     -12.209   8.089  71.726  1.00  0.00    -0.316 C  
HETATM   20  C   UNL     1     -10.539   6.309  72.589  1.00  0.00    -0.243 A  
HETATM   21  C   UNL     1      -9.213   5.857  72.722  1.00  0.00    -0.142 A  
HETATM   22  O   UNL     1     -12.778   7.440  70.855  1.00  0.00    -0.240 OA 
HETATM   23  C   UNL     1     -11.281   4.102  73.345  1.00  0.00    -0.339 A  
HETATM   24  C   UNL     1      -8.931   4.549  73.131  1.00  0.00    -0.119 A  
HETATM   25  C   UNL     1     -11.563   5.395  72.896  1.00  0.00    -0.296 A  
HETATM   26  C   UNL     1      -9.964   3.678  73.459  1.00  0.00    -0.172 A  
BRANCH  19  27
HETATM   27  O   UNL     1     -12.716   9.238  72.325  1.00  0.00    -0.382 OA 
BRANCH  27  28
HETATM   28  C   UNL     1     -12.633  10.375  71.511  1.00  0.00    -0.439 A  
HETATM   29  C   UNL     1     -12.806  12.740  71.222  1.00  0.00    -0.355 A  
HETATM   30  C   UNL     1     -12.970  11.628  72.021  1.00  0.00    -0.365 A  
HETATM   31  C   UNL     1     -12.247  12.632  69.956  1.00  0.00    -0.267 A  
HETATM   32  C   UNL     1     -11.865  11.394  69.452  1.00  0.00    -0.419 A  
HETATM   33  C   UNL     1     -12.100  13.974  69.317  1.00  0.00    -0.380 C  
HETATM   34  C   UNL     1     -12.720  14.937  70.347  1.00  0.00    -0.370 C  
HETATM   35  C   UNL     1     -12.066  10.251  70.239  1.00  0.00    -0.330 A  
HETATM   36  C   UNL     1     -13.154  14.142  71.584  1.00  0.00    -0.425 C  
ENDBRANCH  27  28
ENDBRANCH  19  27
ENDBRANCH  12  14
TORSDOF 3
ENDMDL
MODEL       34
REMARK 921   NORMALIZED FREE ENERGY PREDICTED BY IDOCK:   -6.80 KCAL/MOL
REMARK 922        TOTAL FREE ENERGY PREDICTED BY IDOCK:   -8.87 KCAL/MOL
REMARK 923 INTER-LIGAND FREE ENERGY PREDICTED BY IDOCK:   -7.89 KCAL/MOL
REMARK 924 INTRA-LIGAND FREE ENERGY PREDICTED BY IDOCK:   -0.98 KCAL/MOL
REMARK 927      BINDING AFFINITY PREDICTED BY RF-SCORE:    0.00 PKD
ROOT
HETATM    1  C   UNL     1      -9.203  14.194  66.581  1.00  0.00    -0.252 C  
HETATM    2  S   UNL     1      -9.677  13.008  65.259  1.00  0.00     0.119 SA 
HETATM    3  C   UNL     1     -11.441  13.576  65.181  1.00  0.00    -0.301 C  
HETATM    4  C   UNL     1     -11.954  13.469  63.741  1.00  0.00    -0.475 C  
HETATM    5  CA  UNL     1     -11.433  15.005  65.780  1.00  0.00    -0.236 C  
HETATM    6  C   UNL     1     -12.277  12.597  66.031  1.00  0.00    -0.329 C  
HETATM    7  N   UNL     1     -10.392  15.030  66.827  1.00  0.00    -0.265 N  
HETATM    8  C   UNL     1     -11.116  16.145  64.792  1.00  0.00    -0.333 C  
HETATM    9  OXT UNL     1     -11.692  16.339  63.732  1.00  0.00    -0.969 OA 
HETATM   10  O   UNL     1     -10.166  17.007  65.244  1.00  0.00    -0.601 OA 
HETATM   11  C   UNL     1     -10.645  14.474  68.058  1.00  0.00    -0.237 C  
HETATM   12  CA  UNL     1      -9.304  13.687  68.040  1.00  0.00    -0.208 C  
HETATM   13  O   UNL     1     -11.657  14.529  68.720  1.00  0.00    -0.279 OA 
ENDROOT
BRANCH  12  14
HETATM   14  N   UNL     1      -9.375  12.214  68.208  1.00  0.00    -0.203 N  
HETATM   15  C   UNL     1      -8.346  11.513  68.796  1.00  0.00    -0.069 C  
HETATM   16  H   UNL     1     -10.202  11.712  67.883  1.00  0.00     0.000 HD 
HETATM   17  O   UNL     1      -7.310  12.064  69.158  1.00  0.00    -0.062 OA 
HETATM   18  C   UNL     1      -8.550  10.015  68.923  1.00  0.00    -0.138 C  
HETATM   19  C   UNL     1      -9.653   9.749  69.929  1.00  0.00    -0.235 C  
HETATM   20  C   UNL     1      -8.684   9.281  67.576  1.00  0.00    -0.116 A  
HETATM   21  C   UNL     1      -7.976   9.732  66.446  1.00  0.00    -0.109 A  
HETATM   22  O   UNL     1     -10.852   9.715  69.675  1.00  0.00    -0.230 OA 
HETATM   23  C   UNL     1      -9.350   7.319  66.272  1.00  0.00    -0.160 A  
HETATM   24  C   UNL     1      -7.978   9.005  65.250  1.00  0.00    -0.114 A  
HETATM   25  C   UNL     1      -9.382   8.066  67.453  1.00  0.00    -0.173 A  
HETATM   26  C   UNL     1      -8.651   7.790  65.169  1.00  0.00    -0.023 A  
BRANCH  19  27
HETATM   27  O   UNL     1      -9.101   9.590  71.197  1.00  0.00    -0.239 OA 
BRANCH  27  28
HETATM   28  C   UNL     1      -9.081   8.260  71.635  1.00  0.00    -0.185 A  
HETATM   29  C   UNL     1      -9.321   5.925  71.195  1.00  0.00    -0.170 A  
HETATM   30  C   UNL     1      -9.424   7.229  70.761  1.00  0.00    -0.164 A  
HETATM   31  C   UNL     1      -8.817   5.629  72.455  1.00  0.00    -0.135 A  
HETATM   32  C   UNL     1      -8.428   6.646  73.320  1.00  0.00    -0.128 A  
HETATM   33  C   UNL     1      -8.729   4.154  72.666  1.00  0.00    -0.110 C  
HETATM   34  C   UNL     1      -9.325   3.565  71.374  1.00  0.00    -0.213 C  
HETATM   35  C   UNL     1      -8.568   7.978  72.906  1.00  0.00    -0.256 A  
HETATM   36  C   UNL     1      -9.685   4.708  70.418  1.00  0.00    -0.292 C  
ENDBRANCH  27  28
ENDBRANCH  19  27
ENDBRANCH  12  14
TORSDOF 3
ENDMDL
MODEL       35
REMARK 921   NORMALIZED FREE ENERGY PREDICTED BY IDOCK:   -6.68 KCAL/MOL
REMARK 922        TOTAL FREE ENERGY PREDICTED BY IDOCK:   -8.73 KCAL/MOL
REMARK 923 INTER-LIGAND FREE ENERGY PREDICTED BY IDOCK:   -7.99 KCAL/MOL
REMARK 924 INTRA-LIGAND FREE ENERGY PREDICTED BY IDOCK:   -0.74 KCAL/MOL
REMARK 927      BINDING AFFINITY PREDICTED BY RF-SCORE:    0.00 PKD
ROOT
HETATM    1  C   UNL     1      -7.328   6.389  68.032  1.00  0.00    -0.089 C  
HETATM    2  S   UNL     1      -8.680   5.146  68.120  1.00  0.00    -0.102 SA 
HETATM    3  C   UNL     1      -9.563   5.785  66.619  1.00  0.00    -0.152 C  
HETATM    4  C   UNL     1     -10.224   4.620  65.875  1.00  0.00    -0.303 C  
HETATM    5  CA  UNL     1      -8.489   6.564  65.819  1.00  0.00    -0.148 C  
HETATM    6  C   UNL     1     -10.698   6.706  67.112  1.00  0.00    -0.440 C  
HETATM    7  N   UNL     1      -7.569   7.167  66.803  1.00  0.00    -0.092 N  
HETATM    8  C   UNL     1      -7.635   5.723  64.848  1.00  0.00    -0.088 C  
HETATM    9  OXT UNL     1      -8.077   4.978  63.986  1.00  0.00    -0.105 OA 
HETATM   10  O   UNL     1      -6.299   5.944  64.970  1.00  0.00    -0.035 OA 
HETATM   11  C   UNL     1      -7.939   8.303  67.482  1.00  0.00    -0.110 C  
HETATM   12  CA  UNL     1      -7.523   7.688  68.848  1.00  0.00    -0.096 C  
HETATM   13  O   UNL     1      -8.522   9.278  67.065  1.00  0.00    -0.122 OA 
ENDROOT
BRANCH  12  14
HETATM   14  N   UNL     1      -8.554   7.634  69.914  1.00  0.00    -0.137 N  
HETATM   15  C   UNL     1      -8.603   8.585  70.909  1.00  0.00    -0.158 C  
HETATM   16  H   UNL     1      -9.240   6.878  69.910  1.00  0.00     0.000 HD 
HETATM   17  O   UNL     1      -7.771   9.485  70.986  1.00  0.00    -0.319 OA 
HETATM   18  C   UNL     1      -9.715   8.424  71.928  1.00  0.00    -0.331 C  
HETATM   19  C   UNL     1     -11.048   8.686  71.252  1.00  0.00    -0.272 C  
HETATM   20  C   UNL     1      -9.629   7.128  72.755  1.00  0.00    -0.183 A  
HETATM   21  C   UNL     1      -8.377   6.579  73.090  1.00  0.00    -0.120 A  
HETATM   22  O   UNL     1     -11.714   7.850  70.651  1.00  0.00    -0.256 OA 
HETATM   23  C   UNL     1     -10.659   5.461  74.223  1.00  0.00    -0.232 A  
HETATM   24  C   UNL     1      -8.273   5.480  73.950  1.00  0.00    -0.110 A  
HETATM   25  C   UNL     1     -10.766   6.532  73.331  1.00  0.00    -0.295 A  
HETATM   26  C   UNL     1      -9.412   4.932  74.529  1.00  0.00    -0.143 A  
BRANCH  19  27
HETATM   27  O   UNL     1     -11.382  10.031  71.381  1.00  0.00    -0.339 OA 
BRANCH  27  28
HETATM   28  C   UNL     1     -11.510  10.695  70.155  1.00  0.00    -0.329 A  
HETATM   29  C   UNL     1     -11.831  12.704  68.904  1.00  0.00    -0.345 A  
HETATM   30  C   UNL     1     -11.787  12.061  70.123  1.00  0.00    -0.383 A  
HETATM   31  C   UNL     1     -11.535  12.027  67.729  1.00  0.00    -0.394 A  
HETATM   32  C   UNL     1     -11.213  10.675  67.750  1.00  0.00    -0.383 A  
HETATM   33  C   UNL     1     -11.573  12.948  66.554  1.00  0.00    -0.425 C  
HETATM   34  C   UNL     1     -12.011  14.295  67.161  1.00  0.00    -0.449 C  
HETATM   35  C   UNL     1     -11.206  10.000  68.979  1.00  0.00    -0.180 A  
HETATM   36  C   UNL     1     -12.155  14.140  68.679  1.00  0.00    -0.320 C  
ENDBRANCH  27  28
ENDBRANCH  19  27
ENDBRANCH  12  14
TORSDOF 3
ENDMDL
MODEL       36
REMARK 921   NORMALIZED FREE ENERGY PREDICTED BY IDOCK:   -6.65 KCAL/MOL
REMARK 922        TOTAL FREE ENERGY PREDICTED BY IDOCK:   -8.70 KCAL/MOL
REMARK 923 INTER-LIGAND FREE ENERGY PREDICTED BY IDOCK:   -8.19 KCAL/MOL
REMARK 924 INTRA-LIGAND FREE ENERGY PREDICTED BY IDOCK:   -0.50 KCAL/MOL
REMARK 927      BINDING AFFINITY PREDICTED BY RF-SCORE:    0.00 PKD
ROOT
HETATM    1  C   UNL     1      -9.101  15.122  66.318  1.00  0.00    -0.278 C  
HETATM    2  S   UNL     1     -10.494  15.830  67.287  1.00  0.00    -0.311 SA 
HETATM    3  C   UNL     1      -9.398  16.756  68.462  1.00  0.00    -0.246 C  
HETATM    4  C   UNL     1     -10.077  18.066  68.877  1.00  0.00    -0.352 C  
HETATM    5  CA  UNL     1      -8.047  16.912  67.718  1.00  0.00    -0.181 C  
HETATM    6  C   UNL     1      -9.261  15.897  69.736  1.00  0.00     0.051 C  
HETATM    7  N   UNL     1      -7.871  15.708  66.883  1.00  0.00    -0.233 N  
HETATM    8  C   UNL     1      -7.932  18.136  66.787  1.00  0.00    -0.240 C  
HETATM    9  OXT UNL     1      -8.156  19.293  67.113  1.00  0.00    -0.259 OA 
HETATM   10  O   UNL     1      -7.461  17.833  65.548  1.00  0.00    -0.491 OA 
HETATM   11  C   UNL     1      -7.461  14.529  67.458  1.00  0.00    -0.194 C  
HETATM   12  CA  UNL     1      -8.590  13.727  66.751  1.00  0.00    -0.035 C  
HETATM   13  O   UNL     1      -6.624  14.356  68.314  1.00  0.00    -0.095 OA 
ENDROOT
BRANCH  12  14
HETATM   14  N   UNL     1      -9.510  12.941  67.612  1.00  0.00    -0.190 N  
HETATM   15  C   UNL     1     -10.729  12.506  67.142  1.00  0.00    -0.237 C  
HETATM   16  H   UNL     1      -9.234  12.720  68.569  1.00  0.00     0.000 HD 
HETATM   17  O   UNL     1     -11.128  12.789  66.016  1.00  0.00    -0.274 OA 
HETATM   18  C   UNL     1     -11.566  11.700  68.116  1.00  0.00    -0.389 C  
HETATM   19  C   UNL     1     -10.891  10.364  68.362  1.00  0.00    -0.245 C  
HETATM   20  C   UNL     1     -11.990  12.476  69.377  1.00  0.00    -0.315 A  
HETATM   21  C   UNL     1     -12.250  13.858  69.308  1.00  0.00    -0.319 A  
HETATM   22  O   UNL     1     -10.024  10.152  69.203  1.00  0.00    -0.187 OA 
HETATM   23  C   UNL     1     -12.828  12.517  71.677  1.00  0.00    -0.368 A  
HETATM   24  C   UNL     1     -12.763  14.555  70.408  1.00  0.00    -0.378 A  
HETATM   25  C   UNL     1     -12.277  11.829  70.592  1.00  0.00    -0.443 A  
HETATM   26  C   UNL     1     -13.068  13.882  71.585  1.00  0.00    -0.446 A  
BRANCH  19  27
HETATM   27  O   UNL     1     -11.375   9.421  67.459  1.00  0.00     0.167 OA 
BRANCH  27  28
HETATM   28  C   UNL     1     -10.426   8.459  67.094  1.00  0.00    -0.310 A  
HETATM   29  C   UNL     1      -9.562   6.236  67.231  1.00  0.00    -0.138 A  
HETATM   30  C   UNL     1     -10.460   7.188  67.666  1.00  0.00    -0.306 A  
HETATM   31  C   UNL     1      -8.683   6.507  66.192  1.00  0.00    -0.153 A  
HETATM   32  C   UNL     1      -8.669   7.756  65.582  1.00  0.00    -0.132 A  
HETATM   33  C   UNL     1      -7.869   5.303  65.850  1.00  0.00    -0.103 C  
HETATM   34  C   UNL     1      -8.319   4.253  66.883  1.00  0.00    -0.101 C  
HETATM   35  C   UNL     1      -9.548   8.746  66.043  1.00  0.00    -0.297 A  
HETATM   36  C   UNL     1      -9.427   4.850  67.758  1.00  0.00    -0.168 C  
ENDBRANCH  27  28
ENDBRANCH  19  27
ENDBRANCH  12  14
TORSDOF 3
ENDMDL
MODEL       37
REMARK 921   NORMALIZED FREE ENERGY PREDICTED BY IDOCK:   -6.57 KCAL/MOL
REMARK 922        TOTAL FREE ENERGY PREDICTED BY IDOCK:   -8.60 KCAL/MOL
REMARK 923 INTER-LIGAND FREE ENERGY PREDICTED BY IDOCK:   -7.26 KCAL/MOL
REMARK 924 INTRA-LIGAND FREE ENERGY PREDICTED BY IDOCK:   -1.34 KCAL/MOL
REMARK 927      BINDING AFFINITY PREDICTED BY RF-SCORE:    0.00 PKD
ROOT
HETATM    1  C   UNL     1      -9.221   6.572  66.461  1.00  0.00    -0.157 C  
HETATM    2  S   UNL     1      -7.606   7.190  67.086  1.00  0.00    -0.105 SA 
HETATM    3  C   UNL     1      -7.705   6.261  68.688  1.00  0.00    -0.101 C  
HETATM    4  C   UNL     1      -6.300   5.831  69.123  1.00  0.00    -0.040 C  
HETATM    5  CA  UNL     1      -8.704   5.105  68.424  1.00  0.00    -0.101 C  
HETATM    6  C   UNL     1      -8.227   7.242  69.757  1.00  0.00    -0.130 C  
HETATM    7  N   UNL     1      -9.707   5.610  67.467  1.00  0.00    -0.118 N  
HETATM    8  C   UNL     1      -8.099   3.821  67.820  1.00  0.00    -0.088 C  
HETATM    9  OXT UNL     1      -7.146   3.208  68.278  1.00  0.00    -0.049 OA 
HETATM   10  O   UNL     1      -8.785   3.353  66.743  1.00  0.00    -0.109 OA 
HETATM   11  C   UNL     1     -10.718   6.433  67.903  1.00  0.00    -0.299 C  
HETATM   12  CA  UNL     1     -10.462   7.448  66.753  1.00  0.00    -0.246 C  
HETATM   13  O   UNL     1     -11.368   6.359  68.920  1.00  0.00    -0.341 OA 
ENDROOT
BRANCH  12  14
HETATM   14  N   UNL     1     -10.184   8.855  67.135  1.00  0.00    -0.245 N  
HETATM   15  C   UNL     1     -10.134   9.855  66.189  1.00  0.00    -0.245 C  
HETATM   16  H   UNL     1     -10.027   9.087  68.116  1.00  0.00     0.000 HD 
HETATM   17  O   UNL     1     -10.267   9.620  64.990  1.00  0.00    -0.011 OA 
HETATM   18  C   UNL     1      -9.858  11.251  66.711  1.00  0.00    -0.227 C  
HETATM   19  C   UNL     1     -11.049  11.722  67.524  1.00  0.00    -0.272 C  
HETATM   20  C   UNL     1      -8.483  11.410  67.389  1.00  0.00    -0.143 A  
HETATM   21  C   UNL     1      -7.375  10.672  66.933  1.00  0.00    -0.114 A  
HETATM   22  O   UNL     1     -11.227  11.499  68.716  1.00  0.00    -0.207 OA 
HETATM   23  C   UNL     1      -6.955  12.643  68.851  1.00  0.00    -0.086 A  
HETATM   24  C   UNL     1      -6.093  10.897  67.444  1.00  0.00    -0.055 A  
HETATM   25  C   UNL     1      -8.242  12.389  68.370  1.00  0.00    -0.144 A  
HETATM   26  C   UNL     1      -5.880  11.894  68.390  1.00  0.00    -0.049 A  
BRANCH  19  27
HETATM   27  O   UNL     1     -11.935  12.411  66.699  1.00  0.00    -0.562 OA 
BRANCH  27  28
HETATM   28  C   UNL     1     -11.566  13.743  66.475  1.00  0.00    -0.365 A  
HETATM   29  C   UNL     1     -10.957  15.898  67.305  1.00  0.00    -0.234 A  
HETATM   30  C   UNL     1     -11.394  14.614  67.550  1.00  0.00    -0.361 A  
HETATM   31  C   UNL     1     -10.621  16.305  66.021  1.00  0.00    -0.288 A  
HETATM   32  C   UNL     1     -10.745  15.433  64.945  1.00  0.00    -0.416 A  
HETATM   33  C   UNL     1     -10.103  17.705  66.020  1.00  0.00    -0.263 C  
HETATM   34  C   UNL     1     -10.233  18.143  67.490  1.00  0.00    -0.382 C  
HETATM   35  C   UNL     1     -11.229  14.138  65.176  1.00  0.00    -0.337 A  
HETATM   36  C   UNL     1     -10.762  16.969  68.321  1.00  0.00    -0.372 C  
ENDBRANCH  27  28
ENDBRANCH  19  27
ENDBRANCH  12  14
TORSDOF 3
ENDMDL
MODEL       38
REMARK 921   NORMALIZED FREE ENERGY PREDICTED BY IDOCK:   -6.56 KCAL/MOL
REMARK 922        TOTAL FREE ENERGY PREDICTED BY IDOCK:   -8.59 KCAL/MOL
REMARK 923 INTER-LIGAND FREE ENERGY PREDICTED BY IDOCK:   -7.07 KCAL/MOL
REMARK 924 INTRA-LIGAND FREE ENERGY PREDICTED BY IDOCK:   -1.52 KCAL/MOL
REMARK 927      BINDING AFFINITY PREDICTED BY RF-SCORE:    0.00 PKD
ROOT
HETATM    1  C   UNL     1     -11.688  12.188  66.817  1.00  0.00    -0.305 C  
HETATM    2  S   UNL     1     -10.794  13.185  68.077  1.00  0.00    -0.251 SA 
HETATM    3  C   UNL     1      -9.544  13.847  66.877  1.00  0.00    -0.269 C  
HETATM    4  C   UNL     1      -9.152  15.274  67.275  1.00  0.00    -0.210 C  
HETATM    5  CA  UNL     1     -10.205  13.702  65.483  1.00  0.00    -0.302 C  
HETATM    6  C   UNL     1      -8.276  12.979  67.009  1.00  0.00    -0.071 C  
HETATM    7  N   UNL     1     -11.044  12.488  65.525  1.00  0.00    -0.291 N  
HETATM    8  C   UNL     1     -11.111  14.871  65.045  1.00  0.00    -0.414 C  
HETATM    9  OXT UNL     1     -10.784  16.048  65.029  1.00  0.00    -0.513 OA 
HETATM   10  O   UNL     1     -12.325  14.471  64.579  1.00  0.00    -0.525 OA 
HETATM   11  C   UNL     1     -10.462  11.248  65.419  1.00  0.00    -0.268 C  
HETATM   12  CA  UNL     1     -11.245  10.715  66.653  1.00  0.00     0.148 C  
HETATM   13  O   UNL     1      -9.560  10.895  64.694  1.00  0.00    -0.221 OA 
ENDROOT
BRANCH  12  14
HETATM   14  N   UNL     1     -10.450  10.150  67.772  1.00  0.00    -0.214 N  
HETATM   15  C   UNL     1      -9.990   8.853  67.737  1.00  0.00    -0.192 C  
HETATM   16  H   UNL     1     -10.240  10.734  68.583  1.00  0.00     0.000 HD 
HETATM   17  O   UNL     1     -10.257   8.095  66.808  1.00  0.00    -0.280 OA 
HETATM   18  C   UNL     1      -9.177   8.403  68.936  1.00  0.00    -0.147 C  
HETATM   19  C   UNL     1      -7.855   9.148  68.945  1.00  0.00    -0.094 C  
HETATM   20  C   UNL     1      -9.956   8.410  70.265  1.00  0.00    -0.193 A  
HETATM   21  C   UNL     1     -11.332   8.115  70.284  1.00  0.00    -0.132 A  
HETATM   22  O   UNL     1      -7.665  10.249  69.449  1.00  0.00    -0.117 OA 
HETATM   23  C   UNL     1     -10.001   8.386  72.712  1.00  0.00    -0.285 A  
HETATM   24  C   UNL     1     -12.029   7.985  71.490  1.00  0.00    -0.331 A  
HETATM   25  C   UNL     1      -9.313   8.557  71.507  1.00  0.00    -0.289 A  
HETATM   26  C   UNL     1     -11.360   8.103  72.704  1.00  0.00    -0.450 A  
BRANCH  19  27
HETATM   27  O   UNL     1      -6.897   8.408  68.257  1.00  0.00    -0.063 OA 
BRANCH  27  28
HETATM   28  C   UNL     1      -6.547   8.961  67.019  1.00  0.00    -0.061 A  
HETATM   29  C   UNL     1      -6.755   9.028  64.641  1.00  0.00    -0.077 A  
HETATM   30  C   UNL     1      -7.053   8.416  65.840  1.00  0.00    -0.072 A  
HETATM   31  C   UNL     1      -6.024  10.207  64.603  1.00  0.00    -0.125 A  
HETATM   32  C   UNL     1      -5.552  10.786  65.775  1.00  0.00    -0.145 A  
HETATM   33  C   UNL     1      -5.898  10.717  63.206  1.00  0.00    -0.074 C  
HETATM   34  C   UNL     1      -6.598   9.637  62.359  1.00  0.00    -0.097 C  
HETATM   35  C   UNL     1      -5.812  10.151  66.998  1.00  0.00    -0.050 A  
HETATM   36  C   UNL     1      -7.170   8.561  63.289  1.00  0.00    -0.092 C  
ENDBRANCH  27  28
ENDBRANCH  19  27
ENDBRANCH  12  14
TORSDOF 3
ENDMDL
MODEL       39
REMARK 921   NORMALIZED FREE ENERGY PREDICTED BY IDOCK:   -6.56 KCAL/MOL
REMARK 922        TOTAL FREE ENERGY PREDICTED BY IDOCK:   -8.59 KCAL/MOL
REMARK 923 INTER-LIGAND FREE ENERGY PREDICTED BY IDOCK:   -7.57 KCAL/MOL
REMARK 924 INTRA-LIGAND FREE ENERGY PREDICTED BY IDOCK:   -1.01 KCAL/MOL
REMARK 927      BINDING AFFINITY PREDICTED BY RF-SCORE:    0.00 PKD
ROOT
HETATM    1  C   UNL     1      -9.554   5.304  70.353  1.00  0.00    -0.179 C  
HETATM    2  S   UNL     1      -8.308   6.322  71.241  1.00  0.00    -0.124 SA 
HETATM    3  C   UNL     1      -9.425   6.705  72.672  1.00  0.00    -0.142 C  
HETATM    4  C   UNL     1      -8.599   6.805  73.958  1.00  0.00    -0.165 C  
HETATM    5  CA  UNL     1     -10.500   5.588  72.656  1.00  0.00    -0.215 C  
HETATM    6  C   UNL     1     -10.035   8.098  72.418  1.00  0.00    -0.345 C  
HETATM    7  N   UNL     1     -10.728   5.228  71.243  1.00  0.00    -0.177 N  
HETATM    8  C   UNL     1     -10.131   4.292  73.405  1.00  0.00    -0.142 C  
HETATM    9  OXT UNL     1      -9.749   4.233  74.564  1.00  0.00    -0.115 OA 
HETATM   10  O   UNL     1     -10.353   3.164  72.679  1.00  0.00    -0.158 OA 
HETATM   11  C   UNL     1     -11.503   6.036  70.446  1.00  0.00    -0.164 C  
HETATM   12  CA  UNL     1     -10.437   6.034  69.313  1.00  0.00    -0.264 C  
HETATM   13  O   UNL     1     -12.534   6.606  70.721  1.00  0.00    -0.314 OA 
ENDROOT
BRANCH  12  14
HETATM   14  N   UNL     1      -9.933   7.350  68.849  1.00  0.00    -0.165 N  
HETATM   15  C   UNL     1     -10.279   7.851  67.614  1.00  0.00    -0.226 C  
HETATM   16  H   UNL     1      -9.318   7.894  69.455  1.00  0.00     0.000 HD 
HETATM   17  O   UNL     1     -10.975   7.214  66.827  1.00  0.00    -0.305 OA 
HETATM   18  C   UNL     1      -9.711   9.214  67.266  1.00  0.00    -0.225 C  
HETATM   19  C   UNL     1     -10.350  10.260  68.160  1.00  0.00    -0.177 C  
HETATM   20  C   UNL     1      -8.173   9.254  67.186  1.00  0.00    -0.117 A  
HETATM   21  C   UNL     1      -7.455   8.131  66.732  1.00  0.00    -0.090 A  
HETATM   22  O   UNL     1      -9.956  10.574  69.278  1.00  0.00    -0.212 OA 
HETATM   23  C   UNL     1      -6.069  10.505  67.164  1.00  0.00    -0.055 A  
HETATM   24  C   UNL     1      -6.072   8.190  66.526  1.00  0.00    -0.049 A  
HETATM   25  C   UNL     1      -7.443  10.435  67.410  1.00  0.00    -0.094 A  
HETATM   26  C   UNL     1      -5.383   9.381  66.725  1.00  0.00    -0.042 A  
BRANCH  19  27
HETATM   27  O   UNL     1     -11.479  10.782  67.535  1.00  0.00    -0.475 OA 
BRANCH  27  28
HETATM   28  C   UNL     1     -11.340  12.125  67.163  1.00  0.00    -0.331 A  
HETATM   29  C   UNL     1     -11.113  14.430  67.747  1.00  0.00    -0.299 A  
HETATM   30  C   UNL     1     -11.329  13.125  68.135  1.00  0.00    -0.328 A  
HETATM   31  C   UNL     1     -10.840  14.745  66.423  1.00  0.00    -0.322 A  
HETATM   32  C   UNL     1     -10.805  13.753  65.450  1.00  0.00    -0.312 A  
HETATM   33  C   UNL     1     -10.567  16.205  66.263  1.00  0.00    -0.276 C  
HETATM   34  C   UNL     1     -10.783  16.772  67.679  1.00  0.00    -0.305 C  
HETATM   35  C   UNL     1     -11.064  12.427  65.825  1.00  0.00    -0.351 A  
HETATM   36  C   UNL     1     -11.113  15.623  68.638  1.00  0.00    -0.317 C  
ENDBRANCH  27  28
ENDBRANCH  19  27
ENDBRANCH  12  14
TORSDOF 3
ENDMDL
MODEL       40
REMARK 921   NORMALIZED FREE ENERGY PREDICTED BY IDOCK:   -6.54 KCAL/MOL
REMARK 922        TOTAL FREE ENERGY PREDICTED BY IDOCK:   -8.57 KCAL/MOL
REMARK 923 INTER-LIGAND FREE ENERGY PREDICTED BY IDOCK:   -7.26 KCAL/MOL
REMARK 924 INTRA-LIGAND FREE ENERGY PREDICTED BY IDOCK:   -1.30 KCAL/MOL
REMARK 927      BINDING AFFINITY PREDICTED BY RF-SCORE:    0.00 PKD
ROOT
HETATM    1  C   UNL     1     -11.959  12.901  66.199  1.00  0.00    -0.429 C  
HETATM    2  S   UNL     1     -11.158  13.928  67.496  1.00  0.00    -0.295 SA 
HETATM    3  C   UNL     1      -9.950  14.718  66.332  1.00  0.00    -0.277 C  
HETATM    4  C   UNL     1      -9.674  16.159  66.773  1.00  0.00    -0.255 C  
HETATM    5  CA  UNL     1     -10.582  14.562  64.925  1.00  0.00    -0.427 C  
HETATM    6  C   UNL     1      -8.620  13.946  66.456  1.00  0.00     0.174 C  
HETATM    7  N   UNL     1     -11.326  13.287  64.924  1.00  0.00    -0.307 N  
HETATM    8  C   UNL     1     -11.571  15.669  64.508  1.00  0.00    -0.262 C  
HETATM    9  OXT UNL     1     -11.335  16.868  64.528  1.00  0.00    -1.006 OA 
HETATM   10  O   UNL     1     -12.745  15.191  64.015  1.00  0.00    -0.746 OA 
HETATM   11  C   UNL     1     -10.649  12.098  64.792  1.00  0.00    -0.296 C  
HETATM   12  CA  UNL     1     -11.402  11.472  66.000  1.00  0.00    -0.116 C  
HETATM   13  O   UNL     1      -9.715  11.836  64.069  1.00  0.00    -0.240 OA 
ENDROOT
BRANCH  12  14
HETATM   14  N   UNL     1     -10.578  10.939  67.114  1.00  0.00    -0.240 N  
HETATM   15  C   UNL     1      -9.957   9.714  67.019  1.00  0.00    -0.206 C  
HETATM   16  H   UNL     1     -10.470  11.490  67.966  1.00  0.00     0.000 HD 
HETATM   17  O   UNL     1     -10.096   8.991  66.036  1.00  0.00    -0.278 OA 
HETATM   18  C   UNL     1      -9.132   9.292  68.220  1.00  0.00    -0.128 C  
HETATM   19  C   UNL     1      -7.916  10.192  68.327  1.00  0.00    -0.101 C  
HETATM   20  C   UNL     1      -9.948   9.115  69.515  1.00  0.00    -0.193 A  
HETATM   21  C   UNL     1     -11.276   8.651  69.461  1.00  0.00     0.127 A  
HETATM   22  O   UNL     1      -7.883  11.273  68.903  1.00  0.00    -0.136 OA 
HETATM   23  C   UNL     1     -10.068   8.926  71.952  1.00  0.00    -0.393 A  
HETATM   24  C   UNL     1     -11.990   8.357  70.628  1.00  0.00    -0.032 A  
HETATM   25  C   UNL     1      -9.370   9.259  70.788  1.00  0.00    -0.322 A  
HETATM   26  C   UNL     1     -11.380   8.478  71.872  1.00  0.00    -0.399 A  
BRANCH  19  27
HETATM   27  O   UNL     1      -6.851   9.623  67.634  1.00  0.00    -0.079 OA 
BRANCH  27  28
HETATM   28  C   UNL     1      -6.652   8.269  67.930  1.00  0.00    -0.061 A  
HETATM   29  C   UNL     1      -6.662   5.974  67.268  1.00  0.00    -0.061 A  
HETATM   30  C   UNL     1      -6.941   7.293  66.977  1.00  0.00    -0.081 A  
HETATM   31  C   UNL     1      -6.039   5.621  68.457  1.00  0.00    -0.025 A  
HETATM   32  C   UNL     1      -5.704   6.589  69.397  1.00  0.00    -0.014 A  
HETATM   33  C   UNL     1      -5.773   4.153  68.509  1.00  0.00    -0.021 C  
HETATM   34  C   UNL     1      -6.392   3.624  67.201  1.00  0.00    -0.037 C  
HETATM   35  C   UNL     1      -6.020   7.929  69.132  1.00  0.00    -0.034 A  
HETATM   36  C   UNL     1      -6.945   4.803  66.392  1.00  0.00    -0.067 C  
ENDBRANCH  27  28
ENDBRANCH  19  27
ENDBRANCH  12  14
TORSDOF 3
ENDMDL
MODEL       41
REMARK 921   NORMALIZED FREE ENERGY PREDICTED BY IDOCK:   -6.52 KCAL/MOL
REMARK 922        TOTAL FREE ENERGY PREDICTED BY IDOCK:   -8.54 KCAL/MOL
REMARK 923 INTER-LIGAND FREE ENERGY PREDICTED BY IDOCK:   -7.57 KCAL/MOL
REMARK 924 INTRA-LIGAND FREE ENERGY PREDICTED BY IDOCK:   -0.97 KCAL/MOL
REMARK 927      BINDING AFFINITY PREDICTED BY RF-SCORE:    0.00 PKD
ROOT
HETATM    1  C   UNL     1     -11.073  13.509  68.941  1.00  0.00    -0.267 C  
HETATM    2  S   UNL     1      -9.250  13.610  68.730  1.00  0.00     0.145 SA 
HETATM    3  C   UNL     1      -9.340  14.544  67.130  1.00  0.00    -0.218 C  
HETATM    4  C   UNL     1      -8.158  15.514  67.032  1.00  0.00    -0.272 C  
HETATM    5  CA  UNL     1     -10.744  15.201  67.124  1.00  0.00    -0.310 C  
HETATM    6  C   UNL     1      -9.178  13.518  65.990  1.00  0.00     0.083 C  
HETATM    7  N   UNL     1     -11.657  14.279  67.827  1.00  0.00    -0.334 N  
HETATM    8  C   UNL     1     -10.846  16.571  67.826  1.00  0.00    -0.304 C  
HETATM    9  OXT UNL     1     -10.133  17.536  67.595  1.00  0.00    -0.301 OA 
HETATM   10  O   UNL     1     -11.885  16.657  68.699  1.00  0.00     0.015 OA 
HETATM   11  C   UNL     1     -12.136  13.164  67.182  1.00  0.00    -0.286 C  
HETATM   12  CA  UNL     1     -11.770  12.245  68.382  1.00  0.00    -0.337 C  
HETATM   13  O   UNL     1     -12.514  13.056  66.038  1.00  0.00    -0.463 OA 
ENDROOT
BRANCH  12  14
HETATM   14  N   UNL     1     -10.883  11.087  68.108  1.00  0.00    -0.207 N  
HETATM   15  C   UNL     1     -10.882   9.980  68.927  1.00  0.00    -0.220 C  
HETATM   16  H   UNL     1     -10.263  11.110  67.298  1.00  0.00     0.000 HD 
HETATM   17  O   UNL     1     -11.572   9.923  69.942  1.00  0.00    -0.214 OA 
HETATM   18  C   UNL     1      -9.942   8.859  68.528  1.00  0.00    -0.195 C  
HETATM   19  C   UNL     1     -10.440   8.229  67.241  1.00  0.00    -0.303 C  
HETATM   20  C   UNL     1      -8.451   9.248  68.547  1.00  0.00    -0.123 A  
HETATM   21  C   UNL     1      -7.970  10.175  69.491  1.00  0.00    -0.170 A  
HETATM   22  O   UNL     1     -10.174   8.620  66.110  1.00  0.00    -0.210 OA 
HETATM   23  C   UNL     1      -6.129   8.835  67.892  1.00  0.00    -0.051 A  
HETATM   24  C   UNL     1      -6.602  10.442  69.613  1.00  0.00    -0.085 A  
HETATM   25  C   UNL     1      -7.499   8.598  67.742  1.00  0.00    -0.097 A  
HETATM   26  C   UNL     1      -5.681   9.760  68.825  1.00  0.00    -0.035 A  
BRANCH  19  27
HETATM   27  O   UNL     1     -11.282   7.161  67.538  1.00  0.00    -0.147 OA 
BRANCH  27  28
HETATM   28  C   UNL     1     -10.853   6.400  68.633  1.00  0.00    -0.314 A  
HETATM   29  C   UNL     1     -11.037   5.780  70.932  1.00  0.00    -0.267 A  
HETATM   30  C   UNL     1     -11.423   6.596  69.890  1.00  0.00    -0.414 A  
HETATM   31  C   UNL     1     -10.150   4.732  70.727  1.00  0.00    -0.286 A  
HETATM   32  C   UNL     1      -9.608   4.497  69.469  1.00  0.00    -0.266 A  
HETATM   33  C   UNL     1      -9.947   3.947  71.981  1.00  0.00    -0.241 C  
HETATM   34  C   UNL     1     -10.785   4.707  73.026  1.00  0.00    -0.302 C  
HETATM   35  C   UNL     1      -9.961   5.346  68.410  1.00  0.00    -0.217 A  
HETATM   36  C   UNL     1     -11.505   5.875  72.343  1.00  0.00    -0.358 C  
ENDBRANCH  27  28
ENDBRANCH  19  27
ENDBRANCH  12  14
TORSDOF 3
ENDMDL
MODEL       42
REMARK 921   NORMALIZED FREE ENERGY PREDICTED BY IDOCK:   -6.52 KCAL/MOL
REMARK 922        TOTAL FREE ENERGY PREDICTED BY IDOCK:   -8.53 KCAL/MOL
REMARK 923 INTER-LIGAND FREE ENERGY PREDICTED BY IDOCK:   -7.25 KCAL/MOL
REMARK 924 INTRA-LIGAND FREE ENERGY PREDICTED BY IDOCK:   -1.29 KCAL/MOL
REMARK 927      BINDING AFFINITY PREDICTED BY RF-SCORE:    0.00 PKD
ROOT
HETATM    1  C   UNL     1      -8.321   8.147  69.449  1.00  0.00    -0.123 C  
HETATM    2  S   UNL     1      -8.887   9.030  70.959  1.00  0.00    -0.210 SA 
HETATM    3  C   UNL     1     -10.628   8.401  70.852  1.00  0.00    -0.204 C  
HETATM    4  C   UNL     1     -11.193   8.203  72.262  1.00  0.00    -0.425 C  
HETATM    5  CA  UNL     1     -10.543   7.121  69.982  1.00  0.00    -0.232 C  
HETATM    6  C   UNL     1     -11.474   9.502  70.179  1.00  0.00    -0.205 C  
HETATM    7  N   UNL     1      -9.468   7.339  68.995  1.00  0.00    -0.148 N  
HETATM    8  C   UNL     1     -10.214   5.817  70.738  1.00  0.00    -0.219 C  
HETATM    9  OXT UNL     1     -10.816   5.398  71.715  1.00  0.00    -0.231 OA 
HETATM   10  O   UNL     1      -9.215   5.095  70.163  1.00  0.00    -0.132 OA 
HETATM   11  C   UNL     1      -9.702   8.120  67.888  1.00  0.00    -0.161 C  
HETATM   12  CA  UNL     1      -8.394   8.930  68.116  1.00  0.00    -0.125 C  
HETATM   13  O   UNL     1     -10.687   8.165  67.188  1.00  0.00    -0.316 OA 
ENDROOT
BRANCH  12  14
HETATM   14  N   UNL     1      -8.519  10.404  68.239  1.00  0.00    -0.120 N  
HETATM   15  C   UNL     1      -8.499  11.217  67.128  1.00  0.00    -0.137 C  
HETATM   16  H   UNL     1      -8.621  10.824  69.164  1.00  0.00     0.000 HD 
HETATM   17  O   UNL     1      -8.329  10.766  65.998  1.00  0.00    -0.156 OA 
HETATM   18  C   UNL     1      -8.652  12.703  67.388  1.00  0.00    -0.189 C  
HETATM   19  C   UNL     1     -10.058  12.978  67.886  1.00  0.00    -0.235 C  
HETATM   20  C   UNL     1      -7.515  13.316  68.228  1.00  0.00    -0.126 A  
HETATM   21  C   UNL     1      -6.202  12.822  68.116  1.00  0.00    -0.088 A  
HETATM   22  O   UNL     1     -10.422  12.912  69.055  1.00  0.00    -0.134 OA 
HETATM   23  C   UNL     1      -6.629  15.118  69.628  1.00  0.00    -0.173 A  
HETATM   24  C   UNL     1      -5.133  13.448  68.767  1.00  0.00    -0.072 A  
HETATM   25  C   UNL     1      -7.702  14.468  69.012  1.00  0.00    -0.113 A  
HETATM   26  C   UNL     1      -5.344  14.605  69.509  1.00  0.00    -0.091 A  
BRANCH  19  27
HETATM   27  O   UNL     1     -10.886  13.275  66.807  1.00  0.00    -0.277 OA 
BRANCH  27  28
HETATM   28  C   UNL     1     -10.920  14.638  66.488  1.00  0.00    -0.318 A  
HETATM   29  C   UNL     1     -10.785  16.930  67.147  1.00  0.00    -0.180 A  
HETATM   30  C   UNL     1     -10.828  15.597  67.496  1.00  0.00    -0.316 A  
HETATM   31  C   UNL     1     -10.762  17.318  65.814  1.00  0.00    -0.132 A  
HETATM   32  C   UNL     1     -10.808  16.370  64.798  1.00  0.00    -0.197 A  
HETATM   33  C   UNL     1     -10.637  18.801  65.688  1.00  0.00    -0.202 C  
HETATM   34  C   UNL     1     -10.660  19.293  67.148  1.00  0.00    -0.575 C  
HETATM   35  C   UNL     1     -10.894  15.013  65.140  1.00  0.00    -0.422 A  
HETATM   36  C   UNL     1     -10.733  18.083  68.087  1.00  0.00    -0.267 C  
ENDBRANCH  27  28
ENDBRANCH  19  27
ENDBRANCH  12  14
TORSDOF 3
ENDMDL
MODEL       43
REMARK 921   NORMALIZED FREE ENERGY PREDICTED BY IDOCK:   -6.47 KCAL/MOL
REMARK 922        TOTAL FREE ENERGY PREDICTED BY IDOCK:   -8.48 KCAL/MOL
REMARK 923 INTER-LIGAND FREE ENERGY PREDICTED BY IDOCK:   -7.63 KCAL/MOL
REMARK 924 INTRA-LIGAND FREE ENERGY PREDICTED BY IDOCK:   -0.85 KCAL/MOL
REMARK 927      BINDING AFFINITY PREDICTED BY RF-SCORE:    0.00 PKD
ROOT
HETATM    1  C   UNL     1      -7.850   7.614  67.879  1.00  0.00    -0.117 C  
HETATM    2  S   UNL     1      -8.889   6.284  68.607  1.00  0.00    -0.118 SA 
HETATM    3  C   UNL     1      -9.541   5.698  66.972  1.00  0.00    -0.136 C  
HETATM    4  C   UNL     1      -9.758   4.182  67.016  1.00  0.00    -0.230 C  
HETATM    5  CA  UNL     1      -8.511   6.194  65.925  1.00  0.00    -0.145 C  
HETATM    6  C   UNL     1     -10.927   6.345  66.772  1.00  0.00    -0.321 C  
HETATM    7  N   UNL     1      -7.979   7.480  66.417  1.00  0.00    -0.104 N  
HETATM    8  C   UNL     1      -7.307   5.263  65.676  1.00  0.00    -0.076 C  
HETATM    9  OXT UNL     1      -7.380   4.077  65.391  1.00  0.00    -0.073 OA 
HETATM   10  O   UNL     1      -6.109   5.905  65.717  1.00  0.00    -0.030 OA 
HETATM   11  C   UNL     1      -8.723   8.627  66.282  1.00  0.00    -0.143 C  
HETATM   12  CA  UNL     1      -8.491   9.017  67.770  1.00  0.00    -0.117 C  
HETATM   13  O   UNL     1      -9.397   8.986  65.344  1.00  0.00    -0.218 OA 
ENDROOT
BRANCH  12  14
HETATM   14  N   UNL     1      -9.694   9.246  68.610  1.00  0.00    -0.148 N  
HETATM   15  C   UNL     1      -9.608   9.917  69.809  1.00  0.00    -0.231 C  
HETATM   16  H   UNL     1     -10.599   8.899  68.293  1.00  0.00     0.000 HD 
HETATM   17  O   UNL     1      -8.534  10.310  70.257  1.00  0.00     0.031 OA 
HETATM   18  C   UNL     1     -10.912  10.098  70.563  1.00  0.00    -0.380 C  
HETATM   19  C   UNL     1     -11.802  11.054  69.792  1.00  0.00    -0.347 C  
HETATM   20  C   UNL     1     -11.574   8.778  71.004  1.00  0.00    -0.337 A  
HETATM   21  C   UNL     1     -10.782   7.669  71.359  1.00  0.00    -0.247 A  
HETATM   22  O   UNL     1     -12.569  10.737  68.891  1.00  0.00    -0.283 OA 
HETATM   23  C   UNL     1     -13.529   7.527  71.780  1.00  0.00    -0.381 A  
HETATM   24  C   UNL     1     -11.357   6.508  71.888  1.00  0.00    -0.327 A  
HETATM   25  C   UNL     1     -12.960   8.671  71.214  1.00  0.00    -0.211 A  
HETATM   26  C   UNL     1     -12.727   6.443  72.114  1.00  0.00    -0.038 A  
BRANCH  19  27
HETATM   27  O   UNL     1     -11.585  12.356  70.236  1.00  0.00    -0.180 OA 
BRANCH  27  28
HETATM   28  C   UNL     1     -11.330  13.264  69.201  1.00  0.00    -0.282 A  
HETATM   29  C   UNL     1     -10.710  13.714  66.939  1.00  0.00    -0.275 A  
HETATM   30  C   UNL     1     -10.878  12.807  67.963  1.00  0.00    -0.254 A  
HETATM   31  C   UNL     1     -11.049  15.050  67.105  1.00  0.00    -0.332 A  
HETATM   32  C   UNL     1     -11.543  15.510  68.320  1.00  0.00    -0.344 A  
HETATM   33  C   UNL     1     -10.853  15.816  65.838  1.00  0.00    -0.272 C  
HETATM   34  C   UNL     1     -10.266  14.772  64.869  1.00  0.00    -0.310 C  
HETATM   35  C   UNL     1     -11.679  14.606  69.383  1.00  0.00    -0.355 A  
HETATM   36  C   UNL     1     -10.196  13.413  65.574  1.00  0.00    -0.300 C  
ENDBRANCH  27  28
ENDBRANCH  19  27
ENDBRANCH  12  14
TORSDOF 3
ENDMDL
MODEL       44
REMARK 921   NORMALIZED FREE ENERGY PREDICTED BY IDOCK:   -6.46 KCAL/MOL
REMARK 922        TOTAL FREE ENERGY PREDICTED BY IDOCK:   -8.46 KCAL/MOL
REMARK 923 INTER-LIGAND FREE ENERGY PREDICTED BY IDOCK:   -7.51 KCAL/MOL
REMARK 924 INTRA-LIGAND FREE ENERGY PREDICTED BY IDOCK:   -0.96 KCAL/MOL
REMARK 927      BINDING AFFINITY PREDICTED BY RF-SCORE:    0.00 PKD
ROOT
HETATM    1  C   UNL     1      -9.425  12.243  68.376  1.00  0.00    -0.175 C  
HETATM    2  S   UNL     1      -8.959  12.425  66.608  1.00  0.00    -0.143 SA 
HETATM    3  C   UNL     1     -10.627  13.038  66.079  1.00  0.00    -0.279 C  
HETATM    4  C   UNL     1     -10.468  14.050  64.940  1.00  0.00    -0.453 C  
HETATM    5  CA  UNL     1     -11.284  13.588  67.371  1.00  0.00    -0.295 C  
HETATM    6  C   UNL     1     -11.400  11.832  65.506  1.00  0.00    -0.283 C  
HETATM    7  N   UNL     1     -10.804  12.753  68.490  1.00  0.00    -0.246 N  
HETATM    8  C   UNL     1     -10.955  15.054  67.719  1.00  0.00    -0.298 C  
HETATM    9  OXT UNL     1     -11.090  16.005  66.964  1.00  0.00    -0.222 OA 
HETATM   10  O   UNL     1     -10.566  15.230  69.011  1.00  0.00    -0.227 OA 
HETATM   11  C   UNL     1     -11.348  11.508  68.699  1.00  0.00    -0.269 C  
HETATM   12  CA  UNL     1      -9.942  10.854  68.821  1.00  0.00    -0.195 C  
HETATM   13  O   UNL     1     -12.506  11.165  68.618  1.00  0.00    -0.463 OA 
ENDROOT
BRANCH  12  14
HETATM   14  N   UNL     1      -9.634   9.727  67.906  1.00  0.00    -0.138 N  
HETATM   15  C   UNL     1      -8.634   8.826  68.197  1.00  0.00    -0.134 C  
HETATM   16  H   UNL     1     -10.172   9.617  67.046  1.00  0.00     0.000 HD 
HETATM   17  O   UNL     1      -7.926   8.942  69.194  1.00  0.00    -0.101 OA 
HETATM   18  C   UNL     1      -8.430   7.711  67.188  1.00  0.00    -0.121 C  
HETATM   19  C   UNL     1      -9.632   6.786  67.222  1.00  0.00    -0.137 C  
HETATM   20  C   UNL     1      -8.000   8.196  65.791  1.00  0.00    -0.105 A  
HETATM   21  C   UNL     1      -7.184   9.335  65.653  1.00  0.00    -0.090 A  
HETATM   22  O   UNL     1     -10.664   6.942  66.580  1.00  0.00    -0.246 OA 
HETATM   23  C   UNL     1      -7.725   7.810  63.389  1.00  0.00    -0.135 A  
HETATM   24  C   UNL     1      -6.674   9.715  64.407  1.00  0.00    -0.111 A  
HETATM   25  C   UNL     1      -8.268   7.454  64.627  1.00  0.00    -0.043 A  
HETATM   26  C   UNL     1      -6.930   8.943  63.279  1.00  0.00    -0.089 A  
BRANCH  19  27
HETATM   27  O   UNL     1      -9.401   5.753  68.126  1.00  0.00    -0.109 OA 
BRANCH  27  28
HETATM   28  C   UNL     1      -9.891   6.016  69.411  1.00  0.00    -0.163 A  
HETATM   29  C   UNL     1      -9.514   6.482  71.723  1.00  0.00    -0.155 A  
HETATM   30  C   UNL     1      -9.011   6.147  70.484  1.00  0.00    -0.148 A  
HETATM   31  C   UNL     1     -10.864   6.757  71.895  1.00  0.00    -0.261 A  
HETATM   32  C   UNL     1     -11.746   6.674  70.824  1.00  0.00    -0.445 A  
HETATM   33  C   UNL     1     -11.154   7.170  73.300  1.00  0.00    -0.252 C  
HETATM   34  C   UNL     1      -9.791   7.042  74.006  1.00  0.00    -0.345 C  
HETATM   35  C   UNL     1     -11.254   6.293  69.567  1.00  0.00    -0.500 A  
HETATM   36  C   UNL     1      -8.731   6.620  72.982  1.00  0.00    -0.130 C  
ENDBRANCH  27  28
ENDBRANCH  19  27
ENDBRANCH  12  14
TORSDOF 3
ENDMDL
MODEL       45
REMARK 921   NORMALIZED FREE ENERGY PREDICTED BY IDOCK:   -6.45 KCAL/MOL
REMARK 922        TOTAL FREE ENERGY PREDICTED BY IDOCK:   -8.46 KCAL/MOL
REMARK 923 INTER-LIGAND FREE ENERGY PREDICTED BY IDOCK:   -7.27 KCAL/MOL
REMARK 924 INTRA-LIGAND FREE ENERGY PREDICTED BY IDOCK:   -1.19 KCAL/MOL
REMARK 927      BINDING AFFINITY PREDICTED BY RF-SCORE:    0.00 PKD
ROOT
HETATM    1  C   UNL     1      -7.983   3.956  68.158  1.00  0.00    -0.076 C  
HETATM    2  S   UNL     1      -9.597   4.057  67.283  1.00  0.00    -0.156 SA 
HETATM    3  C   UNL     1      -8.839   4.307  65.609  1.00  0.00    -0.123 C  
HETATM    4  C   UNL     1      -9.712   3.637  64.542  1.00  0.00    -0.178 C  
HETATM    5  CA  UNL     1      -7.396   3.755  65.731  1.00  0.00    -0.072 C  
HETATM    6  C   UNL     1      -8.856   5.822  65.319  1.00  0.00    -0.057 C  
HETATM    7  N   UNL     1      -6.946   4.022  67.112  1.00  0.00    -0.061 N  
HETATM    8  C   UNL     1      -7.232   2.243  65.480  1.00  0.00    -0.057 C  
HETATM    9  OXT UNL     1      -7.629   1.646  64.490  1.00  0.00    -0.057 OA 
HETATM   10  O   UNL     1      -6.510   1.608  66.442  1.00  0.00    -0.023 OA 
HETATM   11  C   UNL     1      -6.533   5.284  67.467  1.00  0.00    -0.052 C  
HETATM   12  CA  UNL     1      -7.424   5.276  68.742  1.00  0.00    -0.074 C  
HETATM   13  O   UNL     1      -5.858   6.065  66.836  1.00  0.00    -0.016 OA 
ENDROOT
BRANCH  12  14
HETATM   14  N   UNL     1      -8.404   6.380  68.895  1.00  0.00    -0.120 N  
HETATM   15  C   UNL     1      -7.993   7.665  69.171  1.00  0.00    -0.120 C  
HETATM   16  H   UNL     1      -9.400   6.184  68.796  1.00  0.00     0.000 HD 
HETATM   17  O   UNL     1      -6.809   7.943  69.349  1.00  0.00    -0.046 OA 
HETATM   18  C   UNL     1      -9.092   8.704  69.288  1.00  0.00    -0.149 C  
HETATM   19  C   UNL     1      -9.718   8.918  67.923  1.00  0.00    -0.160 C  
HETATM   20  C   UNL     1     -10.078   8.450  70.443  1.00  0.00    -0.202 A  
HETATM   21  C   UNL     1      -9.635   7.857  71.640  1.00  0.00    -0.206 A  
HETATM   22  O   UNL     1     -10.635   8.254  67.452  1.00  0.00    -0.284 OA 
HETATM   23  C   UNL     1     -12.233   8.847  71.535  1.00  0.00    -0.388 A  
HETATM   24  C   UNL     1     -10.481   7.739  72.748  1.00  0.00    -0.390 A  
HETATM   25  C   UNL     1     -11.401   8.927  70.415  1.00  0.00    -0.229 A  
HETATM   26  C   UNL     1     -11.774   8.249  72.701  1.00  0.00    -0.406 A  
BRANCH  19  27
HETATM   27  O   UNL     1      -9.066   9.958  67.267  1.00  0.00    -0.134 OA 
BRANCH  27  28
HETATM   28  C   UNL     1      -9.927  10.979  66.844  1.00  0.00    -0.196 A  
HETATM   29  C   UNL     1     -11.001  12.199  65.094  1.00  0.00    -0.355 A  
HETATM   30  C   UNL     1     -10.089  11.241  65.485  1.00  0.00    -0.306 A  
HETATM   31  C   UNL     1     -11.800  12.846  66.027  1.00  0.00    -0.485 A  
HETATM   32  C   UNL     1     -11.680  12.562  67.382  1.00  0.00    -0.432 A  
HETATM   33  C   UNL     1     -12.757  13.778  65.360  1.00  0.00    -0.513 C  
HETATM   34  C   UNL     1     -12.388  13.673  63.868  1.00  0.00    -0.375 C  
HETATM   35  C   UNL     1     -10.727  11.620  67.796  1.00  0.00    -0.244 A  
HETATM   36  C   UNL     1     -11.270  12.638  63.697  1.00  0.00    -0.525 C  
ENDBRANCH  27  28
ENDBRANCH  19  27
ENDBRANCH  12  14
TORSDOF 3
ENDMDL
MODEL       46
REMARK 921   NORMALIZED FREE ENERGY PREDICTED BY IDOCK:   -6.43 KCAL/MOL
REMARK 922        TOTAL FREE ENERGY PREDICTED BY IDOCK:   -8.43 KCAL/MOL
REMARK 923 INTER-LIGAND FREE ENERGY PREDICTED BY IDOCK:   -7.96 KCAL/MOL
REMARK 924 INTRA-LIGAND FREE ENERGY PREDICTED BY IDOCK:   -0.47 KCAL/MOL
REMARK 927      BINDING AFFINITY PREDICTED BY RF-SCORE:    0.00 PKD
ROOT
HETATM    1  C   UNL     1      -8.605  12.389  66.899  1.00  0.00    -0.171 C  
HETATM    2  S   UNL     1      -9.407  11.710  68.407  1.00  0.00    -0.170 SA 
HETATM    3  C   UNL     1     -10.713  10.783  67.473  1.00  0.00    -0.264 C  
HETATM    4  C   UNL     1     -11.057   9.487  68.214  1.00  0.00    -0.047 C  
HETATM    5  CA  UNL     1     -10.138  10.601  66.045  1.00  0.00    -0.250 C  
HETATM    6  C   UNL     1     -11.986  11.654  67.476  1.00  0.00    -0.044 C  
HETATM    7  N   UNL     1      -9.318  11.794  65.754  1.00  0.00    -0.218 N  
HETATM    8  C   UNL     1      -9.239   9.366  65.837  1.00  0.00    -0.213 C  
HETATM    9  OXT UNL     1      -9.546   8.216  66.114  1.00  0.00    -0.195 OA 
HETATM   10  O   UNL     1      -8.062   9.649  65.218  1.00  0.00    -0.117 OA 
HETATM   11  C   UNL     1      -9.927  12.974  65.398  1.00  0.00    -0.188 C  
HETATM   12  CA  UNL     1      -9.082  13.782  66.424  1.00  0.00    -0.059 C  
HETATM   13  O   UNL     1     -10.875  13.146  64.667  1.00  0.00    -0.325 OA 
ENDROOT
BRANCH  12  14
HETATM   14  N   UNL     1      -9.819  14.589  67.428  1.00  0.00    -0.225 N  
HETATM   15  C   UNL     1      -9.220  14.987  68.602  1.00  0.00    -0.198 C  
HETATM   16  H   UNL     1     -10.788  14.854  67.245  1.00  0.00     0.000 HD 
HETATM   17  O   UNL     1      -8.074  14.653  68.891  1.00  0.00    -0.151 OA 
HETATM   18  C   UNL     1     -10.077  15.821  69.536  1.00  0.00    -0.279 C  
HETATM   19  C   UNL     1     -10.329  17.176  68.900  1.00  0.00    -0.348 C  
HETATM   20  C   UNL     1     -11.325  15.091  70.068  1.00  0.00    -0.305 A  
HETATM   21  C   UNL     1     -11.290  13.704  70.306  1.00  0.00     0.085 A  
HETATM   22  O   UNL     1     -11.237  17.434  68.118  1.00  0.00    -0.156 OA 
HETATM   23  C   UNL     1     -13.536  15.132  71.117  1.00  0.00    -0.533 A  
HETATM   24  C   UNL     1     -12.365  13.045  70.912  1.00  0.00    -0.376 A  
HETATM   25  C   UNL     1     -12.479  15.783  70.474  1.00  0.00    -0.371 A  
HETATM   26  C   UNL     1     -13.480  13.761  71.333  1.00  0.00    -0.296 A  
BRANCH  19  27
HETATM   27  O   UNL     1      -9.346  18.073  69.308  1.00  0.00    -0.026 OA 
BRANCH  27  28
HETATM   28  C   UNL     1      -8.656  18.667  68.243  1.00  0.00    -0.321 A  
HETATM   29  C   UNL     1      -6.995  18.567  66.530  1.00  0.00    -0.241 A  
HETATM   30  C   UNL     1      -7.605  17.992  67.625  1.00  0.00    -0.219 A  
HETATM   31  C   UNL     1      -7.459  19.764  66.002  1.00  0.00    -0.330 A  
HETATM   32  C   UNL     1      -8.535  20.426  66.581  1.00  0.00    -0.232 A  
HETATM   33  C   UNL     1      -6.691  20.144  64.779  1.00  0.00    -0.225 C  
HETATM   34  C   UNL     1      -5.623  19.040  64.661  1.00  0.00    -0.296 C  
HETATM   35  C   UNL     1      -9.137  19.872  67.720  1.00  0.00    -0.418 A  
HETATM   36  C   UNL     1      -5.835  18.012  65.778  1.00  0.00    -0.238 C  
ENDBRANCH  27  28
ENDBRANCH  19  27
ENDBRANCH  12  14
TORSDOF 3
ENDMDL
MODEL       47
REMARK 921   NORMALIZED FREE ENERGY PREDICTED BY IDOCK:   -6.40 KCAL/MOL
REMARK 922        TOTAL FREE ENERGY PREDICTED BY IDOCK:   -8.40 KCAL/MOL
REMARK 923 INTER-LIGAND FREE ENERGY PREDICTED BY IDOCK:   -7.18 KCAL/MOL
REMARK 924 INTRA-LIGAND FREE ENERGY PREDICTED BY IDOCK:   -1.22 KCAL/MOL
REMARK 927      BINDING AFFINITY PREDICTED BY RF-SCORE:    0.00 PKD
ROOT
HETATM    1  C   UNL     1      -8.708  14.369  66.975  1.00  0.00    -0.223 C  
HETATM    2  S   UNL     1     -10.437  14.054  67.515  1.00  0.00    -0.253 SA 
HETATM    3  C   UNL     1     -10.469  15.459  68.725  1.00  0.00    -0.231 C  
HETATM    4  C   UNL     1     -11.878  16.061  68.780  1.00  0.00    -0.210 C  
HETATM    5  CA  UNL     1      -9.351  16.424  68.255  1.00  0.00    -0.210 C  
HETATM    6  C   UNL     1     -10.176  14.871  70.120  1.00  0.00     0.099 C  
HETATM    7  N   UNL     1      -8.277  15.592  67.676  1.00  0.00    -0.144 N  
HETATM    8  C   UNL     1      -9.761  17.454  67.183  1.00  0.00    -0.267 C  
HETATM    9  OXT UNL     1     -10.710  18.219  67.268  1.00  0.00    -0.404 OA 
HETATM   10  O   UNL     1      -8.903  17.511  66.129  1.00  0.00    -0.448 OA 
HETATM   11  C   UNL     1      -7.406  14.925  68.502  1.00  0.00    -0.119 C  
HETATM   12  CA  UNL     1      -7.594  13.595  67.719  1.00  0.00    -0.164 C  
HETATM   13  O   UNL     1      -6.889  15.310  69.527  1.00  0.00    -0.153 OA 
ENDROOT
BRANCH  12  14
HETATM   14  N   UNL     1      -8.037  12.406  68.490  1.00  0.00    -0.266 N  
HETATM   15  C   UNL     1      -8.343  11.221  67.860  1.00  0.00    -0.131 C  
HETATM   16  H   UNL     1      -8.118  12.469  69.505  1.00  0.00     0.000 HD 
HETATM   17  O   UNL     1      -8.310  11.109  66.637  1.00  0.00    -0.149 OA 
HETATM   18  C   UNL     1      -8.767  10.078  68.763  1.00  0.00    -0.136 C  
HETATM   19  C   UNL     1      -7.577   9.633  69.592  1.00  0.00    -0.114 C  
HETATM   20  C   UNL     1     -10.066  10.344  69.547  1.00  0.00    -0.246 A  
HETATM   21  C   UNL     1     -11.093  11.122  68.980  1.00  0.00    -0.299 A  
HETATM   22  O   UNL     1      -7.237  10.123  70.663  1.00  0.00    -0.317 OA 
HETATM   23  C   UNL     1     -11.591   9.822  71.389  1.00  0.00    -0.452 A  
HETATM   24  C   UNL     1     -12.331  11.265  69.618  1.00  0.00    -0.262 A  
HETATM   25  C   UNL     1     -10.342   9.712  70.773  1.00  0.00    -0.356 A  
HETATM   26  C   UNL     1     -12.585  10.602  70.813  1.00  0.00    -0.479 A  
BRANCH  19  27
HETATM   27  O   UNL     1      -6.904   8.610  68.932  1.00  0.00    -0.059 OA 
BRANCH  27  28
HETATM   28  C   UNL     1      -7.716   7.509  68.633  1.00  0.00    -0.119 A  
HETATM   29  C   UNL     1      -8.582   5.931  67.062  1.00  0.00    -0.110 A  
HETATM   30  C   UNL     1      -7.838   7.064  67.317  1.00  0.00    -0.110 A  
HETATM   31  C   UNL     1      -9.144   5.198  68.099  1.00  0.00    -0.125 A  
HETATM   32  C   UNL     1      -8.993   5.605  69.419  1.00  0.00    -0.124 A  
HETATM   33  C   UNL     1      -9.833   3.978  67.582  1.00  0.00    -0.102 C  
HETATM   34  C   UNL     1      -9.681   4.094  66.054  1.00  0.00    -0.212 C  
HETATM   35  C   UNL     1      -8.274   6.779  69.688  1.00  0.00    -0.131 A  
HETATM   36  C   UNL     1      -8.855   5.342  65.722  1.00  0.00    -0.151 C  
ENDBRANCH  27  28
ENDBRANCH  19  27
ENDBRANCH  12  14
TORSDOF 3
ENDMDL
MODEL       48
REMARK 921   NORMALIZED FREE ENERGY PREDICTED BY IDOCK:   -6.36 KCAL/MOL
REMARK 922        TOTAL FREE ENERGY PREDICTED BY IDOCK:   -8.36 KCAL/MOL
REMARK 923 INTER-LIGAND FREE ENERGY PREDICTED BY IDOCK:   -7.02 KCAL/MOL
REMARK 924 INTRA-LIGAND FREE ENERGY PREDICTED BY IDOCK:   -1.34 KCAL/MOL
REMARK 927      BINDING AFFINITY PREDICTED BY RF-SCORE:    0.00 PKD
ROOT
HETATM    1  C   UNL     1     -11.636  12.550  66.758  1.00  0.00    -0.382 C  
HETATM    2  S   UNL     1     -10.721  13.494  68.043  1.00  0.00    -0.258 SA 
HETATM    3  C   UNL     1      -9.449  14.151  66.864  1.00  0.00    -0.267 C  
HETATM    4  C   UNL     1      -9.021  15.557  67.297  1.00  0.00    -0.216 C  
HETATM    5  CA  UNL     1     -10.107  14.056  65.464  1.00  0.00    -0.320 C  
HETATM    6  C   UNL     1      -8.205  13.246  66.980  1.00  0.00    -0.058 C  
HETATM    7  N   UNL     1     -10.978  12.864  65.476  1.00  0.00    -0.272 N  
HETATM    8  C   UNL     1     -10.980  15.258  65.051  1.00  0.00    -0.437 C  
HETATM    9  OXT UNL     1     -10.622  16.426  65.063  1.00  0.00    -0.651 OA 
HETATM   10  O   UNL     1     -12.202  14.901  64.571  1.00  0.00    -0.456 OA 
HETATM   11  C   UNL     1     -10.429  11.612  65.343  1.00  0.00    -0.275 C  
HETATM   12  CA  UNL     1     -11.231  11.070  66.560  1.00  0.00    -0.005 C  
HETATM   13  O   UNL     1      -9.534  11.251  64.613  1.00  0.00    -0.226 OA 
ENDROOT
BRANCH  12  14
HETATM   14  N   UNL     1     -10.456  10.459  67.669  1.00  0.00    -0.215 N  
HETATM   15  C   UNL     1     -10.010   9.159  67.595  1.00  0.00    -0.195 C  
HETATM   16  H   UNL     1     -10.251  11.012  68.502  1.00  0.00     0.000 HD 
HETATM   17  O   UNL     1     -10.273   8.436  66.637  1.00  0.00    -0.285 OA 
HETATM   18  C   UNL     1      -9.216   8.659  68.788  1.00  0.00    -0.142 C  
HETATM   19  C   UNL     1      -7.887   9.388  68.839  1.00  0.00    -0.083 C  
HETATM   20  C   UNL     1     -10.012   8.629  70.106  1.00  0.00    -0.193 A  
HETATM   21  C   UNL     1     -11.392   8.349  70.098  1.00  0.00    -0.065 A  
HETATM   22  O   UNL     1      -7.692  10.470  69.382  1.00  0.00    -0.141 OA 
HETATM   23  C   UNL     1     -10.088   8.521  72.551  1.00  0.00    -0.320 A  
HETATM   24  C   UNL     1     -12.106   8.185  71.291  1.00  0.00    -0.313 A  
HETATM   25  C   UNL     1      -9.384   8.726  71.361  1.00  0.00    -0.328 A  
HETATM   26  C   UNL     1     -11.451   8.254  72.516  1.00  0.00    -0.454 A  
BRANCH  19  27
HETATM   27  O   UNL     1      -6.928   8.662  68.138  1.00  0.00    -0.071 OA 
BRANCH  27  28
HETATM   28  C   UNL     1      -6.804   7.336  68.572  1.00  0.00    -0.073 A  
HETATM   29  C   UNL     1      -6.229   5.749  70.262  1.00  0.00    -0.027 A  
HETATM   30  C   UNL     1      -6.269   7.058  69.829  1.00  0.00    -0.034 A  
HETATM   31  C   UNL     1      -6.777   4.728  69.498  1.00  0.00    -0.044 A  
HETATM   32  C   UNL     1      -7.354   4.997  68.262  1.00  0.00    -0.074 A  
HETATM   33  C   UNL     1      -6.684   3.417  70.207  1.00  0.00    -0.033 C  
HETATM   34  C   UNL     1      -5.927   3.758  71.505  1.00  0.00    -0.013 C  
HETATM   35  C   UNL     1      -7.362   6.318  67.792  1.00  0.00    -0.084 A  
HETATM   36  C   UNL     1      -5.655   5.266  71.548  1.00  0.00    -0.009 C  
ENDBRANCH  27  28
ENDBRANCH  19  27
ENDBRANCH  12  14
TORSDOF 3
ENDMDL
MODEL       49
REMARK 921   NORMALIZED FREE ENERGY PREDICTED BY IDOCK:   -6.35 KCAL/MOL
REMARK 922        TOTAL FREE ENERGY PREDICTED BY IDOCK:   -8.34 KCAL/MOL
REMARK 923 INTER-LIGAND FREE ENERGY PREDICTED BY IDOCK:   -7.09 KCAL/MOL
REMARK 924 INTRA-LIGAND FREE ENERGY PREDICTED BY IDOCK:   -1.25 KCAL/MOL
REMARK 927      BINDING AFFINITY PREDICTED BY RF-SCORE:    0.00 PKD
ROOT
HETATM    1  C   UNL     1     -11.608  12.752  66.731  1.00  0.00    -0.370 C  
HETATM    2  S   UNL     1     -10.704  13.625  68.073  1.00  0.00    -0.253 SA 
HETATM    3  C   UNL     1      -9.375  14.274  66.955  1.00  0.00    -0.241 C  
HETATM    4  C   UNL     1      -8.916  15.651  67.445  1.00  0.00    -0.205 C  
HETATM    5  CA  UNL     1      -9.991  14.244  65.533  1.00  0.00    -0.312 C  
HETATM    6  C   UNL     1      -8.165  13.325  67.081  1.00  0.00    -0.123 C  
HETATM    7  N   UNL     1     -10.900  13.082  65.480  1.00  0.00    -0.275 N  
HETATM    8  C   UNL     1     -10.811  15.486  65.131  1.00  0.00    -0.436 C  
HETATM    9  OXT UNL     1     -10.416  16.641  65.191  1.00  0.00    -0.647 OA 
HETATM   10  O   UNL     1     -12.027  15.185  64.603  1.00  0.00    -0.381 OA 
HETATM   11  C   UNL     1     -10.387  11.817  65.325  1.00  0.00    -0.274 C  
HETATM   12  CA  UNL     1     -11.245  11.266  66.500  1.00  0.00    -0.152 C  
HETATM   13  O   UNL     1      -9.482  11.449  64.612  1.00  0.00    -0.218 OA 
ENDROOT
BRANCH  12  14
HETATM   14  N   UNL     1     -10.526  10.596  67.613  1.00  0.00    -0.212 N  
HETATM   15  C   UNL     1     -10.183   9.264  67.540  1.00  0.00    -0.242 C  
HETATM   16  H   UNL     1     -10.282  11.131  68.446  1.00  0.00     0.000 HD 
HETATM   17  O   UNL     1     -10.497   8.564  66.580  1.00  0.00    -0.289 OA 
HETATM   18  C   UNL     1      -9.437   8.704  68.736  1.00  0.00    -0.143 C  
HETATM   19  C   UNL     1      -8.054   9.326  68.794  1.00  0.00    -0.104 C  
HETATM   20  C   UNL     1     -10.239   8.736  70.051  1.00  0.00    -0.208 A  
HETATM   21  C   UNL     1     -11.636   8.566  70.036  1.00  0.00     0.182 A  
HETATM   22  O   UNL     1      -7.777  10.389  69.339  1.00  0.00    -0.131 OA 
HETATM   23  C   UNL     1     -10.335   8.635  72.495  1.00  0.00    -0.229 A  
HETATM   24  C   UNL     1     -12.366   8.459  71.225  1.00  0.00    -0.289 A  
HETATM   25  C   UNL     1      -9.611   8.784  71.308  1.00  0.00    -0.323 A  
HETATM   26  C   UNL     1     -11.714   8.476  72.453  1.00  0.00    -0.429 A  
BRANCH  19  27
HETATM   27  O   UNL     1      -7.153   8.527  68.097  1.00  0.00    -0.082 OA 
BRANCH  27  28
HETATM   28  C   UNL     1      -7.349   7.155  68.301  1.00  0.00    -0.100 A  
HETATM   29  C   UNL     1      -7.780   4.968  67.443  1.00  0.00    -0.092 A  
HETATM   30  C   UNL     1      -7.668   6.325  67.227  1.00  0.00    -0.100 A  
HETATM   31  C   UNL     1      -7.510   4.419  68.689  1.00  0.00    -0.060 A  
HETATM   32  C   UNL     1      -7.147   5.230  69.758  1.00  0.00    -0.059 A  
HETATM   33  C   UNL     1      -7.622   2.931  68.656  1.00  0.00    -0.048 C  
HETATM   34  C   UNL     1      -8.076   2.631  67.216  1.00  0.00    -0.074 C  
HETATM   35  C   UNL     1      -7.071   6.617  69.562  1.00  0.00    -0.076 A  
HETATM   36  C   UNL     1      -8.155   3.945  66.429  1.00  0.00    -0.097 C  
ENDBRANCH  27  28
ENDBRANCH  19  27
ENDBRANCH  12  14
TORSDOF 3
ENDMDL
MODEL       50
REMARK 921   NORMALIZED FREE ENERGY PREDICTED BY IDOCK:   -6.34 KCAL/MOL
REMARK 922        TOTAL FREE ENERGY PREDICTED BY IDOCK:   -8.33 KCAL/MOL
REMARK 923 INTER-LIGAND FREE ENERGY PREDICTED BY IDOCK:   -7.11 KCAL/MOL
REMARK 924 INTRA-LIGAND FREE ENERGY PREDICTED BY IDOCK:   -1.22 KCAL/MOL
REMARK 927      BINDING AFFINITY PREDICTED BY RF-SCORE:    0.00 PKD
ROOT
HETATM    1  C   UNL     1      -9.387   6.543  66.473  1.00  0.00    -0.159 C  
HETATM    2  S   UNL     1      -7.703   6.913  67.111  1.00  0.00    -0.110 SA 
HETATM    3  C   UNL     1      -7.876   5.835  68.611  1.00  0.00    -0.097 C  
HETATM    4  C   UNL     1      -6.520   5.212  68.958  1.00  0.00    -0.036 C  
HETATM    5  CA  UNL     1      -9.002   4.830  68.259  1.00  0.00    -0.111 C  
HETATM    6  C   UNL     1      -8.267   6.750  69.790  1.00  0.00    -0.127 C  
HETATM    7  N   UNL     1      -9.960   5.539  67.388  1.00  0.00    -0.148 N  
HETATM    8  C   UNL     1      -8.555   3.559  67.508  1.00  0.00    -0.101 C  
HETATM    9  OXT UNL     1      -7.668   2.801  67.872  1.00  0.00    -0.059 OA 
HETATM   10  O   UNL     1      -9.307   3.285  66.409  1.00  0.00    -0.165 OA 
HETATM   11  C   UNL     1     -10.864   6.416  67.936  1.00  0.00    -0.322 C  
HETATM   12  CA  UNL     1     -10.517   7.513  66.889  1.00  0.00    -0.315 C  
HETATM   13  O   UNL     1     -11.501   6.306  68.959  1.00  0.00    -0.363 OA 
ENDROOT
BRANCH  12  14
HETATM   14  N   UNL     1     -10.078   8.834  67.406  1.00  0.00    -0.207 N  
HETATM   15  C   UNL     1     -10.064   9.947  66.597  1.00  0.00    -0.233 C  
HETATM   16  H   UNL     1      -9.782   8.918  68.379  1.00  0.00     0.000 HD 
HETATM   17  O   UNL     1     -10.363   9.888  65.407  1.00  0.00    -0.207 OA 
HETATM   18  C   UNL     1      -9.609  11.238  67.250  1.00  0.00    -0.188 C  
HETATM   19  C   UNL     1     -10.647  11.671  68.268  1.00  0.00    -0.205 C  
HETATM   20  C   UNL     1      -8.153  11.212  67.752  1.00  0.00    -0.117 A  
HETATM   21  C   UNL     1      -7.175  10.472  67.061  1.00  0.00    -0.098 A  
HETATM   22  O   UNL     1     -10.693  11.299  69.436  1.00  0.00    -0.213 OA 
HETATM   23  C   UNL     1      -6.357  12.130  69.140  1.00  0.00    -0.094 A  
HETATM   24  C   UNL     1      -5.825  10.540  67.420  1.00  0.00    -0.045 A  
HETATM   25  C   UNL     1      -7.711  12.029  68.808  1.00  0.00    -0.054 A  
HETATM   26  C   UNL     1      -5.414  11.382  68.448  1.00  0.00    -0.042 A  
BRANCH  19  27
HETATM   27  O   UNL     1     -11.568  12.523  67.664  1.00  0.00    -0.314 OA 
BRANCH  27  28
HETATM   28  C   UNL     1     -11.262  13.880  67.826  1.00  0.00    -0.293 A  
HETATM   29  C   UNL     1     -10.672  16.001  66.900  1.00  0.00    -0.262 A  
HETATM   30  C   UNL     1     -10.892  14.651  66.725  1.00  0.00    -0.312 A  
HETATM   31  C   UNL     1     -10.882  16.605  68.132  1.00  0.00    -0.348 A  
HETATM   32  C   UNL     1     -11.295  15.856  69.228  1.00  0.00    -0.355 A  
HETATM   33  C   UNL     1     -10.654  18.078  68.054  1.00  0.00    -0.361 C  
HETATM   34  C   UNL     1     -10.196  18.300  66.601  1.00  0.00    -0.399 C  
HETATM   35  C   UNL     1     -11.481  14.474  69.073  1.00  0.00    -0.318 A  
HETATM   36  C   UNL     1     -10.229  16.962  65.852  1.00  0.00    -0.330 C  
ENDBRANCH  27  28
ENDBRANCH  19  27
ENDBRANCH  12  14
TORSDOF 3
ENDMDL
MODEL       51
REMARK 921   NORMALIZED FREE ENERGY PREDICTED BY IDOCK:   -6.32 KCAL/MOL
REMARK 922        TOTAL FREE ENERGY PREDICTED BY IDOCK:   -8.31 KCAL/MOL
REMARK 923 INTER-LIGAND FREE ENERGY PREDICTED BY IDOCK:   -7.58 KCAL/MOL
REMARK 924 INTRA-LIGAND FREE ENERGY PREDICTED BY IDOCK:   -0.73 KCAL/MOL
REMARK 927      BINDING AFFINITY PREDICTED BY RF-SCORE:    0.00 PKD
ROOT
HETATM    1  C   UNL     1     -10.723   8.511  70.435  1.00  0.00    -0.228 C  
HETATM    2  S   UNL     1     -10.571   6.963  69.454  1.00  0.00    -0.241 SA 
HETATM    3  C   UNL     1      -9.196   6.270  70.488  1.00  0.00    -0.158 C  
HETATM    4  C   UNL     1      -9.321   4.745  70.557  1.00  0.00    -0.219 C  
HETATM    5  CA  UNL     1      -9.299   7.009  71.846  1.00  0.00    -0.140 C  
HETATM    6  C   UNL     1      -7.873   6.582  69.760  1.00  0.00    -0.115 C  
HETATM    7  N   UNL     1      -9.781   8.375  71.561  1.00  0.00    -0.190 N  
HETATM    8  C   UNL     1     -10.265   6.388  72.876  1.00  0.00    -0.191 C  
HETATM    9  OXT UNL     1     -10.250   5.223  73.243  1.00  0.00    -0.171 OA 
HETATM   10  O   UNL     1     -11.118   7.290  73.432  1.00  0.00    -0.323 OA 
HETATM   11  C   UNL     1      -8.912   9.320  71.071  1.00  0.00    -0.156 C  
HETATM   12  CA  UNL     1      -9.904   9.728  69.945  1.00  0.00    -0.243 C  
HETATM   13  O   UNL     1      -7.763   9.529  71.388  1.00  0.00    -0.297 OA 
ENDROOT
BRANCH  12  14
HETATM   14  N   UNL     1      -9.415   9.657  68.546  1.00  0.00    -0.141 N  
HETATM   15  C   UNL     1     -10.278   9.781  67.481  1.00  0.00    -0.220 C  
HETATM   16  H   UNL     1      -8.420   9.513  68.369  1.00  0.00     0.000 HD 
HETATM   17  O   UNL     1     -11.490   9.906  67.640  1.00  0.00    -0.106 OA 
HETATM   18  C   UNL     1      -9.649   9.706  66.103  1.00  0.00    -0.295 C  
HETATM   19  C   UNL     1      -8.788  10.935  65.883  1.00  0.00    -0.186 C  
HETATM   20  C   UNL     1      -8.978   8.356  65.789  1.00  0.00    -0.207 A  
HETATM   21  C   UNL     1      -9.505   7.160  66.313  1.00  0.00    -0.125 A  
HETATM   22  O   UNL     1      -7.615  11.049  66.222  1.00  0.00    -0.145 OA 
HETATM   23  C   UNL     1      -7.441   6.996  64.454  1.00  0.00    -0.100 A  
HETATM   24  C   UNL     1      -8.992   5.914  65.935  1.00  0.00    -0.149 A  
HETATM   25  C   UNL     1      -7.925   8.242  64.864  1.00  0.00    -0.144 A  
HETATM   26  C   UNL     1      -7.972   5.832  64.993  1.00  0.00    -0.121 A  
BRANCH  19  27
HETATM   27  O   UNL     1      -9.544  11.934  65.276  1.00  0.00    -0.222 OA 
BRANCH  27  28
HETATM   28  C   UNL     1     -10.041  12.884  66.176  1.00  0.00    -0.276 A  
HETATM   29  C   UNL     1      -9.703  14.763  67.611  1.00  0.00    -0.213 A  
HETATM   30  C   UNL     1      -9.176  13.789  66.789  1.00  0.00    -0.255 A  
HETATM   31  C   UNL     1     -11.075  14.893  67.776  1.00  0.00    -0.313 A  
HETATM   32  C   UNL     1     -11.952  14.025  67.135  1.00  0.00    -0.465 A  
HETATM   33  C   UNL     1     -11.403  16.061  68.646  1.00  0.00    -0.383 C  
HETATM   34  C   UNL     1     -10.024  16.603  69.064  1.00  0.00    -0.280 C  
HETATM   35  C   UNL     1     -11.427  13.004  66.330  1.00  0.00    -0.379 A  
HETATM   36  C   UNL     1      -8.929  15.778  68.378  1.00  0.00    -0.187 C  
ENDBRANCH  27  28
ENDBRANCH  19  27
ENDBRANCH  12  14
TORSDOF 3
ENDMDL
MODEL       52
REMARK 921   NORMALIZED FREE ENERGY PREDICTED BY IDOCK:   -6.32 KCAL/MOL
REMARK 922        TOTAL FREE ENERGY PREDICTED BY IDOCK:   -8.30 KCAL/MOL
REMARK 923 INTER-LIGAND FREE ENERGY PREDICTED BY IDOCK:   -6.58 KCAL/MOL
REMARK 924 INTRA-LIGAND FREE ENERGY PREDICTED BY IDOCK:   -1.72 KCAL/MOL
REMARK 927      BINDING AFFINITY PREDICTED BY RF-SCORE:    0.00 PKD
ROOT
HETATM    1  C   UNL     1     -11.338  15.243  66.414  1.00  0.00    -0.161 C  
HETATM    2  S   UNL     1     -10.078  14.898  65.121  1.00  0.00    -0.240 SA 
HETATM    3  C   UNL     1     -10.286  13.057  65.204  1.00  0.00    -0.272 C  
HETATM    4  C   UNL     1     -10.075  12.450  63.813  1.00  0.00    -0.334 C  
HETATM    5  CA  UNL     1     -11.690  12.835  65.822  1.00  0.00    -0.402 C  
HETATM    6  C   UNL     1      -9.163  12.508  66.109  1.00  0.00    -0.077 C  
HETATM    7  N   UNL     1     -11.923  13.938  66.774  1.00  0.00    -0.421 N  
HETATM    8  C   UNL     1     -12.867  12.832  64.826  1.00  0.00    -0.293 C  
HETATM    9  OXT UNL     1     -12.940  12.139  63.823  1.00  0.00    -0.753 OA 
HETATM   10  O   UNL     1     -13.901  13.630  65.207  1.00  0.00     0.186 OA 
HETATM   11  C   UNL     1     -11.332  13.910  68.015  1.00  0.00    -0.288 C  
HETATM   12  CA  UNL     1     -10.826  15.373  67.868  1.00  0.00    -0.300 C  
HETATM   13  O   UNL     1     -11.188  12.970  68.763  1.00  0.00    -0.252 OA 
ENDROOT
BRANCH  12  14
HETATM   14  N   UNL     1      -9.369  15.609  68.021  1.00  0.00    -0.192 N  
HETATM   15  C   UNL     1      -8.774  15.616  69.263  1.00  0.00    -0.267 C  
HETATM   16  H   UNL     1      -8.797  15.768  67.191  1.00  0.00     0.000 HD 
HETATM   17  O   UNL     1      -9.426  15.479  70.295  1.00  0.00     0.042 OA 
HETATM   18  C   UNL     1      -7.276  15.852  69.281  1.00  0.00    -0.217 C  
HETATM   19  C   UNL     1      -6.578  14.654  68.666  1.00  0.00    -0.085 C  
HETATM   20  C   UNL     1      -6.848  17.227  68.735  1.00  0.00    -0.219 A  
HETATM   21  C   UNL     1      -7.671  18.354  68.920  1.00  0.00    -0.233 A  
HETATM   22  O   UNL     1      -6.363  14.496  67.470  1.00  0.00    -0.292 OA 
HETATM   23  C   UNL     1      -5.132  18.730  67.844  1.00  0.00    -0.168 A  
HETATM   24  C   UNL     1      -7.242  19.634  68.551  1.00  0.00    -0.363 A  
HETATM   25  C   UNL     1      -5.577  17.446  68.175  1.00  0.00    -0.133 A  
HETATM   26  C   UNL     1      -5.967  19.824  68.030  1.00  0.00    -0.237 A  
BRANCH  19  27
HETATM   27  O   UNL     1      -6.254  13.738  69.663  1.00  0.00    -0.111 OA 
BRANCH  27  28
HETATM   28  C   UNL     1      -6.468  12.406  69.289  1.00  0.00    -0.107 A  
HETATM   29  C   UNL     1      -7.948  10.588  68.833  1.00  0.00    -0.128 A  
HETATM   30  C   UNL     1      -7.758  11.878  69.280  1.00  0.00     0.265 A  
HETATM   31  C   UNL     1      -6.890   9.843  68.331  1.00  0.00    -0.063 A  
HETATM   32  C   UNL     1      -5.605  10.373  68.292  1.00  0.00    -0.037 A  
HETATM   33  C   UNL     1      -7.355   8.512  67.839  1.00  0.00    -0.093 C  
HETATM   34  C   UNL     1      -8.857   8.504  68.176  1.00  0.00    -0.142 C  
HETATM   35  C   UNL     1      -5.391  11.669  68.783  1.00  0.00    -0.045 A  
HETATM   36  C   UNL     1      -9.243   9.852  68.796  1.00  0.00    -0.147 C  
ENDBRANCH  27  28
ENDBRANCH  19  27
ENDBRANCH  12  14
TORSDOF 3
ENDMDL
MODEL       53
REMARK 921   NORMALIZED FREE ENERGY PREDICTED BY IDOCK:   -6.31 KCAL/MOL
REMARK 922        TOTAL FREE ENERGY PREDICTED BY IDOCK:   -8.30 KCAL/MOL
REMARK 923 INTER-LIGAND FREE ENERGY PREDICTED BY IDOCK:   -8.69 KCAL/MOL
REMARK 924 INTRA-LIGAND FREE ENERGY PREDICTED BY IDOCK:    0.39 KCAL/MOL
REMARK 927      BINDING AFFINITY PREDICTED BY RF-SCORE:    0.00 PKD
ROOT
HETATM    1  C   UNL     1      -8.118  17.022  66.184  1.00  0.00    -0.257 C  
HETATM    2  S   UNL     1      -9.940  17.150  65.974  1.00  0.00    -0.207 SA 
HETATM    3  C   UNL     1     -10.206  18.058  67.569  1.00  0.00    -0.369 C  
HETATM    4  C   UNL     1     -11.367  19.046  67.413  1.00  0.00     0.322 C  
HETATM    5  CA  UNL     1      -8.833  18.692  67.909  1.00  0.00    -0.288 C  
HETATM    6  C   UNL     1     -10.639  17.017  68.623  1.00  0.00    -0.362 C  
HETATM    7  N   UNL     1      -7.795  17.765  67.416  1.00  0.00    -0.205 N  
HETATM    8  C   UNL     1      -8.556  20.070  67.275  1.00  0.00    -0.335 C  
HETATM    9  OXT UNL     1      -9.290  21.043  67.356  1.00  0.00    -0.311 OA 
HETATM   10  O   UNL     1      -7.344  20.152  66.665  1.00  0.00    -0.251 OA 
HETATM   11  C   UNL     1      -7.491  16.633  68.132  1.00  0.00    -0.168 C  
HETATM   12  CA  UNL     1      -7.584  15.739  66.863  1.00  0.00    -0.200 C  
HETATM   13  O   UNL     1      -7.386  16.500  69.330  1.00  0.00    -0.237 OA 
ENDROOT
BRANCH  12  14
HETATM   14  N   UNL     1      -8.524  14.591  66.905  1.00  0.00    -0.364 N  
HETATM   15  C   UNL     1      -8.561  13.739  67.986  1.00  0.00    -0.177 C  
HETATM   16  H   UNL     1      -9.155  14.430  66.119  1.00  0.00     0.000 HD 
HETATM   17  O   UNL     1      -7.788  13.860  68.933  1.00  0.00    -0.114 OA 
HETATM   18  C   UNL     1      -9.577  12.615  67.912  1.00  0.00    -0.211 C  
HETATM   19  C   UNL     1     -10.973  13.204  67.998  1.00  0.00    -0.247 C  
HETATM   20  C   UNL     1      -9.340  11.625  66.756  1.00  0.00    -0.193 A  
HETATM   21  C   UNL     1      -8.031  11.326  66.333  1.00  0.00    -0.125 A  
HETATM   22  O   UNL     1     -11.625  13.622  67.048  1.00  0.00    -0.323 OA 
HETATM   23  C   UNL     1     -10.138   9.856  65.264  1.00  0.00    -0.227 A  
HETATM   24  C   UNL     1      -7.787  10.333  65.378  1.00  0.00    -0.149 A  
HETATM   25  C   UNL     1     -10.385  10.876  66.187  1.00  0.00    -0.305 A  
HETATM   26  C   UNL     1      -8.838   9.587  64.857  1.00  0.00    -0.240 A  
BRANCH  19  27
HETATM   27  O   UNL     1     -11.386  13.235  69.327  1.00  0.00    -0.262 OA 
BRANCH  27  28
HETATM   28  C   UNL     1     -11.728  11.976  69.836  1.00  0.00    -0.299 A  
HETATM   29  C   UNL     1     -11.304   9.635  70.043  1.00  0.00    -0.239 A  
HETATM   30  C   UNL     1     -10.995  10.849  69.467  1.00  0.00    -0.306 A  
HETATM   31  C   UNL     1     -12.278   9.539  71.027  1.00  0.00    -0.385 A  
HETATM   32  C   UNL     1     -12.986  10.663  71.436  1.00  0.00    -0.545 A  
HETATM   33  C   UNL     1     -12.378   8.144  71.550  1.00  0.00    -0.335 C  
HETATM   34  C   UNL     1     -11.367   7.360  70.692  1.00  0.00    -0.304 C  
HETATM   35  C   UNL     1     -12.710  11.896  70.828  1.00  0.00    -0.242 A  
HETATM   36  C   UNL     1     -10.659   8.327  69.736  1.00  0.00    -0.228 C  
ENDBRANCH  27  28
ENDBRANCH  19  27
ENDBRANCH  12  14
TORSDOF 3
ENDMDL
MODEL       54
REMARK 921   NORMALIZED FREE ENERGY PREDICTED BY IDOCK:   -6.31 KCAL/MOL
REMARK 922        TOTAL FREE ENERGY PREDICTED BY IDOCK:   -8.30 KCAL/MOL
REMARK 923 INTER-LIGAND FREE ENERGY PREDICTED BY IDOCK:   -7.91 KCAL/MOL
REMARK 924 INTRA-LIGAND FREE ENERGY PREDICTED BY IDOCK:   -0.39 KCAL/MOL
REMARK 927      BINDING AFFINITY PREDICTED BY RF-SCORE:    0.00 PKD
ROOT
HETATM    1  C   UNL     1     -10.927   7.463  71.205  1.00  0.00    -0.242 C  
HETATM    2  S   UNL     1     -10.291   6.416  69.835  1.00  0.00    -0.211 SA 
HETATM    3  C   UNL     1      -8.990   5.594  70.871  1.00  0.00    -0.140 C  
HETATM    4  C   UNL     1      -8.798   4.147  70.407  1.00  0.00    -0.137 C  
HETATM    5  CA  UNL     1      -9.470   5.767  72.335  1.00  0.00    -0.143 C  
HETATM    6  C   UNL     1      -7.661   6.332  70.609  1.00  0.00    -0.096 C  
HETATM    7  N   UNL     1     -10.177   7.061  72.409  1.00  0.00    -0.185 N  
HETATM    8  C   UNL     1     -10.439   4.685  72.854  1.00  0.00    -0.194 C  
HETATM    9  OXT UNL     1     -10.238   3.481  72.813  1.00  0.00    -0.156 OA 
HETATM   10  O   UNL     1     -11.543   5.194  73.464  1.00  0.00    -0.171 OA 
HETATM   11  C   UNL     1      -9.459   8.231  72.468  1.00  0.00    -0.286 C  
HETATM   12  CA  UNL     1     -10.316   8.877  71.342  1.00  0.00    -0.307 C  
HETATM   13  O   UNL     1      -8.449   8.469  73.091  1.00  0.00    -0.365 OA 
ENDROOT
BRANCH  12  14
HETATM   14  N   UNL     1      -9.597   9.389  70.148  1.00  0.00    -0.221 N  
HETATM   15  C   UNL     1     -10.240  10.159  69.205  1.00  0.00    -0.214 C  
HETATM   16  H   UNL     1      -8.609   9.166  70.024  1.00  0.00     0.000 HD 
HETATM   17  O   UNL     1     -11.440  10.413  69.283  1.00  0.00    -0.245 OA 
HETATM   18  C   UNL     1      -9.390  10.632  68.041  1.00  0.00    -0.151 C  
HETATM   19  C   UNL     1      -8.372  11.637  68.547  1.00  0.00    -0.140 C  
HETATM   20  C   UNL     1      -8.828   9.494  67.168  1.00  0.00    -0.141 A  
HETATM   21  C   UNL     1      -9.569   8.313  66.975  1.00  0.00    -0.249 A  
HETATM   22  O   UNL     1      -7.273  11.359  69.012  1.00  0.00    -0.109 OA 
HETATM   23  C   UNL     1      -7.240   8.674  65.496  1.00  0.00    -0.084 A  
HETATM   24  C   UNL     1      -9.139   7.325  66.082  1.00  0.00    -0.160 A  
HETATM   25  C   UNL     1      -7.647   9.641  66.418  1.00  0.00    -0.101 A  
HETATM   26  C   UNL     1      -7.984   7.513  65.330  1.00  0.00    -0.124 A  
BRANCH  19  27
HETATM   27  O   UNL     1      -8.894  12.923  68.443  1.00  0.00    -0.182 OA 
BRANCH  27  28
HETATM   28  C   UNL     1      -9.917  13.035  67.493  1.00  0.00    -0.212 A  
HETATM   29  C   UNL     1     -10.729  12.729  65.267  1.00  0.00    -0.319 A  
HETATM   30  C   UNL     1      -9.683  12.683  66.165  1.00  0.00    -0.253 A  
HETATM   31  C   UNL     1     -12.013  13.052  65.685  1.00  0.00    -0.479 A  
HETATM   32  C   UNL     1     -12.270  13.362  67.015  1.00  0.00    -0.321 A  
HETATM   33  C   UNL     1     -12.984  12.961  64.554  1.00  0.00    -0.168 C  
HETATM   34  C   UNL     1     -12.100  12.603  63.343  1.00  0.00    -0.614 C  
HETATM   35  C   UNL     1     -11.206  13.359  67.929  1.00  0.00    -0.303 A  
HETATM   36  C   UNL     1     -10.650  12.433  63.810  1.00  0.00    -0.486 C  
ENDBRANCH  27  28
ENDBRANCH  19  27
ENDBRANCH  12  14
TORSDOF 3
ENDMDL
MODEL       55
REMARK 921   NORMALIZED FREE ENERGY PREDICTED BY IDOCK:   -6.29 KCAL/MOL
REMARK 922        TOTAL FREE ENERGY PREDICTED BY IDOCK:   -8.27 KCAL/MOL
REMARK 923 INTER-LIGAND FREE ENERGY PREDICTED BY IDOCK:   -7.34 KCAL/MOL
REMARK 924 INTRA-LIGAND FREE ENERGY PREDICTED BY IDOCK:   -0.93 KCAL/MOL
REMARK 927      BINDING AFFINITY PREDICTED BY RF-SCORE:    0.00 PKD
ROOT
HETATM    1  C   UNL     1      -7.924  16.930  66.317  1.00  0.00    -0.315 C  
HETATM    2  S   UNL     1      -9.742  17.155  66.157  1.00  0.00    -0.204 SA 
HETATM    3  C   UNL     1      -9.917  18.071  67.760  1.00  0.00    -0.326 C  
HETATM    4  C   UNL     1     -11.028  19.119  67.637  1.00  0.00    -0.365 C  
HETATM    5  CA  UNL     1      -8.503  18.631  68.062  1.00  0.00    -0.291 C  
HETATM    6  C   UNL     1     -10.374  17.052  68.824  1.00  0.00    -0.336 C  
HETATM    7  N   UNL     1      -7.529  17.652  67.540  1.00  0.00    -0.192 N  
HETATM    8  C   UNL     1      -8.171  19.994  67.423  1.00  0.00    -0.332 C  
HETATM    9  OXT UNL     1      -8.851  21.005  67.525  1.00  0.00    -0.150 OA 
HETATM   10  O   UNL     1      -6.973  20.014  66.780  1.00  0.00    -0.209 OA 
HETATM   11  C   UNL     1      -7.266  16.504  68.247  1.00  0.00    -0.159 C  
HETATM   12  CA  UNL     1      -7.440  15.619  66.979  1.00  0.00    -0.193 C  
HETATM   13  O   UNL     1      -7.135  16.363  69.441  1.00  0.00    -0.221 OA 
ENDROOT
BRANCH  12  14
HETATM   14  N   UNL     1      -8.438  14.522  67.046  1.00  0.00    -0.298 N  
HETATM   15  C   UNL     1      -8.046  13.204  67.109  1.00  0.00    -0.098 C  
HETATM   16  H   UNL     1      -9.433  14.749  67.046  1.00  0.00     0.000 HD 
HETATM   17  O   UNL     1      -6.863  12.876  67.062  1.00  0.00    -0.051 OA 
HETATM   18  C   UNL     1      -9.163  12.181  67.190  1.00  0.00    -0.193 C  
HETATM   19  C   UNL     1      -9.857  12.310  68.533  1.00  0.00    -0.153 C  
HETATM   20  C   UNL     1     -10.089  12.161  65.959  1.00  0.00    -0.259 A  
HETATM   21  C   UNL     1      -9.577  12.443  64.678  1.00  0.00     0.132 A  
HETATM   22  O   UNL     1     -10.778  13.079  68.784  1.00  0.00    -0.248 OA 
HETATM   23  C   UNL     1     -12.201  11.539  64.887  1.00  0.00     0.554 A  
HETATM   24  C   UNL     1     -10.369  12.300  63.533  1.00  0.00    -0.443 A  
HETATM   25  C   UNL     1     -11.423  11.721  66.034  1.00  0.00    -0.281 A  
HETATM   26  C   UNL     1     -11.674  11.832  63.636  1.00  0.00    -0.517 A  
BRANCH  19  27
HETATM   27  O   UNL     1      -9.260  11.450  69.451  1.00  0.00     0.216 OA 
BRANCH  27  28
HETATM   28  C   UNL     1      -9.839  10.175  69.480  1.00  0.00    -0.232 A  
HETATM   29  C   UNL     1     -10.418   8.132  68.388  1.00  0.00    -0.205 A  
HETATM   30  C   UNL     1      -9.915   9.413  68.315  1.00  0.00    -0.197 A  
HETATM   31  C   UNL     1     -10.779   7.575  69.607  1.00  0.00    -0.236 A  
HETATM   32  C   UNL     1     -10.666   8.308  70.783  1.00  0.00    -0.244 A  
HETATM   33  C   UNL     1     -11.220   6.158  69.441  1.00  0.00    -0.466 C  
HETATM   34  C   UNL     1     -11.152   5.931  67.919  1.00  0.00    -0.097 C  
HETATM   35  C   UNL     1     -10.195   9.627  70.717  1.00  0.00    -0.330 A  
HETATM   36  C   UNL     1     -10.613   7.198  67.244  1.00  0.00    -0.398 C  
ENDBRANCH  27  28
ENDBRANCH  19  27
ENDBRANCH  12  14
TORSDOF 3
ENDMDL
MODEL       56
REMARK 921   NORMALIZED FREE ENERGY PREDICTED BY IDOCK:   -6.25 KCAL/MOL
REMARK 922        TOTAL FREE ENERGY PREDICTED BY IDOCK:   -8.22 KCAL/MOL
REMARK 923 INTER-LIGAND FREE ENERGY PREDICTED BY IDOCK:   -7.16 KCAL/MOL
REMARK 924 INTRA-LIGAND FREE ENERGY PREDICTED BY IDOCK:   -1.06 KCAL/MOL
REMARK 927      BINDING AFFINITY PREDICTED BY RF-SCORE:    0.00 PKD
ROOT
HETATM    1  C   UNL     1      -9.055   9.191  67.446  1.00  0.00    -0.127 C  
HETATM    2  S   UNL     1      -9.564   9.349  65.686  1.00  0.00    -0.246 SA 
HETATM    3  C   UNL     1      -7.861   9.050  65.015  1.00  0.00    -0.113 C  
HETATM    4  C   UNL     1      -7.956   8.300  63.682  1.00  0.00    -0.153 C  
HETATM    5  CA  UNL     1      -7.105   8.307  66.145  1.00  0.00    -0.065 C  
HETATM    6  C   UNL     1      -7.238  10.428  64.712  1.00  0.00    -0.034 C  
HETATM    7  N   UNL     1      -7.628   8.821  67.427  1.00  0.00    -0.089 N  
HETATM    8  C   UNL     1      -7.269   6.773  66.166  1.00  0.00    -0.067 C  
HETATM    9  OXT UNL     1      -7.064   6.030  65.218  1.00  0.00    -0.061 OA 
HETATM   10  O   UNL     1      -7.591   6.279  67.391  1.00  0.00    -0.090 OA 
HETATM   11  C   UNL     1      -7.208  10.041  67.898  1.00  0.00    -0.087 C  
HETATM   12  CA  UNL     1      -8.668  10.497  68.179  1.00  0.00    -0.130 C  
HETATM   13  O   UNL     1      -6.095  10.517  67.881  1.00  0.00    -0.047 OA 
ENDROOT
BRANCH  12  14
HETATM   14  N   UNL     1      -9.124  11.757  67.539  1.00  0.00    -0.171 N  
HETATM   15  C   UNL     1     -10.095  12.541  68.120  1.00  0.00    -0.225 C  
HETATM   16  H   UNL     1      -8.710  12.047  66.652  1.00  0.00     0.000 HD 
HETATM   17  O   UNL     1     -10.659  12.211  69.160  1.00  0.00    -0.138 OA 
HETATM   18  C   UNL     1     -10.460  13.810  67.373  1.00  0.00    -0.256 C  
HETATM   19  C   UNL     1      -9.286  14.769  67.424  1.00  0.00    -0.196 C  
HETATM   20  C   UNL     1     -11.064  13.568  65.977  1.00  0.00    -0.300 A  
HETATM   21  C   UNL     1     -11.865  12.436  65.735  1.00  0.00    -0.467 A  
HETATM   22  O   UNL     1      -8.346  14.783  66.636  1.00  0.00    -0.156 OA 
HETATM   23  C   UNL     1     -11.672  14.372  63.746  1.00  0.00     0.202 A  
HETATM   24  C   UNL     1     -12.531  12.265  64.516  1.00  0.00    -0.464 A  
HETATM   25  C   UNL     1     -10.973  14.522  64.947  1.00  0.00    -0.421 A  
HETATM   26  C   UNL     1     -12.448  13.242  63.529  1.00  0.00    -0.328 A  
BRANCH  19  27
HETATM   27  O   UNL     1      -9.415  15.608  68.527  1.00  0.00    -0.191 OA 
BRANCH  27  28
HETATM   28  C   UNL     1      -9.072  16.939  68.260  1.00  0.00    -0.235 A  
HETATM   29  C   UNL     1      -7.442  18.680  68.134  1.00  0.00    -0.288 A  
HETATM   30  C   UNL     1      -7.770  17.386  68.478  1.00  0.00    -0.267 A  
HETATM   31  C   UNL     1      -8.366  19.509  67.513  1.00  0.00    -0.333 A  
HETATM   32  C   UNL     1      -9.655  19.063  67.249  1.00  0.00    -0.363 A  
HETATM   33  C   UNL     1      -7.757  20.829  67.169  1.00  0.00    -0.316 C  
HETATM   34  C   UNL     1      -6.328  20.729  67.735  1.00  0.00    -0.371 C  
HETATM   35  C   UNL     1     -10.014  17.762  67.633  1.00  0.00    -0.322 A  
HETATM   36  C   UNL     1      -6.120  19.335  68.336  1.00  0.00    -0.246 C  
ENDBRANCH  27  28
ENDBRANCH  19  27
ENDBRANCH  12  14
TORSDOF 3
ENDMDL
MODEL       57
REMARK 921   NORMALIZED FREE ENERGY PREDICTED BY IDOCK:   -6.22 KCAL/MOL
REMARK 922        TOTAL FREE ENERGY PREDICTED BY IDOCK:   -8.19 KCAL/MOL
REMARK 923 INTER-LIGAND FREE ENERGY PREDICTED BY IDOCK:   -6.95 KCAL/MOL
REMARK 924 INTRA-LIGAND FREE ENERGY PREDICTED BY IDOCK:   -1.24 KCAL/MOL
REMARK 927      BINDING AFFINITY PREDICTED BY RF-SCORE:    0.00 PKD
ROOT
HETATM    1  C   UNL     1      -9.309  13.777  65.849  1.00  0.00     0.062 C  
HETATM    2  S   UNL     1      -9.927  12.816  64.409  1.00  0.00    -0.059 SA 
HETATM    3  C   UNL     1     -11.693  13.334  64.637  1.00  0.00    -0.364 C  
HETATM    4  C   UNL     1     -12.376  13.454  63.270  1.00  0.00    -0.244 C  
HETATM    5  CA  UNL     1     -11.629  14.641  65.467  1.00  0.00    -0.335 C  
HETATM    6  C   UNL     1     -12.409  12.200  65.400  1.00  0.00     0.002 C  
HETATM    7  N   UNL     1     -10.469  14.522  66.372  1.00  0.00    -0.288 N  
HETATM    8  C   UNL     1     -11.447  15.941  64.657  1.00  0.00    -0.263 C  
HETATM    9  OXT UNL     1     -12.149  16.292  63.720  1.00  0.00    -0.959 OA 
HETATM   10  O   UNL     1     -10.458  16.743  65.135  1.00  0.00    -0.658 OA 
HETATM   11  C   UNL     1     -10.564  13.760  67.512  1.00  0.00    -0.244 C  
HETATM   12  CA  UNL     1      -9.226  13.030  67.201  1.00  0.00    -0.226 C  
HETATM   13  O   UNL     1     -11.489  13.670  68.287  1.00  0.00    -0.274 OA 
ENDROOT
BRANCH  12  14
HETATM   14  N   UNL     1      -9.261  11.548  67.123  1.00  0.00    -0.167 N  
HETATM   15  C   UNL     1      -8.721  10.769  68.122  1.00  0.00    -0.130 C  
HETATM   16  H   UNL     1      -9.691  11.098  66.315  1.00  0.00     0.000 HD 
HETATM   17  O   UNL     1      -8.148  11.261  69.091  1.00  0.00    -0.093 OA 
HETATM   18  C   UNL     1      -8.835   9.269  67.930  1.00  0.00    -0.124 C  
HETATM   19  C   UNL     1     -10.293   8.864  68.043  1.00  0.00    -0.219 C  
HETATM   20  C   UNL     1      -8.087   8.733  66.694  1.00  0.00    -0.103 A  
HETATM   21  C   UNL     1      -6.890   9.339  66.269  1.00  0.00    -0.082 A  
HETATM   22  O   UNL     1     -11.103   8.868  67.123  1.00  0.00     0.033 OA 
HETATM   23  C   UNL     1      -7.691   6.977  65.035  1.00  0.00    -0.115 A  
HETATM   24  C   UNL     1      -6.127   8.789  65.233  1.00  0.00    -0.055 A  
HETATM   25  C   UNL     1      -8.475   7.549  66.041  1.00  0.00    -0.152 A  
HETATM   26  C   UNL     1      -6.518   7.600  64.628  1.00  0.00    -0.044 A  
BRANCH  19  27
HETATM   27  O   UNL     1     -10.583   8.526  69.362  1.00  0.00    -0.221 OA 
BRANCH  27  28
HETATM   28  C   UNL     1     -10.171   7.233  69.710  1.00  0.00    -0.210 A  
HETATM   29  C   UNL     1      -9.686   4.974  69.107  1.00  0.00    -0.243 A  
HETATM   30  C   UNL     1     -10.170   6.217  68.756  1.00  0.00    -0.226 A  
HETATM   31  C   UNL     1      -9.141   4.748  70.363  1.00  0.00    -0.170 A  
HETATM   32  C   UNL     1      -9.095   5.765  71.310  1.00  0.00    -0.151 A  
HETATM   33  C   UNL     1      -8.617   3.355  70.479  1.00  0.00    -0.115 C  
HETATM   34  C   UNL     1      -8.982   2.714  69.127  1.00  0.00    -0.171 C  
HETATM   35  C   UNL     1      -9.622   7.022  70.980  1.00  0.00    -0.170 A  
HETATM   36  C   UNL     1      -9.651   3.767  68.235  1.00  0.00    -0.171 C  
ENDBRANCH  27  28
ENDBRANCH  19  27
ENDBRANCH  12  14
TORSDOF 3
ENDMDL
MODEL       58
REMARK 921   NORMALIZED FREE ENERGY PREDICTED BY IDOCK:   -6.21 KCAL/MOL
REMARK 922        TOTAL FREE ENERGY PREDICTED BY IDOCK:   -8.17 KCAL/MOL
REMARK 923 INTER-LIGAND FREE ENERGY PREDICTED BY IDOCK:   -6.89 KCAL/MOL
REMARK 924 INTRA-LIGAND FREE ENERGY PREDICTED BY IDOCK:   -1.28 KCAL/MOL
REMARK 927      BINDING AFFINITY PREDICTED BY RF-SCORE:    0.00 PKD
ROOT
HETATM    1  C   UNL     1     -10.461  14.378  66.560  1.00  0.00    -0.289 C  
HETATM    2  S   UNL     1     -11.405  14.426  68.136  1.00  0.00    -0.311 SA 
HETATM    3  C   UNL     1     -10.294  15.679  68.934  1.00  0.00    -0.218 C  
HETATM    4  C   UNL     1     -11.117  16.584  69.857  1.00  0.00    -0.241 C  
HETATM    5  CA  UNL     1      -9.583  16.396  67.758  1.00  0.00    -0.231 C  
HETATM    6  C   UNL     1      -9.300  14.909  69.827  1.00  0.00     0.168 C  
HETATM    7  N   UNL     1      -9.400  15.395  66.688  1.00  0.00    -0.243 N  
HETATM    8  C   UNL     1     -10.340  17.590  67.144  1.00  0.00    -0.330 C  
HETATM    9  OXT UNL     1     -10.778  18.544  67.770  1.00  0.00    -0.410 OA 
HETATM   10  O   UNL     1     -10.416  17.545  65.787  1.00  0.00    -0.535 OA 
HETATM   11  C   UNL     1      -8.391  14.468  66.782  1.00  0.00    -0.006 C  
HETATM   12  CA  UNL     1      -9.359  13.299  66.441  1.00  0.00    -0.174 C  
HETATM   13  O   UNL     1      -7.254  14.622  67.167  1.00  0.00    -0.146 OA 
ENDROOT
BRANCH  12  14
HETATM   14  N   UNL     1      -9.444  12.179  67.412  1.00  0.00    -0.176 N  
HETATM   15  C   UNL     1      -9.912  10.941  67.032  1.00  0.00    -0.192 C  
HETATM   16  H   UNL     1      -9.150  12.329  68.377  1.00  0.00     0.000 HD 
HETATM   17  O   UNL     1     -10.323  10.723  65.896  1.00  0.00    -0.254 OA 
HETATM   18  C   UNL     1      -9.933   9.878  68.115  1.00  0.00    -0.175 C  
HETATM   19  C   UNL     1      -8.507   9.516  68.482  1.00  0.00    -0.119 C  
HETATM   20  C   UNL     1     -10.865  10.203  69.298  1.00  0.00    -0.269 A  
HETATM   21  C   UNL     1     -12.058  10.920  69.088  1.00  0.00    -0.292 A  
HETATM   22  O   UNL     1      -7.818  10.100  69.311  1.00  0.00    -0.108 OA 
HETATM   23  C   UNL     1     -11.592   9.832  71.606  1.00  0.00    -0.345 A  
HETATM   24  C   UNL     1     -12.982  11.110  70.122  1.00  0.00     0.050 A  
HETATM   25  C   UNL     1     -10.650   9.678  70.585  1.00  0.00    -0.386 A  
HETATM   26  C   UNL     1     -12.757  10.551  71.375  1.00  0.00    -0.547 A  
BRANCH  19  27
HETATM   27  O   UNL     1      -8.082   8.444  67.703  1.00  0.00    -0.115 OA 
BRANCH  27  28
HETATM   28  C   UNL     1      -7.879   7.267  68.435  1.00  0.00    -0.122 A  
HETATM   29  C   UNL     1      -8.728   5.277  69.446  1.00  0.00    -0.109 A  
HETATM   30  C   UNL     1      -8.964   6.468  68.793  1.00  0.00    -0.124 A  
HETATM   31  C   UNL     1      -7.433   4.837  69.684  1.00  0.00    -0.056 A  
HETATM   32  C   UNL     1      -6.341   5.603  69.293  1.00  0.00    -0.037 A  
HETATM   33  C   UNL     1      -7.433   3.492  70.332  1.00  0.00    -0.041 C  
HETATM   34  C   UNL     1      -8.929   3.184  70.532  1.00  0.00    -0.169 C  
HETATM   35  C   UNL     1      -6.568   6.836  68.665  1.00  0.00    -0.051 A  
HETATM   36  C   UNL     1      -9.763   4.326  69.940  1.00  0.00    -0.291 C  
ENDBRANCH  27  28
ENDBRANCH  19  27
ENDBRANCH  12  14
TORSDOF 3
ENDMDL
MODEL       59
REMARK 921   NORMALIZED FREE ENERGY PREDICTED BY IDOCK:   -6.20 KCAL/MOL
REMARK 922        TOTAL FREE ENERGY PREDICTED BY IDOCK:   -8.16 KCAL/MOL
REMARK 923 INTER-LIGAND FREE ENERGY PREDICTED BY IDOCK:   -6.86 KCAL/MOL
REMARK 924 INTRA-LIGAND FREE ENERGY PREDICTED BY IDOCK:   -1.30 KCAL/MOL
REMARK 927      BINDING AFFINITY PREDICTED BY RF-SCORE:    0.00 PKD
ROOT
HETATM    1  C   UNL     1      -8.376   5.227  68.980  1.00  0.00    -0.095 C  
HETATM    2  S   UNL     1      -9.954   5.098  68.045  1.00  0.00    -0.126 SA 
HETATM    3  C   UNL     1      -9.138   5.114  66.379  1.00  0.00    -0.131 C  
HETATM    4  C   UNL     1      -9.931   4.235  65.407  1.00  0.00    -0.233 C  
HETATM    5  CA  UNL     1      -7.677   4.669  66.640  1.00  0.00    -0.091 C  
HETATM    6  C   UNL     1      -9.215   6.559  65.845  1.00  0.00    -0.022 C  
HETATM    7  N   UNL     1      -7.300   5.179  67.973  1.00  0.00    -0.074 N  
HETATM    8  C   UNL     1      -7.431   3.147  66.646  1.00  0.00    -0.075 C  
HETATM    9  OXT UNL     1      -7.755   2.377  65.754  1.00  0.00    -0.074 OA 
HETATM   10  O   UNL     1      -6.721   2.716  67.723  1.00  0.00    -0.039 OA 
HETATM   11  C   UNL     1      -6.964   6.502  68.131  1.00  0.00    -0.077 C  
HETATM   12  CA  UNL     1      -7.907   6.652  69.359  1.00  0.00    -0.113 C  
HETATM   13  O   UNL     1      -6.300   7.206  67.405  1.00  0.00    -0.046 OA 
ENDROOT
BRANCH  12  14
HETATM   14  N   UNL     1      -8.944   7.712  69.295  1.00  0.00    -0.136 N  
HETATM   15  C   UNL     1      -8.668   9.003  69.687  1.00  0.00    -0.143 C  
HETATM   16  H   UNL     1      -9.878   7.480  68.956  1.00  0.00     0.000 HD 
HETATM   17  O   UNL     1      -7.575   9.322  70.148  1.00  0.00    -0.081 OA 
HETATM   18  C   UNL     1      -9.809   9.995  69.558  1.00  0.00    -0.249 C  
HETATM   19  C   UNL     1     -10.102  10.225  68.087  1.00  0.00    -0.150 C  
HETATM   20  C   UNL     1     -11.030   9.668  70.439  1.00  0.00    -0.356 A  
HETATM   21  C   UNL     1     -10.859   9.057  71.695  1.00  0.00    -0.437 A  
HETATM   22  O   UNL     1     -10.849   9.541  67.397  1.00  0.00    -0.269 OA 
HETATM   23  C   UNL     1     -13.399   9.948  70.991  1.00  0.00    -0.322 A  
HETATM   24  C   UNL     1     -11.938   8.873  72.566  1.00  0.00    -0.219 A  
HETATM   25  C   UNL     1     -12.328  10.094  70.104  1.00  0.00    -0.144 A  
HETATM   26  C   UNL     1     -13.204   9.334  72.221  1.00  0.00    -0.535 A  
BRANCH  19  27
HETATM   27  O   UNL     1      -9.360  11.309  67.627  1.00  0.00    -0.156 OA 
BRANCH  27  28
HETATM   28  C   UNL     1      -9.942  12.549  67.919  1.00  0.00    -0.212 A  
HETATM   29  C   UNL     1      -9.734  14.860  68.485  1.00  0.00    -0.215 A  
HETATM   30  C   UNL     1      -9.141  13.632  68.279  1.00  0.00    -0.193 A  
HETATM   31  C   UNL     1     -11.094  15.041  68.272  1.00  0.00    -0.292 A  
HETATM   32  C   UNL     1     -11.896  13.980  67.870  1.00  0.00    -0.411 A  
HETATM   33  C   UNL     1     -11.486  16.466  68.484  1.00  0.00    -0.209 C  
HETATM   34  C   UNL     1     -10.177  17.141  68.936  1.00  0.00    -0.332 C  
HETATM   35  C   UNL     1     -11.313  12.717  67.697  1.00  0.00    -0.362 A  
HETATM   36  C   UNL     1      -9.044  16.108  68.915  1.00  0.00    -0.246 C  
ENDBRANCH  27  28
ENDBRANCH  19  27
ENDBRANCH  12  14
TORSDOF 3
ENDMDL
MODEL       60
REMARK 921   NORMALIZED FREE ENERGY PREDICTED BY IDOCK:   -6.18 KCAL/MOL
REMARK 922        TOTAL FREE ENERGY PREDICTED BY IDOCK:   -8.14 KCAL/MOL
REMARK 923 INTER-LIGAND FREE ENERGY PREDICTED BY IDOCK:   -6.87 KCAL/MOL
REMARK 924 INTRA-LIGAND FREE ENERGY PREDICTED BY IDOCK:   -1.27 KCAL/MOL
REMARK 927      BINDING AFFINITY PREDICTED BY RF-SCORE:    0.00 PKD
ROOT
HETATM    1  C   UNL     1      -7.289  15.871  67.036  1.00  0.00    -0.208 C  
HETATM    2  S   UNL     1      -9.039  15.962  66.480  1.00  0.00    -0.316 SA 
HETATM    3  C   UNL     1      -9.661  16.678  68.074  1.00  0.00    -0.225 C  
HETATM    4  C   UNL     1     -10.820  17.639  67.791  1.00  0.00    -0.241 C  
HETATM    5  CA  UNL     1      -8.416  17.315  68.744  1.00  0.00    -0.233 C  
HETATM    6  C   UNL     1     -10.233  15.514  68.909  1.00  0.00    -0.210 C  
HETATM    7  N   UNL     1      -7.254  16.483  68.377  1.00  0.00    -0.162 N  
HETATM    8  C   UNL     1      -8.095  18.763  68.323  1.00  0.00    -0.324 C  
HETATM    9  OXT UNL     1      -8.883  19.697  68.354  1.00  0.00    -0.340 OA 
HETATM   10  O   UNL     1      -6.793  18.952  67.978  1.00  0.00    -0.227 OA 
HETATM   11  C   UNL     1      -7.034  15.289  69.020  1.00  0.00    -0.136 C  
HETATM   12  CA  UNL     1      -6.830  14.538  67.673  1.00  0.00    -0.182 C  
HETATM   13  O   UNL     1      -7.158  15.028  70.195  1.00  0.00    -0.139 OA 
ENDROOT
BRANCH  12  14
HETATM   14  N   UNL     1      -7.697  13.363  67.409  1.00  0.00    -0.260 N  
HETATM   15  C   UNL     1      -7.562  12.200  68.134  1.00  0.00    -0.125 C  
HETATM   16  H   UNL     1      -8.406  13.417  66.678  1.00  0.00     0.000 HD 
HETATM   17  O   UNL     1      -6.691  12.067  68.991  1.00  0.00    -0.088 OA 
HETATM   18  C   UNL     1      -8.520  11.079  67.777  1.00  0.00    -0.122 C  
HETATM   19  C   UNL     1      -9.925  11.479  68.187  1.00  0.00    -0.192 C  
HETATM   20  C   UNL     1      -8.368  10.555  66.337  1.00  0.00    -0.145 A  
HETATM   21  C   UNL     1      -7.104  10.532  65.718  1.00  0.00    -0.124 A  
HETATM   22  O   UNL     1     -10.705  12.129  67.501  1.00  0.00    -0.221 OA 
HETATM   23  C   UNL     1      -9.242   9.319  64.413  1.00  0.00    -0.021 A  
HETATM   24  C   UNL     1      -6.922   9.939  64.463  1.00  0.00    -0.131 A  
HETATM   25  C   UNL     1      -9.432   9.948  65.647  1.00  0.00    -0.295 A  
HETATM   26  C   UNL     1      -7.986   9.317  63.819  1.00  0.00    -0.142 A  
BRANCH  19  27
HETATM   27  O   UNL     1     -10.180  11.030  69.480  1.00  0.00    -0.139 OA 
BRANCH  27  28
HETATM   28  C   UNL     1      -9.908   9.668  69.662  1.00  0.00    -0.215 A  
HETATM   29  C   UNL     1     -10.295   7.379  69.102  1.00  0.00    -0.208 A  
HETATM   30  C   UNL     1     -10.636   8.707  68.962  1.00  0.00    -0.179 A  
HETATM   31  C   UNL     1      -9.201   7.000  69.868  1.00  0.00    -0.144 A  
HETATM   32  C   UNL     1      -8.439   7.951  70.536  1.00  0.00    -0.126 A  
HETATM   33  C   UNL     1      -8.987   5.523  69.805  1.00  0.00    -0.143 C  
HETATM   34  C   UNL     1     -10.159   5.022  68.940  1.00  0.00    -0.215 C  
HETATM   35  C   UNL     1      -8.801   9.302  70.435  1.00  0.00    -0.271 A  
HETATM   36  C   UNL     1     -10.988   6.222  68.470  1.00  0.00    -0.421 C  
ENDBRANCH  27  28
ENDBRANCH  19  27
ENDBRANCH  12  14
TORSDOF 3
ENDMDL
MODEL       61
REMARK 921   NORMALIZED FREE ENERGY PREDICTED BY IDOCK:   -6.18 KCAL/MOL
REMARK 922        TOTAL FREE ENERGY PREDICTED BY IDOCK:   -8.14 KCAL/MOL
REMARK 923 INTER-LIGAND FREE ENERGY PREDICTED BY IDOCK:   -7.37 KCAL/MOL
REMARK 924 INTRA-LIGAND FREE ENERGY PREDICTED BY IDOCK:   -0.77 KCAL/MOL
REMARK 927      BINDING AFFINITY PREDICTED BY RF-SCORE:    0.00 PKD
ROOT
HETATM    1  C   UNL     1      -8.769   4.410  68.293  1.00  0.00    -0.101 C  
HETATM    2  S   UNL     1      -8.378   5.185  66.673  1.00  0.00    -0.107 SA 
HETATM    3  C   UNL     1      -6.541   5.050  66.886  1.00  0.00    -0.050 C  
HETATM    4  C   UNL     1      -5.880   4.806  65.525  1.00  0.00    -0.018 C  
HETATM    5  CA  UNL     1      -6.337   3.928  67.936  1.00  0.00    -0.037 C  
HETATM    6  C   UNL     1      -6.035   6.416  67.394  1.00  0.00    -0.020 C  
HETATM    7  N   UNL     1      -7.477   3.998  68.872  1.00  0.00    -0.054 N  
HETATM    8  C   UNL     1      -6.288   2.490  67.380  1.00  0.00    -0.032 C  
HETATM    9  OXT UNL     1      -5.554   2.107  66.481  1.00  0.00    -0.016 OA 
HETATM   10  O   UNL     1      -7.095   1.623  68.048  1.00  0.00    -0.038 OA 
HETATM   11  C   UNL     1      -7.501   4.962  69.851  1.00  0.00    -0.056 C  
HETATM   12  CA  UNL     1      -8.960   5.366  69.494  1.00  0.00    -0.105 C  
HETATM   13  O   UNL     1      -6.592   5.359  70.544  1.00  0.00    -0.039 OA 
ENDROOT
BRANCH  12  14
HETATM   14  N   UNL     1      -9.209   6.789  69.154  1.00  0.00    -0.138 N  
HETATM   15  C   UNL     1     -10.456   7.220  68.760  1.00  0.00    -0.200 C  
HETATM   16  H   UNL     1      -8.443   7.460  69.213  1.00  0.00     0.000 HD 
HETATM   17  O   UNL     1     -11.398   6.443  68.626  1.00  0.00    -0.313 OA 
HETATM   18  C   UNL     1     -10.582   8.701  68.457  1.00  0.00    -0.162 C  
HETATM   19  C   UNL     1     -10.431   9.486  69.746  1.00  0.00    -0.231 C  
HETATM   20  C   UNL     1      -9.713   9.179  67.278  1.00  0.00    -0.225 A  
HETATM   21  C   UNL     1      -9.462   8.326  66.187  1.00  0.00    -0.241 A  
HETATM   22  O   UNL     1      -9.367   9.853  70.232  1.00  0.00    -0.225 OA 
HETATM   23  C   UNL     1      -8.632  10.976  66.015  1.00  0.00    -0.173 A  
HETATM   24  C   UNL     1      -8.788   8.782  65.049  1.00  0.00    -0.151 A  
HETATM   25  C   UNL     1      -9.268  10.508  67.169  1.00  0.00    -0.158 A  
HETATM   26  C   UNL     1      -8.389  10.111  64.956  1.00  0.00    -0.158 A  
BRANCH  19  27
HETATM   27  O   UNL     1     -11.683   9.690  70.318  1.00  0.00    -0.240 OA 
BRANCH  27  28
HETATM   28  C   UNL     1     -12.066  11.037  70.358  1.00  0.00    -0.373 A  
HETATM   29  C   UNL     1     -13.093  12.872  71.490  1.00  0.00    -0.390 A  
HETATM   30  C   UNL     1     -12.797  11.526  71.440  1.00  0.00    -0.489 A  
HETATM   31  C   UNL     1     -12.614  13.745  70.523  1.00  0.00    -0.361 A  
HETATM   32  C   UNL     1     -11.846  13.278  69.463  1.00  0.00    -0.388 A  
HETATM   33  C   UNL     1     -13.000  15.154  70.833  1.00  0.00    -0.488 C  
HETATM   34  C   UNL     1     -13.858  15.025  72.106  1.00  0.00    -0.584 C  
HETATM   35  C   UNL     1     -11.573  11.905  69.378  1.00  0.00    -0.388 A  
HETATM   36  C   UNL     1     -13.898  13.556  72.540  1.00  0.00    -0.624 C  
ENDBRANCH  27  28
ENDBRANCH  19  27
ENDBRANCH  12  14
TORSDOF 3
ENDMDL
MODEL       62
REMARK 921   NORMALIZED FREE ENERGY PREDICTED BY IDOCK:   -6.13 KCAL/MOL
REMARK 922        TOTAL FREE ENERGY PREDICTED BY IDOCK:   -8.08 KCAL/MOL
REMARK 923 INTER-LIGAND FREE ENERGY PREDICTED BY IDOCK:   -6.86 KCAL/MOL
REMARK 924 INTRA-LIGAND FREE ENERGY PREDICTED BY IDOCK:   -1.21 KCAL/MOL
REMARK 927      BINDING AFFINITY PREDICTED BY RF-SCORE:    0.00 PKD
ROOT
HETATM    1  C   UNL     1      -9.885   5.201  68.950  1.00  0.00    -0.172 C  
HETATM    2  S   UNL     1      -8.134   5.760  68.912  1.00  0.00    -0.102 SA 
HETATM    3  C   UNL     1      -7.787   5.270  70.667  1.00  0.00    -0.089 C  
HETATM    4  C   UNL     1      -6.335   4.799  70.793  1.00  0.00    -0.019 C  
HETATM    5  CA  UNL     1      -8.864   4.210  71.012  1.00  0.00    -0.094 C  
HETATM    6  C   UNL     1      -7.926   6.538  71.534  1.00  0.00    -0.104 C  
HETATM    7  N   UNL     1     -10.087   4.579  70.271  1.00  0.00    -0.212 N  
HETATM    8  C   UNL     1      -8.519   2.756  70.632  1.00  0.00    -0.053 C  
HETATM    9  OXT UNL     1      -7.498   2.167  70.954  1.00  0.00    -0.033 OA 
HETATM   10  O   UNL     1      -9.514   2.122  69.955  1.00  0.00    -0.113 OA 
HETATM   11  C   UNL     1     -10.887   5.596  70.733  1.00  0.00    -0.224 C  
HETATM   12  CA  UNL     1     -10.946   6.261  69.328  1.00  0.00    -0.369 C  
HETATM   13  O   UNL     1     -11.207   5.851  71.872  1.00  0.00    -0.268 OA 
ENDROOT
BRANCH  12  14
HETATM   14  N   UNL     1     -10.511   7.676  69.225  1.00  0.00    -0.218 N  
HETATM   15  C   UNL     1     -10.640   8.378  68.047  1.00  0.00    -0.130 C  
HETATM   16  H   UNL     1     -10.109   8.138  70.041  1.00  0.00     0.000 HD 
HETATM   17  O   UNL     1     -11.071   7.853  67.023  1.00  0.00    -0.078 OA 
HETATM   18  C   UNL     1     -10.173   9.821  68.078  1.00  0.00    -0.229 C  
HETATM   19  C   UNL     1     -11.106  10.625  68.964  1.00  0.00    -0.254 C  
HETATM   20  C   UNL     1      -8.669   9.990  68.366  1.00  0.00    -0.117 A  
HETATM   21  C   UNL     1      -7.745   9.032  67.907  1.00  0.00    -0.097 A  
HETATM   22  O   UNL     1     -11.001  10.746  70.179  1.00  0.00    -0.263 OA 
HETATM   23  C   UNL     1      -6.770  11.376  69.048  1.00  0.00    -0.092 A  
HETATM   24  C   UNL     1      -6.366   9.233  68.041  1.00  0.00    -0.054 A  
HETATM   25  C   UNL     1      -8.147  11.157  68.952  1.00  0.00    -0.115 A  
HETATM   26  C   UNL     1      -5.879  10.411  68.595  1.00  0.00    -0.040 A  
BRANCH  19  27
HETATM   27  O   UNL     1     -12.127  11.171  68.191  1.00  0.00    -0.633 OA 
BRANCH  27  28
HETATM   28  C   UNL     1     -11.786  12.392  67.596  1.00  0.00    -0.346 A  
HETATM   29  C   UNL     1     -11.637  13.794  65.668  1.00  0.00    -0.339 A  
HETATM   30  C   UNL     1     -11.907  12.558  66.217  1.00  0.00    -0.453 A  
HETATM   31  C   UNL     1     -11.320  14.879  66.474  1.00  0.00    -0.319 A  
HETATM   32  C   UNL     1     -11.239  14.738  67.854  1.00  0.00    -0.318 A  
HETATM   33  C   UNL     1     -11.148  16.120  65.661  1.00  0.00    -0.023 C  
HETATM   34  C   UNL     1     -11.334  15.634  64.211  1.00  0.00    -0.181 C  
HETATM   35  C   UNL     1     -11.470  13.477  68.422  1.00  0.00    -0.346 A  
HETATM   36  C   UNL     1     -11.671  14.138  64.220  1.00  0.00    -0.365 C  
ENDBRANCH  27  28
ENDBRANCH  19  27
ENDBRANCH  12  14
TORSDOF 3
ENDMDL
MODEL       63
REMARK 921   NORMALIZED FREE ENERGY PREDICTED BY IDOCK:   -6.10 KCAL/MOL
REMARK 922        TOTAL FREE ENERGY PREDICTED BY IDOCK:   -8.05 KCAL/MOL
REMARK 923 INTER-LIGAND FREE ENERGY PREDICTED BY IDOCK:   -7.11 KCAL/MOL
REMARK 924 INTRA-LIGAND FREE ENERGY PREDICTED BY IDOCK:   -0.94 KCAL/MOL
REMARK 927      BINDING AFFINITY PREDICTED BY RF-SCORE:    0.00 PKD
ROOT
HETATM    1  C   UNL     1      -9.494   4.808  68.095  1.00  0.00    -0.141 C  
HETATM    2  S   UNL     1      -7.830   5.501  67.732  1.00  0.00    -0.097 SA 
HETATM    3  C   UNL     1      -6.983   4.567  69.092  1.00  0.00    -0.051 C  
HETATM    4  C   UNL     1      -5.559   4.203  68.660  1.00  0.00    -0.013 C  
HETATM    5  CA  UNL     1      -7.914   3.366  69.399  1.00  0.00    -0.049 C  
HETATM    6  C   UNL     1      -6.858   5.522  70.297  1.00  0.00    -0.052 C  
HETATM    7  N   UNL     1      -9.300   3.824  69.176  1.00  0.00    -0.161 N  
HETATM    8  C   UNL     1      -7.700   2.112  68.527  1.00  0.00    -0.053 C  
HETATM    9  OXT UNL     1      -6.631   1.544  68.360  1.00  0.00    -0.028 OA 
HETATM   10  O   UNL     1      -8.851   1.613  68.002  1.00  0.00    -0.089 OA 
HETATM   11  C   UNL     1      -9.926   4.598  70.122  1.00  0.00    -0.233 C  
HETATM   12  CA  UNL     1     -10.394   5.625  69.051  1.00  0.00    -0.243 C  
HETATM   13  O   UNL     1      -9.896   4.493  71.327  1.00  0.00    -0.171 OA 
ENDROOT
BRANCH  12  14
HETATM   14  N   UNL     1     -10.005   7.043  69.251  1.00  0.00    -0.159 N  
HETATM   15  C   UNL     1     -10.411   8.024  68.374  1.00  0.00    -0.199 C  
HETATM   16  H   UNL     1      -9.426   7.296  70.052  1.00  0.00     0.000 HD 
HETATM   17  O   UNL     1     -11.066   7.764  67.368  1.00  0.00    -0.092 OA 
HETATM   18  C   UNL     1      -9.959   9.435  68.700  1.00  0.00    -0.187 C  
HETATM   19  C   UNL     1     -10.665   9.903  69.959  1.00  0.00    -0.292 C  
HETATM   20  C   UNL     1      -8.431   9.628  68.680  1.00  0.00    -0.119 A  
HETATM   21  C   UNL     1      -7.633   8.897  67.780  1.00  0.00    -0.093 A  
HETATM   22  O   UNL     1     -10.279   9.701  71.104  1.00  0.00    -0.272 OA 
HETATM   23  C   UNL     1      -6.435  10.912  69.279  1.00  0.00    -0.071 A  
HETATM   24  C   UNL     1      -6.263   9.152  67.653  1.00  0.00    -0.058 A  
HETATM   25  C   UNL     1      -7.794  10.629  69.435  1.00  0.00    -0.126 A  
HETATM   26  C   UNL     1      -5.668  10.171  68.389  1.00  0.00    -0.041 A  
BRANCH  19  27
HETATM   27  O   UNL     1     -11.842  10.563  69.617  1.00  0.00    -0.263 OA 
BRANCH  27  28
HETATM   28  C   UNL     1     -12.166  11.614  70.483  1.00  0.00    -0.361 A  
HETATM   29  C   UNL     1     -12.070  13.928  71.069  1.00  0.00    -0.357 A  
HETATM   30  C   UNL     1     -11.673  12.896  70.244  1.00  0.00    -0.187 A  
HETATM   31  C   UNL     1     -12.999  13.717  72.079  1.00  0.00    -0.437 A  
HETATM   32  C   UNL     1     -13.532  12.453  72.300  1.00  0.00    -0.428 A  
HETATM   33  C   UNL     1     -13.326  14.993  72.782  1.00  0.00    -0.580 C  
HETATM   34  C   UNL     1     -12.405  16.027  72.109  1.00  0.00    -0.557 C  
HETATM   35  C   UNL     1     -13.105  11.387  71.495  1.00  0.00    -0.438 A  
HETATM   36  C   UNL     1     -11.612  15.342  70.989  1.00  0.00    -0.410 C  
ENDBRANCH  27  28
ENDBRANCH  19  27
ENDBRANCH  12  14
TORSDOF 3
ENDMDL
MODEL       64
REMARK 921   NORMALIZED FREE ENERGY PREDICTED BY IDOCK:   -6.04 KCAL/MOL
REMARK 922        TOTAL FREE ENERGY PREDICTED BY IDOCK:   -7.98 KCAL/MOL
REMARK 923 INTER-LIGAND FREE ENERGY PREDICTED BY IDOCK:   -6.46 KCAL/MOL
REMARK 924 INTRA-LIGAND FREE ENERGY PREDICTED BY IDOCK:   -1.52 KCAL/MOL
REMARK 927      BINDING AFFINITY PREDICTED BY RF-SCORE:    0.00 PKD
ROOT
HETATM    1  C   UNL     1      -7.672  10.473  67.163  1.00  0.00    -0.101 C  
HETATM    2  S   UNL     1      -8.984  10.512  65.877  1.00  0.00    -0.173 SA 
HETATM    3  C   UNL     1     -10.310  11.088  67.039  1.00  0.00    -0.228 C  
HETATM    4  C   UNL     1     -11.286  12.005  66.295  1.00  0.00    -0.415 C  
HETATM    5  CA  UNL     1      -9.554  11.741  68.224  1.00  0.00    -0.199 C  
HETATM    6  C   UNL     1     -11.108   9.843  67.479  1.00  0.00    -0.141 C  
HETATM    7  N   UNL     1      -8.291  10.996  68.395  1.00  0.00    -0.132 N  
HETATM    8  C   UNL     1      -9.188  13.229  68.047  1.00  0.00    -0.217 C  
HETATM    9  OXT UNL     1      -9.973  14.117  67.751  1.00  0.00    -0.228 OA 
HETATM   10  O   UNL     1      -7.889  13.506  68.340  1.00  0.00    -0.133 OA 
HETATM   11  C   UNL     1      -8.296   9.774  69.024  1.00  0.00    -0.127 C  
HETATM   12  CA  UNL     1      -7.450   9.126  67.891  1.00  0.00    -0.084 C  
HETATM   13  O   UNL     1      -8.916   9.430  70.004  1.00  0.00    -0.175 OA 
ENDROOT
BRANCH  12  14
HETATM   14  N   UNL     1      -8.013   7.929  67.219  1.00  0.00    -0.116 N  
HETATM   15  C   UNL     1      -7.718   6.658  67.661  1.00  0.00    -0.107 C  
HETATM   16  H   UNL     1      -8.630   8.048  66.415  1.00  0.00     0.000 HD 
HETATM   17  O   UNL     1      -6.942   6.459  68.593  1.00  0.00    -0.074 OA 
HETATM   18  C   UNL     1      -8.371   5.521  66.899  1.00  0.00    -0.108 C  
HETATM   19  C   UNL     1      -9.865   5.545  67.155  1.00  0.00    -0.154 C  
HETATM   20  C   UNL     1      -7.949   5.430  65.420  1.00  0.00    -0.107 A  
HETATM   21  C   UNL     1      -6.646   5.794  65.028  1.00  0.00    -0.043 A  
HETATM   22  O   UNL     1     -10.683   6.206  66.524  1.00  0.00    -0.228 OA 
HETATM   23  C   UNL     1      -8.317   4.612  63.142  1.00  0.00    -0.107 A  
HETATM   24  C   UNL     1      -6.201   5.594  63.716  1.00  0.00    -0.025 A  
HETATM   25  C   UNL     1      -8.775   4.849  64.441  1.00  0.00    -0.140 A  
HETATM   26  C   UNL     1      -7.030   4.987  62.779  1.00  0.00    -0.034 A  
BRANCH  19  27
HETATM   27  O   UNL     1     -10.165   4.734  68.246  1.00  0.00    -0.093 OA 
BRANCH  27  28
HETATM   28  C   UNL     1     -10.276   5.437  69.452  1.00  0.00    -0.264 A  
HETATM   29  C   UNL     1     -11.354   7.083  70.806  1.00  0.00    -0.339 A  
HETATM   30  C   UNL     1     -11.214   6.460  69.584  1.00  0.00    -0.483 A  
HETATM   31  C   UNL     1     -10.629   6.658  71.911  1.00  0.00    -0.237 A  
HETATM   32  C   UNL     1      -9.722   5.610  71.804  1.00  0.00    -0.192 A  
HETATM   33  C   UNL     1     -11.007   7.432  73.131  1.00  0.00    -0.408 C  
HETATM   34  C   UNL     1     -12.029   8.459  72.609  1.00  0.00    -0.346 C  
HETATM   35  C   UNL     1      -9.540   4.996  70.557  1.00  0.00    -0.252 A  
HETATM   36  C   UNL     1     -12.268   8.218  71.114  1.00  0.00    -0.253 C  
ENDBRANCH  27  28
ENDBRANCH  19  27
ENDBRANCH  12  14
TORSDOF 3
ENDMDL
MODEL       65
REMARK 921   NORMALIZED FREE ENERGY PREDICTED BY IDOCK:   -6.04 KCAL/MOL
REMARK 922        TOTAL FREE ENERGY PREDICTED BY IDOCK:   -7.98 KCAL/MOL
REMARK 923 INTER-LIGAND FREE ENERGY PREDICTED BY IDOCK:   -6.80 KCAL/MOL
REMARK 924 INTRA-LIGAND FREE ENERGY PREDICTED BY IDOCK:   -1.18 KCAL/MOL
REMARK 927      BINDING AFFINITY PREDICTED BY RF-SCORE:    0.00 PKD
ROOT
HETATM    1  C   UNL     1     -10.478   5.060  70.312  1.00  0.00    -0.173 C  
HETATM    2  S   UNL     1      -8.674   4.725  70.419  1.00  0.00    -0.100 SA 
HETATM    3  C   UNL     1      -8.404   5.848  71.870  1.00  0.00    -0.119 C  
HETATM    4  C   UNL     1      -7.303   5.274  72.768  1.00  0.00    -0.095 C  
HETATM    5  CA  UNL     1      -9.797   5.994  72.534  1.00  0.00    -0.164 C  
HETATM    6  C   UNL     1      -7.881   7.191  71.320  1.00  0.00    -0.098 C  
HETATM    7  N   UNL     1     -10.799   5.938  71.452  1.00  0.00    -0.266 N  
HETATM    8  C   UNL     1     -10.168   4.905  73.560  1.00  0.00    -0.184 C  
HETATM    9  OXT UNL     1      -9.485   4.578  74.519  1.00  0.00    -0.115 OA 
HETATM   10  O   UNL     1     -11.403   4.371  73.361  1.00  0.00    -0.300 OA 
HETATM   11  C   UNL     1     -11.019   7.041  70.662  1.00  0.00    -0.260 C  
HETATM   12  CA  UNL     1     -10.920   6.196  69.360  1.00  0.00    -0.385 C  
HETATM   13  O   UNL     1     -11.077   8.205  70.987  1.00  0.00    -0.244 OA 
ENDROOT
BRANCH  12  14
HETATM   14  N   UNL     1      -9.919   6.618  68.348  1.00  0.00    -0.141 N  
HETATM   15  C   UNL     1     -10.256   6.741  67.019  1.00  0.00    -0.237 C  
HETATM   16  H   UNL     1      -8.963   6.820  68.643  1.00  0.00     0.000 HD 
HETATM   17  O   UNL     1     -11.379   6.461  66.607  1.00  0.00    -0.171 OA 
HETATM   18  C   UNL     1      -9.146   7.194  66.091  1.00  0.00    -0.155 C  
HETATM   19  C   UNL     1      -8.796   8.637  66.405  1.00  0.00    -0.140 C  
HETATM   20  C   UNL     1      -7.955   6.221  66.010  1.00  0.00    -0.114 A  
HETATM   21  C   UNL     1      -8.161   4.833  66.123  1.00  0.00    -0.107 A  
HETATM   22  O   UNL     1      -7.995   9.002  67.258  1.00  0.00    -0.099 OA 
HETATM   23  C   UNL     1      -5.625   5.743  65.431  1.00  0.00    -0.016 A  
HETATM   24  C   UNL     1      -7.116   3.925  65.920  1.00  0.00    -0.067 A  
HETATM   25  C   UNL     1      -6.659   6.651  65.674  1.00  0.00    -0.050 A  
HETATM   26  C   UNL     1      -5.853   4.379  65.557  1.00  0.00    -0.022 A  
BRANCH  19  27
HETATM   27  O   UNL     1      -9.554   9.487  65.604  1.00  0.00    -0.245 OA 
BRANCH  27  28
HETATM   28  C   UNL     1     -10.137  10.546  66.310  1.00  0.00    -0.232 A  
HETATM   29  C   UNL     1     -11.277  11.381  68.236  1.00  0.00    -0.326 A  
HETATM   30  C   UNL     1     -10.780  10.310  67.525  1.00  0.00    -0.348 A  
HETATM   31  C   UNL     1     -11.083  12.683  67.794  1.00  0.00    -0.287 A  
HETATM   32  C   UNL     1     -10.404  12.936  66.608  1.00  0.00    -0.258 A  
HETATM   33  C   UNL     1     -11.641  13.669  68.767  1.00  0.00    -0.359 C  
HETATM   34  C   UNL     1     -12.282  12.786  69.853  1.00  0.00    -0.245 C  
HETATM   35  C   UNL     1      -9.930  11.852  65.854  1.00  0.00    -0.261 A  
HETATM   36  C   UNL     1     -12.027  11.311  69.521  1.00  0.00    -0.421 C  
ENDBRANCH  27  28
ENDBRANCH  19  27
ENDBRANCH  12  14
TORSDOF 3
ENDMDL
MODEL       66
REMARK 921   NORMALIZED FREE ENERGY PREDICTED BY IDOCK:   -6.03 KCAL/MOL
REMARK 922        TOTAL FREE ENERGY PREDICTED BY IDOCK:   -7.96 KCAL/MOL
REMARK 923 INTER-LIGAND FREE ENERGY PREDICTED BY IDOCK:   -7.40 KCAL/MOL
REMARK 924 INTRA-LIGAND FREE ENERGY PREDICTED BY IDOCK:   -0.56 KCAL/MOL
REMARK 927      BINDING AFFINITY PREDICTED BY RF-SCORE:    0.00 PKD
ROOT
HETATM    1  C   UNL     1      -9.734  14.714  65.687  1.00  0.00    -0.266 C  
HETATM    2  S   UNL     1      -9.415  12.932  66.002  1.00  0.00    -0.025 SA 
HETATM    3  C   UNL     1     -11.037  12.641  66.852  1.00  0.00    -0.273 C  
HETATM    4  C   UNL     1     -11.532  11.223  66.549  1.00  0.00     0.016 C  
HETATM    5  CA  UNL     1     -11.960  13.788  66.367  1.00  0.00    -0.438 C  
HETATM    6  C   UNL     1     -10.778  12.712  68.371  1.00  0.00    -0.260 C  
HETATM    7  N   UNL     1     -11.106  14.974  66.162  1.00  0.00    -0.338 N  
HETATM    8  C   UNL     1     -12.710  13.530  65.044  1.00  0.00    -0.344 C  
HETATM    9  OXT UNL     1     -13.404  12.553  64.807  1.00  0.00    -0.773 OA 
HETATM   10  O   UNL     1     -12.606  14.553  64.154  1.00  0.00    -0.730 OA 
HETATM   11  C   UNL     1     -10.692  15.715  67.243  1.00  0.00    -0.305 C  
HETATM   12  CA  UNL     1      -9.217  15.712  66.750  1.00  0.00    -0.251 C  
HETATM   13  O   UNL     1     -11.320  16.034  68.227  1.00  0.00    -0.353 OA 
ENDROOT
BRANCH  12  14
HETATM   14  N   UNL     1      -8.188  15.187  67.682  1.00  0.00    -0.153 N  
HETATM   15  C   UNL     1      -6.847  15.413  67.465  1.00  0.00    -0.194 C  
HETATM   16  H   UNL     1      -8.479  14.649  68.499  1.00  0.00     0.000 HD 
HETATM   17  O   UNL     1      -6.443  16.012  66.471  1.00  0.00    -0.115 OA 
HETATM   18  C   UNL     1      -5.900  14.837  68.500  1.00  0.00    -0.097 C  
HETATM   19  C   UNL     1      -6.081  15.584  69.808  1.00  0.00    -0.153 C  
HETATM   20  C   UNL     1      -5.933  13.300  68.599  1.00  0.00    -0.083 A  
HETATM   21  C   UNL     1      -6.174  12.519  67.453  1.00  0.00    -0.158 A  
HETATM   22  O   UNL     1      -6.909  15.314  70.670  1.00  0.00     0.200 OA 
HETATM   23  C   UNL     1      -5.444  11.229  69.808  1.00  0.00    -0.058 A  
HETATM   24  C   UNL     1      -6.078  11.123  67.494  1.00  0.00    -0.052 A  
HETATM   25  C   UNL     1      -5.581  12.619  69.778  1.00  0.00    -0.101 A  
HETATM   26  C   UNL     1      -5.696  10.480  68.666  1.00  0.00    -0.040 A  
BRANCH  19  27
HETATM   27  O   UNL     1      -5.189  16.652  69.864  1.00  0.00    -0.151 OA 
BRANCH  27  28
HETATM   28  C   UNL     1      -5.667  17.811  69.240  1.00  0.00    -0.213 A  
HETATM   29  C   UNL     1      -5.676  19.321  67.389  1.00  0.00    -0.171 A  
HETATM   30  C   UNL     1      -5.134  18.220  68.018  1.00  0.00    -0.164 A  
HETATM   31  C   UNL     1      -6.780  19.975  67.919  1.00  0.00    -0.295 A  
HETATM   32  C   UNL     1      -7.350  19.550  69.114  1.00  0.00    -0.364 A  
HETATM   33  C   UNL     1      -7.230  21.082  67.024  1.00  0.00    -0.307 C  
HETATM   34  C   UNL     1      -6.194  21.073  65.884  1.00  0.00    -0.273 C  
HETATM   35  C   UNL     1      -6.782  18.458  69.785  1.00  0.00     0.057 A  
HETATM   36  C   UNL     1      -5.206  19.922  66.110  1.00  0.00    -0.172 C  
ENDBRANCH  27  28
ENDBRANCH  19  27
ENDBRANCH  12  14
TORSDOF 3
ENDMDL
MODEL       67
REMARK 921   NORMALIZED FREE ENERGY PREDICTED BY IDOCK:   -6.02 KCAL/MOL
REMARK 922        TOTAL FREE ENERGY PREDICTED BY IDOCK:   -7.95 KCAL/MOL
REMARK 923 INTER-LIGAND FREE ENERGY PREDICTED BY IDOCK:   -7.19 KCAL/MOL
REMARK 924 INTRA-LIGAND FREE ENERGY PREDICTED BY IDOCK:   -0.76 KCAL/MOL
REMARK 927      BINDING AFFINITY PREDICTED BY RF-SCORE:    0.00 PKD
ROOT
HETATM    1  C   UNL     1      -9.947   9.020  69.322  1.00  0.00    -0.188 C  
HETATM    2  S   UNL     1      -9.898   8.366  67.605  1.00  0.00    -0.186 SA 
HETATM    3  C   UNL     1      -8.081   7.992  67.644  1.00  0.00    -0.124 C  
HETATM    4  C   UNL     1      -7.793   6.744  66.803  1.00  0.00    -0.107 C  
HETATM    5  CA  UNL     1      -7.723   7.880  69.147  1.00  0.00    -0.100 C  
HETATM    6  C   UNL     1      -7.355   9.171  66.963  1.00  0.00    -0.090 C  
HETATM    7  N   UNL     1      -8.592   8.829  69.871  1.00  0.00    -0.128 N  
HETATM    8  C   UNL     1      -7.931   6.491  69.784  1.00  0.00    -0.120 C  
HETATM    9  OXT UNL     1      -7.472   5.443  69.355  1.00  0.00    -0.067 OA 
HETATM   10  O   UNL     1      -8.621   6.529  70.955  1.00  0.00    -0.132 OA 
HETATM   11  C   UNL     1      -8.297  10.171  69.863  1.00  0.00    -0.089 C  
HETATM   12  CA  UNL     1      -9.760  10.546  69.492  1.00  0.00    -0.119 C  
HETATM   13  O   UNL     1      -7.218  10.710  69.957  1.00  0.00    -0.147 OA 
ENDROOT
BRANCH  12  14
HETATM   14  N   UNL     1      -9.965  11.362  68.268  1.00  0.00    -0.192 N  
HETATM   15  C   UNL     1     -11.226  11.584  67.762  1.00  0.00    -0.279 C  
HETATM   16  H   UNL     1      -9.156  11.765  67.793  1.00  0.00     0.000 HD 
HETATM   17  O   UNL     1     -12.226  11.081  68.268  1.00  0.00    -0.582 OA 
HETATM   18  C   UNL     1     -11.299  12.448  66.517  1.00  0.00    -0.392 C  
HETATM   19  C   UNL     1     -10.908  13.869  66.875  1.00  0.00    -0.286 C  
HETATM   20  C   UNL     1     -10.585  11.847  65.291  1.00  0.00    -0.320 A  
HETATM   21  C   UNL     1     -10.555  10.454  65.097  1.00  0.00    -0.034 A  
HETATM   22  O   UNL     1      -9.763  14.304  66.898  1.00  0.00    -0.247 OA 
HETATM   23  C   UNL     1      -9.590  12.095  63.068  1.00  0.00     0.402 A  
HETATM   24  C   UNL     1     -10.029   9.895  63.927  1.00  0.00     0.434 A  
HETATM   25  C   UNL     1     -10.077  12.651  64.255  1.00  0.00    -0.292 A  
HETATM   26  C   UNL     1      -9.563  10.716  62.906  1.00  0.00    -0.358 A  
BRANCH  19  27
HETATM   27  O   UNL     1     -12.046  14.595  67.216  1.00  0.00    -0.358 OA 
BRANCH  27  28
HETATM   28  C   UNL     1     -12.073  14.994  68.558  1.00  0.00    -0.142 A  
HETATM   29  C   UNL     1     -12.468  14.506  70.863  1.00  0.00    -0.415 A  
HETATM   30  C   UNL     1     -12.525  14.115  69.542  1.00  0.00    -0.165 A  
HETATM   31  C   UNL     1     -11.906  15.723  71.223  1.00  0.00    -0.491 A  
HETATM   32  C   UNL     1     -11.411  16.590  70.256  1.00  0.00    -0.073 A  
HETATM   33  C   UNL     1     -11.888  15.888  72.707  1.00  0.00    -0.583 C  
HETATM   34  C   UNL     1     -12.592  14.619  73.223  1.00  0.00    -0.505 C  
HETATM   35  C   UNL     1     -11.501  16.222  68.906  1.00  0.00    -0.282 A  
HETATM   36  C   UNL     1     -12.945  13.719  72.033  1.00  0.00    -0.437 C  
ENDBRANCH  27  28
ENDBRANCH  19  27
ENDBRANCH  12  14
TORSDOF 3
ENDMDL
MODEL       68
REMARK 921   NORMALIZED FREE ENERGY PREDICTED BY IDOCK:   -6.00 KCAL/MOL
REMARK 922        TOTAL FREE ENERGY PREDICTED BY IDOCK:   -7.92 KCAL/MOL
REMARK 923 INTER-LIGAND FREE ENERGY PREDICTED BY IDOCK:   -6.66 KCAL/MOL
REMARK 924 INTRA-LIGAND FREE ENERGY PREDICTED BY IDOCK:   -1.26 KCAL/MOL
REMARK 927      BINDING AFFINITY PREDICTED BY RF-SCORE:    0.00 PKD
ROOT
HETATM    1  C   UNL     1     -10.691  15.741  66.140  1.00  0.00    -0.290 C  
HETATM    2  S   UNL     1     -11.318  15.224  67.789  1.00  0.00    -0.298 SA 
HETATM    3  C   UNL     1     -10.101  16.254  68.737  1.00  0.00    -0.243 C  
HETATM    4  C   UNL     1     -10.751  16.762  70.029  1.00  0.00    -0.056 C  
HETATM    5  CA  UNL     1      -9.642  17.353  67.745  1.00  0.00    -0.264 C  
HETATM    6  C   UNL     1      -8.940  15.328  69.151  1.00  0.00    -0.233 C  
HETATM    7  N   UNL     1      -9.646  16.750  66.398  1.00  0.00    -0.267 N  
HETATM    8  C   UNL     1     -10.527  18.615  67.686  1.00  0.00    -0.423 C  
HETATM    9  OXT UNL     1     -10.856  19.290  68.649  1.00  0.00     0.165 OA 
HETATM   10  O   UNL     1     -10.859  18.985  66.420  1.00  0.00    -0.345 OA 
HETATM   11  C   UNL     1      -8.619  15.922  66.014  1.00  0.00    -0.095 C  
HETATM   12  CA  UNL     1      -9.610  14.842  65.494  1.00  0.00    -0.145 C  
HETATM   13  O   UNL     1      -7.433  16.040  66.224  1.00  0.00    -0.024 OA 
ENDROOT
BRANCH  12  14
HETATM   14  N   UNL     1      -9.485  13.475  66.057  1.00  0.00    -0.488 N  
HETATM   15  C   UNL     1     -10.087  12.396  65.448  1.00  0.00    -0.269 C  
HETATM   16  H   UNL     1      -8.945  13.331  66.910  1.00  0.00     0.000 HD 
HETATM   17  O   UNL     1     -10.789  12.523  64.448  1.00  0.00    -0.301 OA 
HETATM   18  C   UNL     1      -9.870  11.051  66.115  1.00  0.00    -0.268 C  
HETATM   19  C   UNL     1      -8.413  10.654  65.967  1.00  0.00    -0.165 C  
HETATM   20  C   UNL     1     -10.447  10.953  67.540  1.00  0.00    -0.252 A  
HETATM   21  C   UNL     1     -11.622  11.648  67.881  1.00  0.00    -0.369 A  
HETATM   22  O   UNL     1      -7.508  10.981  66.727  1.00  0.00    -0.125 OA 
HETATM   23  C   UNL     1     -10.562   9.855  69.725  1.00  0.00    -0.296 A  
HETATM   24  C   UNL     1     -12.236  11.469  69.125  1.00  0.00    -0.221 A  
HETATM   25  C   UNL     1      -9.926  10.065  68.498  1.00  0.00    -0.177 A  
HETATM   26  C   UNL     1     -11.716  10.560  70.040  1.00  0.00    -0.394 A  
BRANCH  19  27
HETATM   27  O   UNL     1      -8.250   9.894  64.812  1.00  0.00    -0.135 OA 
BRANCH  27  28
HETATM   28  C   UNL     1      -7.650   8.650  65.042  1.00  0.00    -0.098 A  
HETATM   29  C   UNL     1      -7.779   6.390  65.804  1.00  0.00    -0.092 A  
HETATM   30  C   UNL     1      -8.369   7.628  65.660  1.00  0.00    -0.143 A  
HETATM   31  C   UNL     1      -6.518   6.135  65.281  1.00  0.00    -0.039 A  
HETATM   32  C   UNL     1      -5.808   7.132  64.623  1.00  0.00    -0.037 A  
HETATM   33  C   UNL     1      -6.127   4.710  65.493  1.00  0.00    -0.026 C  
HETATM   34  C   UNL     1      -7.305   4.124  66.295  1.00  0.00    -0.080 C  
HETATM   35  C   UNL     1      -6.380   8.407  64.507  1.00  0.00    -0.066 A  
HETATM   36  C   UNL     1      -8.379   5.203  66.475  1.00  0.00    -0.108 C  
ENDBRANCH  27  28
ENDBRANCH  19  27
ENDBRANCH  12  14
TORSDOF 3
ENDMDL
MODEL       69
REMARK 921   NORMALIZED FREE ENERGY PREDICTED BY IDOCK:   -5.98 KCAL/MOL
REMARK 922        TOTAL FREE ENERGY PREDICTED BY IDOCK:   -7.91 KCAL/MOL
REMARK 923 INTER-LIGAND FREE ENERGY PREDICTED BY IDOCK:   -6.60 KCAL/MOL
REMARK 924 INTRA-LIGAND FREE ENERGY PREDICTED BY IDOCK:   -1.31 KCAL/MOL
REMARK 927      BINDING AFFINITY PREDICTED BY RF-SCORE:    0.00 PKD
ROOT
HETATM    1  C   UNL     1     -11.076  12.676  67.906  1.00  0.00    -0.247 C  
HETATM    2  S   UNL     1      -9.406  12.758  68.670  1.00  0.00     0.116 SA 
HETATM    3  C   UNL     1      -8.552  13.247  67.097  1.00  0.00    -0.193 C  
HETATM    4  C   UNL     1      -7.382  14.184  67.415  1.00  0.00    -0.143 C  
HETATM    5  CA  UNL     1      -9.664  13.850  66.203  1.00  0.00    -0.272 C  
HETATM    6  C   UNL     1      -7.949  11.966  66.485  1.00  0.00     0.041 C  
HETATM    7  N   UNL     1     -10.910  13.120  66.510  1.00  0.00    -0.278 N  
HETATM    8  C   UNL     1      -9.950  15.351  66.408  1.00  0.00    -0.278 C  
HETATM    9  OXT UNL     1      -9.111  16.240  66.371  1.00  0.00    -0.248 OA 
HETATM   10  O   UNL     1     -11.271  15.637  66.557  1.00  0.00    -0.208 OA 
HETATM   11  C   UNL     1     -11.117  11.867  65.987  1.00  0.00    -0.322 C  
HETATM   12  CA  UNL     1     -11.530  11.296  67.374  1.00  0.00    -0.221 C  
HETATM   13  O   UNL     1     -10.865  11.459  64.876  1.00  0.00    -0.297 OA 
ENDROOT
BRANCH  12  14
HETATM   14  N   UNL     1     -10.772  10.126  67.882  1.00  0.00    -0.250 N  
HETATM   15  C   UNL     1     -11.030   9.595  69.126  1.00  0.00    -0.151 C  
HETATM   16  H   UNL     1     -10.047   9.707  67.299  1.00  0.00     0.000 HD 
HETATM   17  O   UNL     1     -11.858  10.093  69.885  1.00  0.00    -0.217 OA 
HETATM   18  C   UNL     1     -10.197   8.390  69.520  1.00  0.00    -0.207 C  
HETATM   19  C   UNL     1     -10.587   7.211  68.648  1.00  0.00    -0.189 C  
HETATM   20  C   UNL     1      -8.686   8.674  69.622  1.00  0.00    -0.132 A  
HETATM   21  C   UNL     1      -8.227   9.933  70.052  1.00  0.00    -0.187 A  
HETATM   22  O   UNL     1     -10.116   6.958  67.545  1.00  0.00    -0.149 OA 
HETATM   23  C   UNL     1      -6.369   7.890  69.707  1.00  0.00    -0.030 A  
HETATM   24  C   UNL     1      -6.866  10.169  70.279  1.00  0.00    -0.150 A  
HETATM   25  C   UNL     1      -7.723   7.666  69.441  1.00  0.00    -0.107 A  
HETATM   26  C   UNL     1      -5.940   9.144  70.123  1.00  0.00    -0.034 A  
BRANCH  19  27
HETATM   27  O   UNL     1     -11.594   6.481  69.273  1.00  0.00    -0.309 OA 
BRANCH  27  28
HETATM   28  C   UNL     1     -11.160   5.790  70.411  1.00  0.00    -0.217 A  
HETATM   29  C   UNL     1      -9.611   4.322  71.485  1.00  0.00    -0.234 A  
HETATM   30  C   UNL     1     -10.066   4.929  70.333  1.00  0.00    -0.316 A  
HETATM   31  C   UNL     1     -10.182   4.612  72.717  1.00  0.00    -0.232 A  
HETATM   32  C   UNL     1     -11.244   5.502  72.815  1.00  0.00    -0.358 A  
HETATM   33  C   UNL     1      -9.473   3.895  73.818  1.00  0.00    -0.118 C  
HETATM   34  C   UNL     1      -8.415   3.051  73.083  1.00  0.00    -0.080 C  
HETATM   35  C   UNL     1     -11.743   6.094  71.646  1.00  0.00    -0.290 A  
HETATM   36  C   UNL     1      -8.492   3.345  71.580  1.00  0.00    -0.093 C  
ENDBRANCH  27  28
ENDBRANCH  19  27
ENDBRANCH  12  14
TORSDOF 3
ENDMDL
MODEL       70
REMARK 921   NORMALIZED FREE ENERGY PREDICTED BY IDOCK:   -5.98 KCAL/MOL
REMARK 922        TOTAL FREE ENERGY PREDICTED BY IDOCK:   -7.90 KCAL/MOL
REMARK 923 INTER-LIGAND FREE ENERGY PREDICTED BY IDOCK:   -7.51 KCAL/MOL
REMARK 924 INTRA-LIGAND FREE ENERGY PREDICTED BY IDOCK:   -0.39 KCAL/MOL
REMARK 927      BINDING AFFINITY PREDICTED BY RF-SCORE:    0.00 PKD
ROOT
HETATM    1  C   UNL     1      -7.342   6.194  71.417  1.00  0.00    -0.088 C  
HETATM    2  S   UNL     1      -8.887   6.098  72.408  1.00  0.00    -0.135 SA 
HETATM    3  C   UNL     1      -9.433   4.487  71.670  1.00  0.00    -0.151 C  
HETATM    4  C   UNL     1     -10.177   3.662  72.726  1.00  0.00    -0.239 C  
HETATM    5  CA  UNL     1      -8.142   3.840  71.108  1.00  0.00    -0.064 C  
HETATM    6  C   UNL     1     -10.449   4.813  70.556  1.00  0.00    -0.082 C  
HETATM    7  N   UNL     1      -7.274   4.940  70.643  1.00  0.00    -0.052 N  
HETATM    8  C   UNL     1      -7.322   3.001  72.108  1.00  0.00    -0.051 C  
HETATM    9  OXT UNL     1      -7.763   2.088  72.791  1.00  0.00    -0.045 OA 
HETATM   10  O   UNL     1      -5.997   3.307  72.114  1.00  0.00    -0.008 OA 
HETATM   11  C   UNL     1      -7.533   5.557  69.442  1.00  0.00    -0.070 C  
HETATM   12  CA  UNL     1      -7.419   6.970  70.081  1.00  0.00    -0.086 C  
HETATM   13  O   UNL     1      -7.877   5.059  68.394  1.00  0.00    -0.082 OA 
ENDROOT
BRANCH  12  14
HETATM   14  N   UNL     1      -8.580   7.882  69.930  1.00  0.00    -0.138 N  
HETATM   15  C   UNL     1      -8.542   9.171  70.413  1.00  0.00    -0.209 C  
HETATM   16  H   UNL     1      -9.421   7.549  69.459  1.00  0.00     0.000 HD 
HETATM   17  O   UNL     1      -7.572   9.604  71.031  1.00  0.00    -0.326 OA 
HETATM   18  C   UNL     1      -9.787  10.005  70.180  1.00  0.00    -0.205 C  
HETATM   19  C   UNL     1      -9.924  10.288  68.696  1.00  0.00    -0.173 C  
HETATM   20  C   UNL     1     -11.050   9.460  70.875  1.00  0.00    -0.389 A  
HETATM   21  C   UNL     1     -10.951   8.798  72.113  1.00  0.00    -0.404 A  
HETATM   22  O   UNL     1     -10.474   9.555  67.882  1.00  0.00    -0.214 OA 
HETATM   23  C   UNL     1     -13.484   9.381  71.120  1.00  0.00    -0.253 A  
HETATM   24  C   UNL     1     -12.094   8.414  72.823  1.00  0.00    -0.187 A  
HETATM   25  C   UNL     1     -12.343   9.727  70.391  1.00  0.00    -0.079 A  
HETATM   26  C   UNL     1     -13.360   8.720  72.335  1.00  0.00    -0.442 A  
BRANCH  19  27
HETATM   27  O   UNL     1      -9.292  11.490  68.390  1.00  0.00    -0.186 OA 
BRANCH  27  28
HETATM   28  C   UNL     1      -9.940  12.222  67.387  1.00  0.00    -0.201 A  
HETATM   29  C   UNL     1     -10.863  12.367  65.189  1.00  0.00    -0.333 A  
HETATM   30  C   UNL     1     -10.155  11.653  66.132  1.00  0.00    -0.259 A  
HETATM   31  C   UNL     1     -11.419  13.601  65.497  1.00  0.00    -0.317 A  
HETATM   32  C   UNL     1     -11.250  14.160  66.758  1.00  0.00    -0.330 A  
HETATM   33  C   UNL     1     -12.201  14.141  64.345  1.00  0.00    -0.466 C  
HETATM   34  C   UNL     1     -11.991  13.091  63.238  1.00  0.00    -0.493 C  
HETATM   35  C   UNL     1     -10.496  13.463  67.713  1.00  0.00    -0.246 A  
HETATM   36  C   UNL     1     -11.147  11.937  63.792  1.00  0.00    -0.510 C  
ENDBRANCH  27  28
ENDBRANCH  19  27
ENDBRANCH  12  14
TORSDOF 3
ENDMDL
MODEL       71
REMARK 921   NORMALIZED FREE ENERGY PREDICTED BY IDOCK:   -5.95 KCAL/MOL
REMARK 922        TOTAL FREE ENERGY PREDICTED BY IDOCK:   -7.87 KCAL/MOL
REMARK 923 INTER-LIGAND FREE ENERGY PREDICTED BY IDOCK:   -6.63 KCAL/MOL
REMARK 924 INTRA-LIGAND FREE ENERGY PREDICTED BY IDOCK:   -1.24 KCAL/MOL
REMARK 927      BINDING AFFINITY PREDICTED BY RF-SCORE:    0.00 PKD
ROOT
HETATM    1  C   UNL     1      -6.603   5.595  68.399  1.00  0.00    -0.052 C  
HETATM    2  S   UNL     1      -7.729   4.573  69.431  1.00  0.00    -0.054 SA 
HETATM    3  C   UNL     1      -8.601   3.810  67.983  1.00  0.00    -0.097 C  
HETATM    4  C   UNL     1      -9.003   2.371  68.323  1.00  0.00    -0.187 C  
HETATM    5  CA  UNL     1      -7.621   3.964  66.793  1.00  0.00    -0.084 C  
HETATM    6  C   UNL     1      -9.907   4.602  67.763  1.00  0.00    -0.183 C  
HETATM    7  N   UNL     1      -6.886   5.228  66.999  1.00  0.00    -0.062 N  
HETATM    8  C   UNL     1      -6.573   2.844  66.637  1.00  0.00    -0.036 C  
HETATM    9  OXT UNL     1      -6.822   1.649  66.583  1.00  0.00    -0.036 OA 
HETATM   10  O   UNL     1      -5.305   3.307  66.474  1.00  0.00    -0.011 OA 
HETATM   11  C   UNL     1      -7.489   6.427  66.706  1.00  0.00    -0.087 C  
HETATM   12  CA  UNL     1      -7.069   7.034  68.076  1.00  0.00    -0.086 C  
HETATM   13  O   UNL     1      -8.197   6.709  65.767  1.00  0.00    -0.122 OA 
ENDROOT
BRANCH  12  14
HETATM   14  N   UNL     1      -8.148   7.574  68.941  1.00  0.00    -0.125 N  
HETATM   15  C   UNL     1      -7.991   8.761  69.621  1.00  0.00    -0.096 C  
HETATM   16  H   UNL     1      -9.022   7.055  69.034  1.00  0.00     0.000 HD 
HETATM   17  O   UNL     1      -6.941   9.396  69.581  1.00  0.00    -0.052 OA 
HETATM   18  C   UNL     1      -9.174   9.209  70.457  1.00  0.00    -0.286 C  
HETATM   19  C   UNL     1     -10.318   9.587  69.536  1.00  0.00    -0.217 C  
HETATM   20  C   UNL     1      -9.532   8.249  71.608  1.00  0.00    -0.258 A  
HETATM   21  C   UNL     1      -8.523   7.525  72.270  1.00  0.00    -0.138 A  
HETATM   22  O   UNL     1     -11.153   8.809  69.087  1.00  0.00    -0.026 OA 
HETATM   23  C   UNL     1     -11.110   7.431  73.291  1.00  0.00    -0.303 A  
HETATM   24  C   UNL     1      -8.809   6.751  73.401  1.00  0.00    -0.143 A  
HETATM   25  C   UNL     1     -10.833   8.170  72.138  1.00  0.00    -0.370 A  
HETATM   26  C   UNL     1     -10.098   6.718  73.921  1.00  0.00    -0.375 A  
BRANCH  19  27
HETATM   27  O   UNL     1     -10.253  10.946  69.243  1.00  0.00    -0.217 OA 
BRANCH  27  28
HETATM   28  C   UNL     1     -10.344  11.227  67.874  1.00  0.00    -0.182 A  
HETATM   29  C   UNL     1      -9.684  10.804  65.617  1.00  0.00    -0.287 A  
HETATM   30  C   UNL     1      -9.519  10.565  66.965  1.00  0.00    -0.188 A  
HETATM   31  C   UNL     1     -10.699  11.633  65.158  1.00  0.00    -0.351 A  
HETATM   32  C   UNL     1     -11.557  12.264  66.051  1.00  0.00    -0.451 A  
HETATM   33  C   UNL     1     -10.724  11.674  63.666  1.00  0.00    -0.500 C  
HETATM   34  C   UNL     1      -9.523  10.802  63.257  1.00  0.00    -0.353 C  
HETATM   35  C   UNL     1     -11.374  12.062  67.426  1.00  0.00    -0.393 A  
HETATM   36  C   UNL     1      -8.867  10.224  64.516  1.00  0.00    -0.223 C  
ENDBRANCH  27  28
ENDBRANCH  19  27
ENDBRANCH  12  14
TORSDOF 3
ENDMDL
MODEL       72
REMARK 921   NORMALIZED FREE ENERGY PREDICTED BY IDOCK:   -5.94 KCAL/MOL
REMARK 922        TOTAL FREE ENERGY PREDICTED BY IDOCK:   -7.85 KCAL/MOL
REMARK 923 INTER-LIGAND FREE ENERGY PREDICTED BY IDOCK:   -6.26 KCAL/MOL
REMARK 924 INTRA-LIGAND FREE ENERGY PREDICTED BY IDOCK:   -1.59 KCAL/MOL
REMARK 927      BINDING AFFINITY PREDICTED BY RF-SCORE:    0.00 PKD
ROOT
HETATM    1  C   UNL     1      -9.351   8.801  71.946  1.00  0.00    -0.273 C  
HETATM    2  S   UNL     1     -11.140   8.622  71.562  1.00  0.00    -0.315 SA 
HETATM    3  C   UNL     1     -11.081   6.772  71.452  1.00  0.00    -0.254 C  
HETATM    4  C   UNL     1     -12.402   6.182  71.957  1.00  0.00    -0.113 C  
HETATM    5  CA  UNL     1      -9.819   6.359  72.250  1.00  0.00    -0.157 C  
HETATM    6  C   UNL     1     -10.966   6.404  69.958  1.00  0.00    -0.397 C  
HETATM    7  N   UNL     1      -8.820   7.430  72.066  1.00  0.00    -0.123 N  
HETATM    8  C   UNL     1     -10.016   6.172  73.768  1.00  0.00    -0.214 C  
HETATM    9  OXT UNL     1     -10.865   5.461  74.286  1.00  0.00    -0.251 OA 
HETATM   10  O   UNL     1      -9.085   6.817  74.520  1.00  0.00    -0.181 OA 
HETATM   11  C   UNL     1      -8.102   7.505  70.897  1.00  0.00    -0.104 C  
HETATM   12  CA  UNL     1      -8.401   9.024  70.746  1.00  0.00    -0.192 C  
HETATM   13  O   UNL     1      -7.616   6.606  70.249  1.00  0.00    -0.091 OA 
ENDROOT
BRANCH  12  14
HETATM   14  N   UNL     1      -9.045   9.469  69.485  1.00  0.00    -0.172 N  
HETATM   15  C   UNL     1      -8.296   9.782  68.373  1.00  0.00    -0.110 C  
HETATM   16  H   UNL     1     -10.062   9.545  69.442  1.00  0.00     0.000 HD 
HETATM   17  O   UNL     1      -7.068   9.755  68.390  1.00  0.00    -0.072 OA 
HETATM   18  C   UNL     1      -9.077  10.209  67.145  1.00  0.00    -0.149 C  
HETATM   19  C   UNL     1      -9.850   9.018  66.610  1.00  0.00    -0.248 C  
HETATM   20  C   UNL     1      -9.890  11.503  67.332  1.00  0.00    -0.202 A  
HETATM   21  C   UNL     1      -9.412  12.529  68.169  1.00  0.00    -0.214 A  
HETATM   22  O   UNL     1     -10.964   8.671  66.984  1.00  0.00    -0.085 OA 
HETATM   23  C   UNL     1     -11.674  13.023  66.626  1.00  0.00    -0.438 A  
HETATM   24  C   UNL     1     -10.067  13.763  68.250  1.00  0.00    -0.239 A  
HETATM   25  C   UNL     1     -11.044  11.777  66.577  1.00  0.00    -0.364 A  
HETATM   26  C   UNL     1     -11.187  14.016  67.466  1.00  0.00    -0.328 A  
BRANCH  19  27
HETATM   27  O   UNL     1      -9.083   8.351  65.659  1.00  0.00    -0.172 OA 
BRANCH  27  28
HETATM   28  C   UNL     1      -8.384   7.253  66.174  1.00  0.00    -0.133 A  
HETATM   29  C   UNL     1      -8.366   5.060  67.121  1.00  0.00    -0.106 A  
HETATM   30  C   UNL     1      -9.078   6.160  66.691  1.00  0.00    -0.146 A  
HETATM   31  C   UNL     1      -6.986   5.003  66.979  1.00  0.00    -0.064 A  
HETATM   32  C   UNL     1      -6.285   6.067  66.424  1.00  0.00    -0.037 A  
HETATM   33  C   UNL     1      -6.453   3.688  67.443  1.00  0.00    -0.038 C  
HETATM   34  C   UNL     1      -7.700   2.953  67.967  1.00  0.00    -0.056 C  
HETATM   35  C   UNL     1      -6.994   7.209  66.022  1.00  0.00    -0.065 A  
HETATM   36  C   UNL     1      -8.936   3.830  67.738  1.00  0.00    -0.161 C  
ENDBRANCH  27  28
ENDBRANCH  19  27
ENDBRANCH  12  14
TORSDOF 3
ENDMDL
MODEL       73
REMARK 921   NORMALIZED FREE ENERGY PREDICTED BY IDOCK:   -5.93 KCAL/MOL
REMARK 922        TOTAL FREE ENERGY PREDICTED BY IDOCK:   -7.85 KCAL/MOL
REMARK 923 INTER-LIGAND FREE ENERGY PREDICTED BY IDOCK:   -7.36 KCAL/MOL
REMARK 924 INTRA-LIGAND FREE ENERGY PREDICTED BY IDOCK:   -0.49 KCAL/MOL
REMARK 927      BINDING AFFINITY PREDICTED BY RF-SCORE:    0.00 PKD
ROOT
HETATM    1  C   UNL     1     -10.282  17.281  66.406  1.00  0.00    -0.331 C  
HETATM    2  S   UNL     1     -10.584  17.715  68.167  1.00  0.00    -0.312 SA 
HETATM    3  C   UNL     1      -8.799  18.054  68.541  1.00  0.00    -0.295 C  
HETATM    4  C   UNL     1      -8.693  19.181  69.573  1.00  0.00     0.310 C  
HETATM    5  CA  UNL     1      -8.145  18.344  67.166  1.00  0.00    -0.239 C  
HETATM    6  C   UNL     1      -8.219  16.785  69.199  1.00  0.00    -0.098 C  
HETATM    7  N   UNL     1      -8.845  17.511  66.169  1.00  0.00    -0.179 N  
HETATM    8  C   UNL     1      -8.227  19.806  66.680  1.00  0.00    -0.323 C  
HETATM    9  OXT UNL     1      -7.870  20.783  67.322  1.00  0.00    -0.337 OA 
HETATM   10  O   UNL     1      -8.667  19.927  65.399  1.00  0.00    -0.138 OA 
HETATM   11  C   UNL     1      -8.551  16.172  66.067  1.00  0.00    -0.196 C  
HETATM   12  CA  UNL     1     -10.057  15.784  66.087  1.00  0.00    -0.318 C  
HETATM   13  O   UNL     1      -7.472  15.628  66.125  1.00  0.00     0.420 OA 
ENDROOT
BRANCH  12  14
HETATM   14  N   UNL     1     -10.499  14.827  67.132  1.00  0.00    -0.263 N  
HETATM   15  C   UNL     1     -11.655  14.093  66.983  1.00  0.00    -0.382 C  
HETATM   16  H   UNL     1      -9.938  14.710  67.976  1.00  0.00     0.000 HD 
HETATM   17  O   UNL     1     -12.392  14.233  66.010  1.00  0.00    -0.432 OA 
HETATM   18  C   UNL     1     -11.987  13.140  68.115  1.00  0.00    -0.333 C  
HETATM   19  C   UNL     1     -10.967  12.017  68.133  1.00  0.00    -0.230 C  
HETATM   20  C   UNL     1     -12.242  13.831  69.468  1.00  0.00    -0.344 A  
HETATM   21  C   UNL     1     -12.840  15.105  69.514  1.00  0.00     0.239 A  
HETATM   22  O   UNL     1      -9.887  12.050  68.710  1.00  0.00    -0.158 OA 
HETATM   23  C   UNL     1     -12.435  13.743  71.907  1.00  0.00    -0.203 A  
HETATM   24  C   UNL     1     -13.201  15.693  70.732  1.00  0.00    -0.270 A  
HETATM   25  C   UNL     1     -12.036  13.174  70.694  1.00  0.00    -0.346 A  
HETATM   26  C   UNL     1     -13.014  15.005  71.926  1.00  0.00    -0.429 A  
BRANCH  19  27
HETATM   27  O   UNL     1     -11.427  10.956  67.357  1.00  0.00    -0.479 OA 
BRANCH  27  28
HETATM   28  C   UNL     1     -10.834   9.729  67.682  1.00  0.00    -0.239 A  
HETATM   29  C   UNL     1      -9.715   7.724  67.025  1.00  0.00    -0.259 A  
HETATM   30  C   UNL     1     -10.364   8.889  66.674  1.00  0.00    -0.294 A  
HETATM   31  C   UNL     1      -9.466   7.419  68.356  1.00  0.00    -0.143 A  
HETATM   32  C   UNL     1      -9.890   8.270  69.370  1.00  0.00    -0.185 A  
HETATM   33  C   UNL     1      -8.687   6.151  68.480  1.00  0.00    -0.111 C  
HETATM   34  C   UNL     1      -8.547   5.666  67.025  1.00  0.00    -0.109 C  
HETATM   35  C   UNL     1     -10.588   9.437  69.028  1.00  0.00    -0.233 A  
HETATM   36  C   UNL     1      -9.191   6.693  66.087  1.00  0.00    -0.120 C  
ENDBRANCH  27  28
ENDBRANCH  19  27
ENDBRANCH  12  14
TORSDOF 3
ENDMDL
MODEL       74
REMARK 921   NORMALIZED FREE ENERGY PREDICTED BY IDOCK:   -5.93 KCAL/MOL
REMARK 922        TOTAL FREE ENERGY PREDICTED BY IDOCK:   -7.85 KCAL/MOL
REMARK 923 INTER-LIGAND FREE ENERGY PREDICTED BY IDOCK:   -6.68 KCAL/MOL
REMARK 924 INTRA-LIGAND FREE ENERGY PREDICTED BY IDOCK:   -1.16 KCAL/MOL
REMARK 927      BINDING AFFINITY PREDICTED BY RF-SCORE:    0.00 PKD
ROOT
HETATM    1  C   UNL     1      -9.386  12.001  65.846  1.00  0.00    -0.157 C  
HETATM    2  S   UNL     1     -11.097  11.706  66.448  1.00  0.00    -0.264 SA 
HETATM    3  C   UNL     1     -10.929  12.827  67.917  1.00  0.00    -0.234 C  
HETATM    4  C   UNL     1     -12.272  13.504  68.206  1.00  0.00    -0.148 C  
HETATM    5  CA  UNL     1      -9.762  13.784  67.564  1.00  0.00    -0.230 C  
HETATM    6  C   UNL     1     -10.600  11.940  69.136  1.00  0.00    -0.085 C  
HETATM    7  N   UNL     1      -8.805  13.016  66.744  1.00  0.00    -0.181 N  
HETATM    8  C   UNL     1     -10.147  15.043  66.761  1.00  0.00    -0.254 C  
HETATM    9  OXT UNL     1     -11.019  15.840  67.075  1.00  0.00    -0.304 OA 
HETATM   10  O   UNL     1      -9.357  15.256  65.675  1.00  0.00    -0.282 OA 
HETATM   11  C   UNL     1      -7.944  12.129  67.345  1.00  0.00    -0.168 C  
HETATM   12  CA  UNL     1      -8.299  11.010  66.325  1.00  0.00    -0.166 C  
HETATM   13  O   UNL     1      -7.332  12.253  68.381  1.00  0.00    -0.096 OA 
ENDROOT
BRANCH  12  14
HETATM   14  N   UNL     1      -8.794   9.722  66.872  1.00  0.00    -0.137 N  
HETATM   15  C   UNL     1      -7.985   8.914  67.638  1.00  0.00    -0.102 C  
HETATM   16  H   UNL     1      -9.752   9.430  66.676  1.00  0.00     0.000 HD 
HETATM   17  O   UNL     1      -6.810   9.196  67.860  1.00  0.00    -0.068 OA 
HETATM   18  C   UNL     1      -8.617   7.633  68.149  1.00  0.00    -0.123 C  
HETATM   19  C   UNL     1      -9.681   7.980  69.173  1.00  0.00    -0.163 C  
HETATM   20  C   UNL     1      -9.050   6.657  67.039  1.00  0.00    -0.135 A  
HETATM   21  C   UNL     1      -8.315   6.569  65.842  1.00  0.00    -0.140 A  
HETATM   22  O   UNL     1     -10.850   8.249  68.917  1.00  0.00    -0.116 OA 
HETATM   23  C   UNL     1     -10.354   4.728  66.283  1.00  0.00    -0.329 A  
HETATM   24  C   UNL     1      -8.611   5.599  64.878  1.00  0.00    -0.086 A  
HETATM   25  C   UNL     1     -10.084   5.723  67.227  1.00  0.00    -0.208 A  
HETATM   26  C   UNL     1      -9.619   4.668  65.106  1.00  0.00    -0.139 A  
BRANCH  19  27
HETATM   27  O   UNL     1      -9.120   7.988  70.447  1.00  0.00    -0.148 OA 
BRANCH  27  28
HETATM   28  C   UNL     1      -9.676   7.032  71.307  1.00  0.00    -0.171 A  
HETATM   29  C   UNL     1      -9.969   4.758  71.975  1.00  0.00    -0.247 A  
HETATM   30  C   UNL     1      -9.476   5.673  71.069  1.00  0.00    -0.200 A  
HETATM   31  C   UNL     1     -10.591   5.174  73.144  1.00  0.00    -0.282 A  
HETATM   32  C   UNL     1     -10.757   6.527  73.416  1.00  0.00    -0.295 A  
HETATM   33  C   UNL     1     -10.967   4.008  73.997  1.00  0.00    -0.240 C  
HETATM   34  C   UNL     1     -10.552   2.789  73.152  1.00  0.00    -0.259 C  
HETATM   35  C   UNL     1     -10.298   7.468  72.482  1.00  0.00    -0.291 A  
HETATM   36  C   UNL     1      -9.888   3.276  71.858  1.00  0.00    -0.238 C  
ENDBRANCH  27  28
ENDBRANCH  19  27
ENDBRANCH  12  14
TORSDOF 3
ENDMDL
MODEL       75
REMARK 921   NORMALIZED FREE ENERGY PREDICTED BY IDOCK:   -5.89 KCAL/MOL
REMARK 922        TOTAL FREE ENERGY PREDICTED BY IDOCK:   -7.80 KCAL/MOL
REMARK 923 INTER-LIGAND FREE ENERGY PREDICTED BY IDOCK:   -6.84 KCAL/MOL
REMARK 924 INTRA-LIGAND FREE ENERGY PREDICTED BY IDOCK:   -0.96 KCAL/MOL
REMARK 927      BINDING AFFINITY PREDICTED BY RF-SCORE:    0.00 PKD
ROOT
HETATM    1  C   UNL     1     -10.714   6.259  72.320  1.00  0.00    -0.229 C  
HETATM    2  S   UNL     1     -10.658   5.406  70.693  1.00  0.00    -0.187 SA 
HETATM    3  C   UNL     1      -8.972   4.683  70.966  1.00  0.00    -0.125 C  
HETATM    4  C   UNL     1      -8.883   3.310  70.291  1.00  0.00    -0.145 C  
HETATM    5  CA  UNL     1      -8.775   4.683  72.503  1.00  0.00    -0.115 C  
HETATM    6  C   UNL     1      -7.958   5.601  70.253  1.00  0.00    -0.103 C  
HETATM    7  N   UNL     1      -9.482   5.867  73.029  1.00  0.00    -0.150 N  
HETATM    8  C   UNL     1      -9.326   3.451  73.250  1.00  0.00    -0.100 C  
HETATM    9  OXT UNL     1      -9.064   2.289  72.980  1.00  0.00    -0.072 OA 
HETATM   10  O   UNL     1     -10.090   3.768  74.329  1.00  0.00    -0.127 OA 
HETATM   11  C   UNL     1      -8.911   7.112  72.919  1.00  0.00    -0.129 C  
HETATM   12  CA  UNL     1     -10.224   7.725  72.355  1.00  0.00    -0.247 C  
HETATM   13  O   UNL     1      -7.754   7.431  73.075  1.00  0.00    -0.084 OA 
ENDROOT
BRANCH  12  14
HETATM   14  N   UNL     1     -10.146   8.412  71.041  1.00  0.00    -0.190 N  
HETATM   15  C   UNL     1     -11.284   8.812  70.377  1.00  0.00    -0.223 C  
HETATM   16  H   UNL     1      -9.233   8.590  70.622  1.00  0.00     0.000 HD 
HETATM   17  O   UNL     1     -12.407   8.577  70.815  1.00  0.00    -0.128 OA 
HETATM   18  C   UNL     1     -11.067   9.517  69.052  1.00  0.00    -0.060 C  
HETATM   19  C   UNL     1     -10.426  10.868  69.308  1.00  0.00    -0.202 C  
HETATM   20  C   UNL     1     -10.384   8.647  67.979  1.00  0.00    -0.277 A  
HETATM   21  C   UNL     1     -10.623   7.260  67.931  1.00  0.00    -0.266 A  
HETATM   22  O   UNL     1      -9.222  11.073  69.415  1.00  0.00     0.001 OA 
HETATM   23  C   UNL     1      -9.164   8.427  65.869  1.00  0.00    -0.217 A  
HETATM   24  C   UNL     1     -10.121   6.474  66.888  1.00  0.00    -0.253 A  
HETATM   25  C   UNL     1      -9.631   9.205  66.932  1.00  0.00    -0.233 A  
HETATM   26  C   UNL     1      -9.406   7.060  65.849  1.00  0.00     0.067 A  
BRANCH  19  27
HETATM   27  O   UNL     1     -11.416  11.837  69.444  1.00  0.00    -0.267 OA 
BRANCH  27  28
HETATM   28  C   UNL     1     -11.283  12.902  68.544  1.00  0.00    -0.274 A  
HETATM   29  C   UNL     1     -10.700  15.171  68.083  1.00  0.00    -0.254 A  
HETATM   30  C   UNL     1     -10.898  14.161  69.000  1.00  0.00    -0.273 A  
HETATM   31  C   UNL     1     -10.810  14.930  66.720  1.00  0.00    -0.320 A  
HETATM   32  C   UNL     1     -11.150  13.667  66.249  1.00  0.00    -0.304 A  
HETATM   33  C   UNL     1     -10.476  16.151  65.929  1.00  0.00    -0.366 C  
HETATM   34  C   UNL     1     -10.210  17.221  67.005  1.00  0.00    -0.320 C  
HETATM   35  C   UNL     1     -11.395  12.642  67.174  1.00  0.00    -0.373 A  
HETATM   36  C   UNL     1     -10.333  16.581  68.393  1.00  0.00    -0.294 C  
ENDBRANCH  27  28
ENDBRANCH  19  27
ENDBRANCH  12  14
TORSDOF 3
ENDMDL
MODEL       76
REMARK 921   NORMALIZED FREE ENERGY PREDICTED BY IDOCK:   -5.88 KCAL/MOL
REMARK 922        TOTAL FREE ENERGY PREDICTED BY IDOCK:   -7.79 KCAL/MOL
REMARK 923 INTER-LIGAND FREE ENERGY PREDICTED BY IDOCK:   -6.10 KCAL/MOL
REMARK 924 INTRA-LIGAND FREE ENERGY PREDICTED BY IDOCK:   -1.69 KCAL/MOL
REMARK 927      BINDING AFFINITY PREDICTED BY RF-SCORE:    0.00 PKD
ROOT
HETATM    1  C   UNL     1      -9.144   6.643  66.145  1.00  0.00    -0.118 C  
HETATM    2  S   UNL     1      -7.529   6.096  66.833  1.00  0.00    -0.088 SA 
HETATM    3  C   UNL     1      -8.248   4.669  67.775  1.00  0.00    -0.099 C  
HETATM    4  C   UNL     1      -7.244   3.512  67.805  1.00  0.00    -0.058 C  
HETATM    5  CA  UNL     1      -9.598   4.363  67.078  1.00  0.00    -0.198 C  
HETATM    6  C   UNL     1      -8.444   5.134  69.233  1.00  0.00    -0.093 C  
HETATM    7  N   UNL     1     -10.137   5.649  66.593  1.00  0.00    -0.180 N  
HETATM    8  C   UNL     1      -9.526   3.410  65.868  1.00  0.00    -0.112 C  
HETATM    9  OXT UNL     1      -9.007   2.304  65.871  1.00  0.00    -0.127 OA 
HETATM   10  O   UNL     1     -10.184   3.875  64.772  1.00  0.00    -0.208 OA 
HETATM   11  C   UNL     1     -10.745   6.512  67.472  1.00  0.00    -0.321 C  
HETATM   12  CA  UNL     1      -9.914   7.718  66.947  1.00  0.00    -0.261 C  
HETATM   13  O   UNL     1     -11.503   6.258  68.381  1.00  0.00    -0.201 OA 
ENDROOT
BRANCH  12  14
HETATM   14  N   UNL     1      -9.115   8.479  67.940  1.00  0.00    -0.140 N  
HETATM   15  C   UNL     1      -9.704   9.408  68.768  1.00  0.00    -0.156 C  
HETATM   16  H   UNL     1      -8.111   8.310  68.011  1.00  0.00     0.000 HD 
HETATM   17  O   UNL     1     -10.899   9.683  68.688  1.00  0.00    -0.219 OA 
HETATM   18  C   UNL     1      -8.780  10.105  69.749  1.00  0.00    -0.148 C  
HETATM   19  C   UNL     1      -8.306   9.100  70.782  1.00  0.00    -0.208 C  
HETATM   20  C   UNL     1      -7.678  10.951  69.084  1.00  0.00    -0.127 A  
HETATM   21  C   UNL     1      -7.924  11.610  67.865  1.00  0.00    -0.132 A  
HETATM   22  O   UNL     1      -7.335   8.362  70.660  1.00  0.00    -0.050 OA 
HETATM   23  C   UNL     1      -5.535  12.130  69.194  1.00  0.00    -0.064 A  
HETATM   24  C   UNL     1      -6.985  12.488  67.313  1.00  0.00    -0.114 A  
HETATM   25  C   UNL     1      -6.455  11.221  69.725  1.00  0.00    -0.140 A  
HETATM   26  C   UNL     1      -5.799  12.761  67.985  1.00  0.00    -0.097 A  
BRANCH  19  27
HETATM   27  O   UNL     1      -9.167   9.113  71.876  1.00  0.00    -0.354 OA 
BRANCH  27  28
HETATM   28  C   UNL     1      -9.758   7.871  72.136  1.00  0.00    -0.199 A  
HETATM   29  C   UNL     1      -9.813   5.806  73.336  1.00  0.00    -0.167 A  
HETATM   30  C   UNL     1      -9.169   6.989  73.041  1.00  0.00    -0.163 A  
HETATM   31  C   UNL     1     -11.062   5.521  72.801  1.00  0.00    -0.340 A  
HETATM   32  C   UNL     1     -11.682   6.412  71.932  1.00  0.00    -0.378 A  
HETATM   33  C   UNL     1     -11.588   4.226  73.325  1.00  0.00    -0.177 C  
HETATM   34  C   UNL     1     -10.445   3.702  74.216  1.00  0.00    -0.266 C  
HETATM   35  C   UNL     1     -11.018   7.599  71.592  1.00  0.00    -0.267 A  
HETATM   36  C   UNL     1      -9.311   4.734  74.239  1.00  0.00    -0.125 C  
ENDBRANCH  27  28
ENDBRANCH  19  27
ENDBRANCH  12  14
TORSDOF 3
ENDMDL
MODEL       77
REMARK 921   NORMALIZED FREE ENERGY PREDICTED BY IDOCK:   -5.86 KCAL/MOL
REMARK 922        TOTAL FREE ENERGY PREDICTED BY IDOCK:   -7.76 KCAL/MOL
REMARK 923 INTER-LIGAND FREE ENERGY PREDICTED BY IDOCK:   -6.35 KCAL/MOL
REMARK 924 INTRA-LIGAND FREE ENERGY PREDICTED BY IDOCK:   -1.41 KCAL/MOL
REMARK 927      BINDING AFFINITY PREDICTED BY RF-SCORE:    0.00 PKD
ROOT
HETATM    1  C   UNL     1      -7.173  11.141  66.408  1.00  0.00    -0.094 C  
HETATM    2  S   UNL     1      -8.664  10.929  65.354  1.00  0.00    -0.111 SA 
HETATM    3  C   UNL     1      -9.801  11.796  66.534  1.00  0.00    -0.206 C  
HETATM    4  C   UNL     1     -10.880  12.551  65.751  1.00  0.00    -0.310 C  
HETATM    5  CA  UNL     1      -8.877  12.677  67.413  1.00  0.00    -0.189 C  
HETATM    6  C   UNL     1     -10.521  10.710  67.360  1.00  0.00    -0.280 C  
HETATM    7  N   UNL     1      -7.601  11.950  67.564  1.00  0.00    -0.130 N  
HETATM    8  C   UNL     1      -8.545  14.073  66.848  1.00  0.00    -0.125 C  
HETATM    9  OXT UNL     1      -9.368  14.895  66.475  1.00  0.00    -0.249 OA 
HETATM   10  O   UNL     1      -7.218  14.367  66.875  1.00  0.00     0.067 OA 
HETATM   11  C   UNL     1      -7.509  10.903  68.450  1.00  0.00    -0.098 C  
HETATM   12  CA  UNL     1      -6.841   9.988  67.384  1.00  0.00    -0.082 C  
HETATM   13  O   UNL     1      -7.974  10.811  69.563  1.00  0.00    -0.118 OA 
ENDROOT
BRANCH  12  14
HETATM   14  N   UNL     1      -7.496   8.688  67.096  1.00  0.00    -0.088 N  
HETATM   15  C   UNL     1      -7.302   7.595  67.911  1.00  0.00    -0.102 C  
HETATM   16  H   UNL     1      -8.102   8.602  66.279  1.00  0.00     0.000 HD 
HETATM   17  O   UNL     1      -6.545   7.633  68.877  1.00  0.00    -0.046 OA 
HETATM   18  C   UNL     1      -8.041   6.331  67.515  1.00  0.00    -0.113 C  
HETATM   19  C   UNL     1      -9.530   6.544  67.716  1.00  0.00    -0.119 C  
HETATM   20  C   UNL     1      -7.627   5.761  66.145  1.00  0.00    -0.090 A  
HETATM   21  C   UNL     1      -6.300   5.890  65.693  1.00  0.00    -0.042 A  
HETATM   22  O   UNL     1     -10.292   7.039  66.894  1.00  0.00    -0.243 OA 
HETATM   23  C   UNL     1      -8.057   4.316  64.216  1.00  0.00    -0.092 A  
HETATM   24  C   UNL     1      -5.871   5.266  64.516  1.00  0.00    -0.021 A  
HETATM   25  C   UNL     1      -8.496   4.973  65.370  1.00  0.00    -0.138 A  
HETATM   26  C   UNL     1      -6.745   4.466  63.787  1.00  0.00    -0.043 A  
BRANCH  19  27
HETATM   27  O   UNL     1      -9.893   6.129  68.994  1.00  0.00    -0.134 OA 
BRANCH  27  28
HETATM   28  C   UNL     1     -10.676   7.064  69.683  1.00  0.00    -0.241 A  
HETATM   29  C   UNL     1     -12.601   7.601  70.990  1.00  0.00    -0.177 A  
HETATM   30  C   UNL     1     -11.889   6.679  70.252  1.00  0.00    -0.378 A  
HETATM   31  C   UNL     1     -12.093   8.870  71.230  1.00  0.00    -0.360 A  
HETATM   32  C   UNL     1     -10.863   9.252  70.706  1.00  0.00    -0.349 A  
HETATM   33  C   UNL     1     -13.004   9.656  72.114  1.00  0.00    -0.493 C  
HETATM   34  C   UNL     1     -14.201   8.712  72.335  1.00  0.00    -0.443 C  
HETATM   35  C   UNL     1     -10.149   8.339  69.918  1.00  0.00    -0.195 A  
HETATM   36  C   UNL     1     -13.928   7.379  71.628  1.00  0.00    -0.523 C  
ENDBRANCH  27  28
ENDBRANCH  19  27
ENDBRANCH  12  14
TORSDOF 3
ENDMDL
MODEL       78
REMARK 921   NORMALIZED FREE ENERGY PREDICTED BY IDOCK:   -5.85 KCAL/MOL
REMARK 922        TOTAL FREE ENERGY PREDICTED BY IDOCK:   -7.75 KCAL/MOL
REMARK 923 INTER-LIGAND FREE ENERGY PREDICTED BY IDOCK:   -6.68 KCAL/MOL
REMARK 924 INTRA-LIGAND FREE ENERGY PREDICTED BY IDOCK:   -1.07 KCAL/MOL
REMARK 927      BINDING AFFINITY PREDICTED BY RF-SCORE:    0.00 PKD
ROOT
HETATM    1  C   UNL     1      -9.191  13.518  65.673  1.00  0.00     0.448 C  
HETATM    2  S   UNL     1      -9.696  12.415  64.292  1.00  0.00     0.118 SA 
HETATM    3  C   UNL     1     -11.507  12.518  64.679  1.00  0.00    -0.327 C  
HETATM    4  C   UNL     1     -12.317  12.454  63.380  1.00  0.00    -0.603 C  
HETATM    5  CA  UNL     1     -11.671  13.821  65.503  1.00  0.00    -0.346 C  
HETATM    6  C   UNL     1     -11.873  11.265  65.500  1.00  0.00     0.743 C  
HETATM    7  N   UNL     1     -10.440  13.987  66.300  1.00  0.00    -0.282 N  
HETATM    8  C   UNL     1     -11.865  15.113  64.683  1.00  0.00    -0.332 C  
HETATM    9  OXT UNL     1     -12.708  15.276  63.814  1.00  0.00    -0.687 OA 
HETATM   10  O   UNL     1     -11.049  16.129  65.072  1.00  0.00    -0.374 OA 
HETATM   11  C   UNL     1     -10.257  13.245  67.442  1.00  0.00    -0.229 C  
HETATM   12  CA  UNL     1      -8.820  12.835  67.011  1.00  0.00    -0.213 C  
HETATM   13  O   UNL     1     -11.064  12.960  68.297  1.00  0.00    -0.237 OA 
ENDROOT
BRANCH  12  14
HETATM   14  N   UNL     1      -8.520  11.383  66.933  1.00  0.00    -0.152 N  
HETATM   15  C   UNL     1      -7.534  10.816  67.709  1.00  0.00    -0.094 C  
HETATM   16  H   UNL     1      -9.054  10.794  66.293  1.00  0.00     0.000 HD 
HETATM   17  O   UNL     1      -6.831  11.490  68.458  1.00  0.00    -0.065 OA 
HETATM   18  C   UNL     1      -7.338   9.321  67.546  1.00  0.00    -0.087 C  
HETATM   19  C   UNL     1      -8.551   8.599  68.100  1.00  0.00    -0.141 C  
HETATM   20  C   UNL     1      -6.892   8.893  66.135  1.00  0.00    -0.074 A  
HETATM   21  C   UNL     1      -6.061   9.730  65.367  1.00  0.00    -0.074 A  
HETATM   22  O   UNL     1      -9.578   8.356  67.475  1.00  0.00    -0.145 OA 
HETATM   23  C   UNL     1      -6.607   7.172  64.418  1.00  0.00    -0.040 A  
HETATM   24  C   UNL     1      -5.538   9.305  64.141  1.00  0.00    -0.069 A  
HETATM   25  C   UNL     1      -7.163   7.612  65.622  1.00  0.00    -0.065 A  
HETATM   26  C   UNL     1      -5.797   8.021  63.675  1.00  0.00    -0.062 A  
BRANCH  19  27
HETATM   27  O   UNL     1      -8.340   8.289  69.441  1.00  0.00    -0.118 OA 
BRANCH  27  28
HETATM   28  C   UNL     1      -9.458   8.522  70.251  1.00  0.00    -0.166 A  
HETATM   29  C   UNL     1     -11.368   9.835  70.827  1.00  0.00    -0.416 A  
HETATM   30  C   UNL     1     -10.229   9.669  70.068  1.00  0.00    -0.296 A  
HETATM   31  C   UNL     1     -11.788   8.849  71.710  1.00  0.00    -0.429 A  
HETATM   32  C   UNL     1     -11.053   7.680  71.869  1.00  0.00    -0.290 A  
HETATM   33  C   UNL     1     -13.081   9.222  72.356  1.00  0.00    -0.481 C  
HETATM   34  C   UNL     1     -13.375  10.628  71.800  1.00  0.00    -0.437 C  
HETATM   35  C   UNL     1      -9.870   7.518  71.133  1.00  0.00    -0.180 A  
HETATM   36  C   UNL     1     -12.280  11.012  70.798  1.00  0.00    -0.480 C  
ENDBRANCH  27  28
ENDBRANCH  19  27
ENDBRANCH  12  14
TORSDOF 3
ENDMDL
MODEL       79
REMARK 921   NORMALIZED FREE ENERGY PREDICTED BY IDOCK:   -5.82 KCAL/MOL
REMARK 922        TOTAL FREE ENERGY PREDICTED BY IDOCK:   -7.72 KCAL/MOL
REMARK 923 INTER-LIGAND FREE ENERGY PREDICTED BY IDOCK:   -7.81 KCAL/MOL
REMARK 924 INTRA-LIGAND FREE ENERGY PREDICTED BY IDOCK:    0.09 KCAL/MOL
REMARK 927      BINDING AFFINITY PREDICTED BY RF-SCORE:    0.00 PKD
ROOT
HETATM    1  C   UNL     1     -11.284   7.953  70.619  1.00  0.00    -0.263 C  
HETATM    2  S   UNL     1     -10.652   7.055  69.145  1.00  0.00    -0.215 SA 
HETATM    3  C   UNL     1      -9.246   6.256  70.053  1.00  0.00    -0.152 C  
HETATM    4  C   UNL     1      -8.981   4.863  69.473  1.00  0.00    -0.130 C  
HETATM    5  CA  UNL     1      -9.658   6.289  71.547  1.00  0.00    -0.155 C  
HETATM    6  C   UNL     1      -7.985   7.103  69.783  1.00  0.00    -0.123 C  
HETATM    7  N   UNL     1     -10.445   7.521  71.752  1.00  0.00    -0.193 N  
HETATM    8  C   UNL     1     -10.522   5.107  72.029  1.00  0.00    -0.215 C  
HETATM    9  OXT UNL     1     -10.243   3.926  71.889  1.00  0.00    -0.161 OA 
HETATM   10  O   UNL     1     -11.625   5.491  72.728  1.00  0.00    -0.308 OA 
HETATM   11  C   UNL     1      -9.806   8.732  71.863  1.00  0.00    -0.324 C  
HETATM   12  CA  UNL     1     -10.763   9.394  70.831  1.00  0.00    -0.323 C  
HETATM   13  O   UNL     1      -8.783   8.997  72.453  1.00  0.00    -0.347 OA 
ENDROOT
BRANCH  12  14
HETATM   14  N   UNL     1     -10.145  10.040  69.646  1.00  0.00    -0.223 N  
HETATM   15  C   UNL     1     -10.920  10.560  68.633  1.00  0.00    -0.248 C  
HETATM   16  H   UNL     1      -9.129  10.099  69.580  1.00  0.00     0.000 HD 
HETATM   17  O   UNL     1     -12.145  10.469  68.641  1.00  0.00    -0.324 OA 
HETATM   18  C   UNL     1     -10.167  11.207  67.486  1.00  0.00    -0.216 C  
HETATM   19  C   UNL     1      -9.502  12.476  67.983  1.00  0.00    -0.209 C  
HETATM   20  C   UNL     1      -9.258  10.239  66.703  1.00  0.00    -0.179 A  
HETATM   21  C   UNL     1      -9.627   8.891  66.541  1.00  0.00    -0.297 A  
HETATM   22  O   UNL     1      -8.398  12.538  68.513  1.00  0.00    -0.147 OA 
HETATM   23  C   UNL     1      -7.407   9.833  65.154  1.00  0.00    -0.122 A  
HETATM   24  C   UNL     1      -8.886   8.029  65.725  1.00  0.00    -0.170 A  
HETATM   25  C   UNL     1      -8.123  10.683  66.003  1.00  0.00    -0.159 A  
HETATM   26  C   UNL     1      -7.787   8.505  65.018  1.00  0.00    -0.112 A  
BRANCH  19  27
HETATM   27  O   UNL     1     -10.354  13.559  67.784  1.00  0.00    -0.234 OA 
BRANCH  27  28
HETATM   28  C   UNL     1      -9.688  14.732  67.407  1.00  0.00    -0.214 A  
HETATM   29  C   UNL     1      -7.665  15.963  67.093  1.00  0.00    -0.247 A  
HETATM   30  C   UNL     1      -8.304  14.827  67.544  1.00  0.00    -0.197 A  
HETATM   31  C   UNL     1      -8.371  16.970  66.448  1.00  0.00    -0.319 A  
HETATM   32  C   UNL     1      -9.745  16.868  66.266  1.00  0.00    -0.301 A  
HETATM   33  C   UNL     1      -7.456  18.056  65.986  1.00  0.00    -0.271 C  
HETATM   34  C   UNL     1      -6.075  17.613  66.504  1.00  0.00    -0.236 C  
HETATM   35  C   UNL     1     -10.412  15.737  66.757  1.00  0.00    -0.305 A  
HETATM   36  C   UNL     1      -6.208  16.253  67.198  1.00  0.00    -0.176 C  
ENDBRANCH  27  28
ENDBRANCH  19  27
ENDBRANCH  12  14
TORSDOF 3
ENDMDL
MODEL       80
REMARK 921   NORMALIZED FREE ENERGY PREDICTED BY IDOCK:   -5.81 KCAL/MOL
REMARK 922        TOTAL FREE ENERGY PREDICTED BY IDOCK:   -7.71 KCAL/MOL
REMARK 923 INTER-LIGAND FREE ENERGY PREDICTED BY IDOCK:   -7.61 KCAL/MOL
REMARK 924 INTRA-LIGAND FREE ENERGY PREDICTED BY IDOCK:   -0.10 KCAL/MOL
REMARK 927      BINDING AFFINITY PREDICTED BY RF-SCORE:    0.00 PKD
ROOT
HETATM    1  C   UNL     1      -8.037  10.858  65.844  1.00  0.00    -0.120 C  
HETATM    2  S   UNL     1      -8.124   9.639  67.217  1.00  0.00    -0.110 SA 
HETATM    3  C   UNL     1      -9.066   8.379  66.234  1.00  0.00    -0.194 C  
HETATM    4  C   UNL     1      -8.647   6.969  66.665  1.00  0.00    -0.124 C  
HETATM    5  CA  UNL     1      -8.787   8.732  64.750  1.00  0.00    -0.045 C  
HETATM    6  C   UNL     1     -10.557   8.536  66.595  1.00  0.00    -0.118 C  
HETATM    7  N   UNL     1      -8.648  10.200  64.674  1.00  0.00    -0.172 N  
HETATM    8  C   UNL     1      -7.509   8.119  64.144  1.00  0.00    -0.106 C  
HETATM    9  OXT UNL     1      -7.221   6.931  64.160  1.00  0.00    -0.058 OA 
HETATM   10  O   UNL     1      -6.733   9.021  63.486  1.00  0.00    -0.089 OA 
HETATM   11  C   UNL     1      -9.768  10.996  64.692  1.00  0.00    -0.266 C  
HETATM   12  CA  UNL     1      -9.159  11.921  65.785  1.00  0.00    -0.038 C  
HETATM   13  O   UNL     1     -10.828  10.824  64.136  1.00  0.00    -0.207 OA 
ENDROOT
BRANCH  12  14
HETATM   14  N   UNL     1      -9.941  12.105  67.033  1.00  0.00    -0.201 N  
HETATM   15  C   UNL     1      -9.339  12.536  68.194  1.00  0.00    -0.210 C  
HETATM   16  H   UNL     1     -10.942  11.909  67.032  1.00  0.00     0.000 HD 
HETATM   17  O   UNL     1      -8.129  12.738  68.261  1.00  0.00    -0.146 OA 
HETATM   18  C   UNL     1     -10.251  12.699  69.395  1.00  0.00     0.565 C  
HETATM   19  C   UNL     1     -11.196  13.859  69.146  1.00  0.00    -0.269 C  
HETATM   20  C   UNL     1     -10.912  11.390  69.867  1.00  0.00    -0.030 A  
HETATM   21  C   UNL     1     -10.227  10.165  69.751  1.00  0.00    -0.286 A  
HETATM   22  O   UNL     1     -12.270  13.786  68.559  1.00  0.00    -0.348 OA 
HETATM   23  C   UNL     1     -12.639  10.209  71.137  1.00  0.00    -0.486 A  
HETATM   24  C   UNL     1     -10.751   8.987  70.293  1.00  0.00    -0.262 A  
HETATM   25  C   UNL     1     -12.135  11.378  70.560  1.00  0.00    -0.487 A  
HETATM   26  C   UNL     1     -11.948   9.012  71.000  1.00  0.00    -0.323 A  
BRANCH  19  27
HETATM   27  O   UNL     1     -10.639  15.032  69.649  1.00  0.00    -0.248 OA 
BRANCH  27  28
HETATM   28  C   UNL     1     -10.504  16.042  68.688  1.00  0.00    -0.251 A  
HETATM   29  C   UNL     1     -10.306  18.353  68.118  1.00  0.00    -0.393 A  
HETATM   30  C   UNL     1     -10.519  17.382  69.073  1.00  0.00    -0.285 A  
HETATM   31  C   UNL     1     -10.010  18.011  66.805  1.00  0.00    -0.346 A  
HETATM   32  C   UNL     1      -9.948  16.677  66.417  1.00  0.00    -0.316 A  
HETATM   33  C   UNL     1      -9.745  19.226  65.980  1.00  0.00    -0.294 C  
HETATM   34  C   UNL     1      -9.992  20.391  66.956  1.00  0.00    -0.568 C  
HETATM   35  C   UNL     1     -10.204  15.681  67.370  1.00  0.00    -0.264 A  
HETATM   36  C   UNL     1     -10.331  19.826  68.340  1.00  0.00    -0.513 C  
ENDBRANCH  27  28
ENDBRANCH  19  27
ENDBRANCH  12  14
TORSDOF 3
ENDMDL
MODEL       81
REMARK 921   NORMALIZED FREE ENERGY PREDICTED BY IDOCK:   -5.74 KCAL/MOL
REMARK 922        TOTAL FREE ENERGY PREDICTED BY IDOCK:   -7.62 KCAL/MOL
REMARK 923 INTER-LIGAND FREE ENERGY PREDICTED BY IDOCK:   -6.50 KCAL/MOL
REMARK 924 INTRA-LIGAND FREE ENERGY PREDICTED BY IDOCK:   -1.12 KCAL/MOL
REMARK 927      BINDING AFFINITY PREDICTED BY RF-SCORE:    0.00 PKD
ROOT
HETATM    1  C   UNL     1      -9.682  12.691  67.908  1.00  0.00    -0.216 C  
HETATM    2  S   UNL     1      -8.938  12.414  66.250  1.00  0.00     0.048 SA 
HETATM    3  C   UNL     1     -10.565  12.134  65.405  1.00  0.00    -0.272 C  
HETATM    4  C   UNL     1     -10.502  12.671  63.972  1.00  0.00    -0.443 C  
HETATM    5  CA  UNL     1     -11.618  12.805  66.323  1.00  0.00    -0.379 C  
HETATM    6  C   UNL     1     -10.774  10.608  65.305  1.00  0.00    -0.100 C  
HETATM    7  N   UNL     1     -11.143  12.652  67.712  1.00  0.00    -0.235 N  
HETATM    8  C   UNL     1     -11.855  14.310  66.082  1.00  0.00    -0.402 C  
HETATM    9  OXT UNL     1     -12.125  14.817  65.004  1.00  0.00    -0.359 OA 
HETATM   10  O   UNL     1     -11.823  15.052  67.221  1.00  0.00    -0.307 OA 
HETATM   11  C   UNL     1     -11.293  11.449  68.359  1.00  0.00    -0.281 C  
HETATM   12  CA  UNL     1      -9.810  11.455  68.829  1.00  0.00    -0.164 C  
HETATM   13  O   UNL     1     -12.236  10.691  68.339  1.00  0.00    -0.372 OA 
ENDROOT
BRANCH  12  14
HETATM   14  N   UNL     1      -8.973  10.286  68.461  1.00  0.00    -0.129 N  
HETATM   15  C   UNL     1      -7.796  10.015  69.122  1.00  0.00    -0.112 C  
HETATM   16  H   UNL     1      -9.275   9.671  67.705  1.00  0.00     0.000 HD 
HETATM   17  O   UNL     1      -7.364  10.752  70.005  1.00  0.00    -0.095 OA 
HETATM   18  C   UNL     1      -7.043   8.782  68.661  1.00  0.00    -0.072 C  
HETATM   19  C   UNL     1      -7.840   7.546  69.034  1.00  0.00    -0.120 C  
HETATM   20  C   UNL     1      -6.559   8.849  67.200  1.00  0.00    -0.062 A  
HETATM   21  C   UNL     1      -6.172  10.078  66.633  1.00  0.00    -0.069 A  
HETATM   22  O   UNL     1      -8.729   7.045  68.355  1.00  0.00    -0.125 OA 
HETATM   23  C   UNL     1      -5.737   7.751  65.172  1.00  0.00    -0.037 A  
HETATM   24  C   UNL     1      -5.606  10.142  65.356  1.00  0.00    -0.082 A  
HETATM   25  C   UNL     1      -6.341   7.691  66.431  1.00  0.00    -0.046 A  
HETATM   26  C   UNL     1      -5.373   8.978  64.632  1.00  0.00    -0.050 A  
BRANCH  19  27
HETATM   27  O   UNL     1      -7.437   7.091  70.286  1.00  0.00    -0.082 OA 
BRANCH  27  28
HETATM   28  C   UNL     1      -8.471   6.500  71.024  1.00  0.00    -0.127 A  
HETATM   29  C   UNL     1      -9.483   4.571  72.004  1.00  0.00    -0.196 A  
HETATM   30  C   UNL     1      -8.498   5.118  71.209  1.00  0.00    -0.124 A  
HETATM   31  C   UNL     1     -10.393   5.380  72.671  1.00  0.00    -0.246 A  
HETATM   32  C   UNL     1     -10.350   6.762  72.530  1.00  0.00    -0.222 A  
HETATM   33  C   UNL     1     -11.308   4.567  73.526  1.00  0.00    -0.355 C  
HETATM   34  C   UNL     1     -10.881   3.115  73.239  1.00  0.00    -0.283 C  
HETATM   35  C   UNL     1      -9.379   7.328  71.692  1.00  0.00    -0.160 A  
HETATM   36  C   UNL     1      -9.690   3.121  72.274  1.00  0.00    -0.224 C  
ENDBRANCH  27  28
ENDBRANCH  19  27
ENDBRANCH  12  14
TORSDOF 3
ENDMDL
MODEL       82
REMARK 921   NORMALIZED FREE ENERGY PREDICTED BY IDOCK:   -5.72 KCAL/MOL
REMARK 922        TOTAL FREE ENERGY PREDICTED BY IDOCK:   -7.59 KCAL/MOL
REMARK 923 INTER-LIGAND FREE ENERGY PREDICTED BY IDOCK:   -7.52 KCAL/MOL
REMARK 924 INTRA-LIGAND FREE ENERGY PREDICTED BY IDOCK:   -0.07 KCAL/MOL
REMARK 927      BINDING AFFINITY PREDICTED BY RF-SCORE:    0.00 PKD
ROOT
HETATM    1  C   UNL     1      -7.860  11.856  67.769  1.00  0.00    -0.138 C  
HETATM    2  S   UNL     1      -7.483  10.745  69.184  1.00  0.00    -0.126 SA 
HETATM    3  C   UNL     1      -7.632   9.187  68.189  1.00  0.00    -0.084 C  
HETATM    4  C   UNL     1      -6.640   8.143  68.713  1.00  0.00    -0.053 C  
HETATM    5  CA  UNL     1      -7.423   9.625  66.717  1.00  0.00    -0.094 C  
HETATM    6  C   UNL     1      -9.047   8.622  68.429  1.00  0.00    -0.138 C  
HETATM    7  N   UNL     1      -7.984  10.984  66.586  1.00  0.00    -0.151 N  
HETATM    8  C   UNL     1      -5.959   9.685  66.237  1.00  0.00    -0.063 C  
HETATM    9  OXT UNL     1      -5.149   8.774  66.328  1.00  0.00    -0.029 OA 
HETATM   10  O   UNL     1      -5.644  10.845  65.601  1.00  0.00    -0.134 OA 
HETATM   11  C   UNL     1      -9.343  11.157  66.484  1.00  0.00    -0.180 C  
HETATM   12  CA  UNL     1      -9.340  12.263  67.578  1.00  0.00    -0.183 C  
HETATM   13  O   UNL     1     -10.145  10.502  65.858  1.00  0.00    -0.242 OA 
ENDROOT
BRANCH  12  14
HETATM   14  N   UNL     1     -10.222  12.061  68.754  1.00  0.00    -0.366 N  
HETATM   15  C   UNL     1     -11.540  11.692  68.601  1.00  0.00    -0.312 C  
HETATM   16  H   UNL     1      -9.846  12.197  69.693  1.00  0.00     0.000 HD 
HETATM   17  O   UNL     1     -12.054  11.564  67.493  1.00  0.00    -0.614 OA 
HETATM   18  C   UNL     1     -12.330  11.502  69.883  1.00  0.00    -0.247 C  
HETATM   19  C   UNL     1     -11.802  10.282  70.614  1.00  0.00    -0.347 C  
HETATM   20  C   UNL     1     -12.471  12.780  70.731  1.00  0.00    -0.357 A  
HETATM   21  C   UNL     1     -12.561  14.040  70.111  1.00  0.00    -0.310 A  
HETATM   22  O   UNL     1     -10.860  10.279  71.399  1.00  0.00     0.190 OA 
HETATM   23  C   UNL     1     -12.969  13.884  72.859  1.00  0.00    -0.349 A  
HETATM   24  C   UNL     1     -12.823  15.197  70.853  1.00  0.00    -0.479 A  
HETATM   25  C   UNL     1     -12.666  12.735  72.123  1.00  0.00    -0.070 A  
HETATM   26  C   UNL     1     -13.044  15.117  72.223  1.00  0.00    -0.456 A  
BRANCH  19  27
HETATM   27  O   UNL     1     -12.523   9.156  70.226  1.00  0.00     0.241 OA 
BRANCH  27  28
HETATM   28  C   UNL     1     -12.020   7.961  70.755  1.00  0.00    -0.131 A  
HETATM   29  C   UNL     1     -10.801   5.924  70.494  1.00  0.00    -0.366 A  
HETATM   30  C   UNL     1     -11.354   7.055  69.931  1.00  0.00    -0.260 A  
HETATM   31  C   UNL     1     -10.840   5.717  71.866  1.00  0.00    -0.309 A  
HETATM   32  C   UNL     1     -11.462   6.635  72.704  1.00  0.00    -0.221 A  
HETATM   33  C   UNL     1     -10.112   4.469  72.241  1.00  0.00    -0.253 C  
HETATM   34  C   UNL     1      -9.672   3.882  70.887  1.00  0.00    -0.253 C  
HETATM   35  C   UNL     1     -12.064   7.768  72.140  1.00  0.00    -0.346 A  
HETATM   36  C   UNL     1     -10.098   4.833  69.763  1.00  0.00    -0.289 C  
ENDBRANCH  27  28
ENDBRANCH  19  27
ENDBRANCH  12  14
TORSDOF 3
ENDMDL
MODEL       83
REMARK 921   NORMALIZED FREE ENERGY PREDICTED BY IDOCK:   -5.60 KCAL/MOL
REMARK 922        TOTAL FREE ENERGY PREDICTED BY IDOCK:   -7.46 KCAL/MOL
REMARK 923 INTER-LIGAND FREE ENERGY PREDICTED BY IDOCK:   -7.14 KCAL/MOL
REMARK 924 INTRA-LIGAND FREE ENERGY PREDICTED BY IDOCK:   -0.32 KCAL/MOL
REMARK 927      BINDING AFFINITY PREDICTED BY RF-SCORE:    0.00 PKD
ROOT
HETATM    1  C   UNL     1     -12.115  12.942  65.768  1.00  0.00    -0.457 C  
HETATM    2  S   UNL     1     -11.105  13.801  67.041  1.00  0.00    -0.310 SA 
HETATM    3  C   UNL     1      -9.950  14.574  65.812  1.00  0.00    -0.334 C  
HETATM    4  C   UNL     1      -9.506  15.951  66.317  1.00  0.00    -0.350 C  
HETATM    5  CA  UNL     1     -10.727  14.574  64.471  1.00  0.00    -0.174 C  
HETATM    6  C   UNL     1      -8.688  13.689  65.749  1.00  0.00     1.206 C  
HETATM    7  N   UNL     1     -11.577  13.368  64.463  1.00  0.00    -0.355 N  
HETATM    8  C   UNL     1     -11.649  15.786  64.231  1.00  0.00    -0.191 C  
HETATM    9  OXT UNL     1     -11.307  16.957  64.305  1.00  0.00    -1.202 OA 
HETATM   10  O   UNL     1     -12.903  15.443  63.831  1.00  0.00    -0.604 OA 
HETATM   11  C   UNL     1     -11.023  12.141  64.184  1.00  0.00    -0.361 C  
HETATM   12  CA  UNL     1     -11.709  11.490  65.420  1.00  0.00     0.205 C  
HETATM   13  O   UNL     1     -10.191  11.857  63.354  1.00  0.00    -0.413 OA 
ENDROOT
BRANCH  12  14
HETATM   14  N   UNL     1     -10.832  10.811  66.406  1.00  0.00    -0.161 N  
HETATM   15  C   UNL     1     -11.222  10.653  67.717  1.00  0.00    -0.313 C  
HETATM   16  H   UNL     1      -9.924  10.455  66.108  1.00  0.00     0.000 HD 
HETATM   17  O   UNL     1     -12.283  11.108  68.137  1.00  0.00    -0.612 OA 
HETATM   18  C   UNL     1     -10.242   9.928  68.620  1.00  0.00    -0.197 C  
HETATM   19  C   UNL     1     -10.161   8.474  68.196  1.00  0.00    -0.200 C  
HETATM   20  C   UNL     1      -8.892  10.650  68.793  1.00  0.00    -0.161 A  
HETATM   21  C   UNL     1      -8.831  12.056  68.789  1.00  0.00     0.079 A  
HETATM   22  O   UNL     1      -9.421   8.029  67.326  1.00  0.00    -0.144 OA 
HETATM   23  C   UNL     1      -6.530  10.631  69.436  1.00  0.00    -0.067 A  
HETATM   24  C   UNL     1      -7.640  12.731  69.076  1.00  0.00     0.149 A  
HETATM   25  C   UNL     1      -7.710   9.957  69.109  1.00  0.00    -0.098 A  
HETATM   26  C   UNL     1      -6.495  12.020  69.417  1.00  0.00    -0.115 A  
BRANCH  19  27
HETATM   27  O   UNL     1     -11.087   7.724  68.917  1.00  0.00     0.039 OA 
BRANCH  27  28
HETATM   28  C   UNL     1     -10.703   7.489  70.243  1.00  0.00    -0.238 A  
HETATM   29  C   UNL     1      -9.242   6.468  71.833  1.00  0.00    -0.148 A  
HETATM   30  C   UNL     1      -9.648   6.621  70.524  1.00  0.00    -0.177 A  
HETATM   31  C   UNL     1      -9.819   7.214  72.852  1.00  0.00    -0.221 A  
HETATM   32  C   UNL     1     -10.841   8.116  72.579  1.00  0.00    -0.431 A  
HETATM   33  C   UNL     1      -9.162   6.931  74.162  1.00  0.00    -0.253 C  
HETATM   34  C   UNL     1      -8.132   5.837  73.825  1.00  0.00    -0.107 C  
HETATM   35  C   UNL     1     -11.292   8.250  71.258  1.00  0.00    -0.308 A  
HETATM   36  C   UNL     1      -8.169   5.556  72.319  1.00  0.00    -0.111 C  
ENDBRANCH  27  28
ENDBRANCH  19  27
ENDBRANCH  12  14
TORSDOF 3
ENDMDL
MODEL       84
REMARK 921   NORMALIZED FREE ENERGY PREDICTED BY IDOCK:   -5.58 KCAL/MOL
REMARK 922        TOTAL FREE ENERGY PREDICTED BY IDOCK:   -7.44 KCAL/MOL
REMARK 923 INTER-LIGAND FREE ENERGY PREDICTED BY IDOCK:   -6.53 KCAL/MOL
REMARK 924 INTRA-LIGAND FREE ENERGY PREDICTED BY IDOCK:   -0.91 KCAL/MOL
REMARK 927      BINDING AFFINITY PREDICTED BY RF-SCORE:    0.00 PKD
ROOT
HETATM    1  C   UNL     1     -10.842  10.355  66.095  1.00  0.00     0.081 C  
HETATM    2  S   UNL     1     -11.291  10.863  67.804  1.00  0.00    -0.234 SA 
HETATM    3  C   UNL     1     -10.096  12.280  67.854  1.00  0.00    -0.200 C  
HETATM    4  C   UNL     1     -10.683  13.421  68.692  1.00  0.00    -0.275 C  
HETATM    5  CA  UNL     1      -9.812  12.622  66.369  1.00  0.00    -0.259 C  
HETATM    6  C   UNL     1      -8.831  11.788  68.586  1.00  0.00    -0.062 C  
HETATM    7  N   UNL     1      -9.870  11.355  65.614  1.00  0.00    -0.225 N  
HETATM    8  C   UNL     1     -10.802  13.598  65.704  1.00  0.00    -0.279 C  
HETATM    9  OXT UNL     1     -11.112  14.696  66.142  1.00  0.00    -0.323 OA 
HETATM   10  O   UNL     1     -11.263  13.166  64.499  1.00  0.00    -0.324 OA 
HETATM   11  C   UNL     1      -8.810  10.482  65.655  1.00  0.00    -0.182 C  
HETATM   12  CA  UNL     1      -9.743   9.275  65.957  1.00  0.00    -0.289 C  
HETATM   13  O   UNL     1      -7.625  10.728  65.624  1.00  0.00    -0.131 OA 
ENDROOT
BRANCH  12  14
HETATM   14  N   UNL     1      -9.459   8.482  67.178  1.00  0.00    -0.153 N  
HETATM   15  C   UNL     1     -10.141   7.316  67.447  1.00  0.00    -0.204 C  
HETATM   16  H   UNL     1      -8.745   8.806  67.832  1.00  0.00     0.000 HD 
HETATM   17  O   UNL     1     -11.042   6.910  66.718  1.00  0.00    -0.321 OA 
HETATM   18  C   UNL     1      -9.744   6.592  68.719  1.00  0.00    -0.131 C  
HETATM   19  C   UNL     1      -8.340   6.041  68.559  1.00  0.00    -0.113 C  
HETATM   20  C   UNL     1     -10.003   7.395  70.008  1.00  0.00    -0.185 A  
HETATM   21  C   UNL     1     -11.101   8.272  70.092  1.00  0.00    -0.189 A  
HETATM   22  O   UNL     1      -7.306   6.656  68.793  1.00  0.00    -0.085 OA 
HETATM   23  C   UNL     1      -9.617   7.783  72.394  1.00  0.00    -0.238 A  
HETATM   24  C   UNL     1     -11.431   8.908  71.293  1.00  0.00    -0.368 A  
HETATM   25  C   UNL     1      -9.263   7.180  71.184  1.00  0.00    -0.157 A  
HETATM   26  C   UNL     1     -10.700   8.651  72.448  1.00  0.00    -0.311 A  
BRANCH  19  27
HETATM   27  O   UNL     1      -8.402   4.741  68.064  1.00  0.00    -0.102 OA 
BRANCH  27  28
HETATM   28  C   UNL     1      -8.463   4.678  66.666  1.00  0.00    -0.105 A  
HETATM   29  C   UNL     1      -9.586   4.019  64.664  1.00  0.00    -0.175 A  
HETATM   30  C   UNL     1      -9.508   3.999  66.040  1.00  0.00    -0.186 A  
HETATM   31  C   UNL     1      -8.687   4.759  63.908  1.00  0.00    -0.132 A  
HETATM   32  C   UNL     1      -7.667   5.477  64.522  1.00  0.00    -0.090 A  
HETATM   33  C   UNL     1      -9.020   4.687  62.455  1.00  0.00    -0.124 C  
HETATM   34  C   UNL     1     -10.224   3.728  62.404  1.00  0.00    -0.163 C  
HETATM   35  C   UNL     1      -7.551   5.431  65.919  1.00  0.00    -0.083 A  
HETATM   36  C   UNL     1     -10.601   3.316  63.831  1.00  0.00    -0.215 C  
ENDBRANCH  27  28
ENDBRANCH  19  27
ENDBRANCH  12  14
TORSDOF 3
ENDMDL
MODEL       85
REMARK 921   NORMALIZED FREE ENERGY PREDICTED BY IDOCK:   -5.56 KCAL/MOL
REMARK 922        TOTAL FREE ENERGY PREDICTED BY IDOCK:   -7.41 KCAL/MOL
REMARK 923 INTER-LIGAND FREE ENERGY PREDICTED BY IDOCK:   -6.11 KCAL/MOL
REMARK 924 INTRA-LIGAND FREE ENERGY PREDICTED BY IDOCK:   -1.30 KCAL/MOL
REMARK 927      BINDING AFFINITY PREDICTED BY RF-SCORE:    0.00 PKD
ROOT
HETATM    1  C   UNL     1     -10.796  14.142  69.457  1.00  0.00    -0.075 C  
HETATM    2  S   UNL     1      -8.982  14.218  69.167  1.00  0.00     0.274 SA 
HETATM    3  C   UNL     1      -9.140  14.681  67.378  1.00  0.00    -0.197 C  
HETATM    4  C   UNL     1      -7.989  15.611  66.982  1.00  0.00    -0.268 C  
HETATM    5  CA  UNL     1     -10.562  15.284  67.240  1.00  0.00    -0.290 C  
HETATM    6  C   UNL     1      -8.979  13.388  66.553  1.00  0.00    -0.065 C  
HETATM    7  N   UNL     1     -11.430  14.569  68.197  1.00  0.00    -0.297 N  
HETATM    8  C   UNL     1     -10.683  16.790  67.548  1.00  0.00    -0.275 C  
HETATM    9  OXT UNL     1     -10.005  17.670  67.041  1.00  0.00    -0.295 OA 
HETATM   10  O   UNL     1     -11.701  17.089  68.399  1.00  0.00     0.232 OA 
HETATM   11  C   UNL     1     -11.894  13.312  67.893  1.00  0.00    -0.349 C  
HETATM   12  CA  UNL     1     -11.471  12.761  69.285  1.00  0.00    -0.289 C  
HETATM   13  O   UNL     1     -12.299  12.890  66.835  1.00  0.00    -0.384 OA 
ENDROOT
BRANCH  12  14
HETATM   14  N   UNL     1     -10.560  11.589  69.305  1.00  0.00    -0.409 N  
HETATM   15  C   UNL     1     -10.985  10.348  68.887  1.00  0.00    -0.245 C  
HETATM   16  H   UNL     1      -9.601  11.705  69.635  1.00  0.00     0.000 HD 
HETATM   17  O   UNL     1     -12.142  10.146  68.528  1.00  0.00     0.058 OA 
HETATM   18  C   UNL     1      -9.952   9.238  68.943  1.00  0.00    -0.190 C  
HETATM   19  C   UNL     1      -8.878   9.508  67.906  1.00  0.00    -0.119 C  
HETATM   20  C   UNL     1      -9.445   8.919  70.362  1.00  0.00    -0.227 A  
HETATM   21  C   UNL     1     -10.305   9.043  71.469  1.00  0.00    -0.412 A  
HETATM   22  O   UNL     1      -7.884  10.205  68.079  1.00  0.00    -0.095 OA 
HETATM   23  C   UNL     1      -7.794   7.910  71.861  1.00  0.00    -0.120 A  
HETATM   24  C   UNL     1      -9.907   8.633  72.747  1.00  0.00    -0.087 A  
HETATM   25  C   UNL     1      -8.177   8.358  70.594  1.00  0.00    -0.117 A  
HETATM   26  C   UNL     1      -8.659   8.051  72.939  1.00  0.00    -0.256 A  
BRANCH  19  27
HETATM   27  O   UNL     1      -9.213   8.878  66.711  1.00  0.00    -0.145 OA 
BRANCH  27  28
HETATM   28  C   UNL     1      -9.198   7.480  66.793  1.00  0.00    -0.156 A  
HETATM   29  C   UNL     1      -8.015   5.430  67.112  1.00  0.00    -0.101 A  
HETATM   30  C   UNL     1      -7.992   6.800  66.956  1.00  0.00    -0.109 A  
HETATM   31  C   UNL     1      -9.217   4.739  67.179  1.00  0.00    -0.136 A  
HETATM   32  C   UNL     1     -10.428   5.410  67.063  1.00  0.00    -0.319 A  
HETATM   33  C   UNL     1      -8.987   3.285  67.428  1.00  0.00    -0.176 C  
HETATM   34  C   UNL     1      -7.452   3.154  67.433  1.00  0.00    -0.062 C  
HETATM   35  C   UNL     1     -10.418   6.798  66.862  1.00  0.00    -0.350 A  
HETATM   36  C   UNL     1      -6.827   4.542  67.252  1.00  0.00    -0.055 C  
ENDBRANCH  27  28
ENDBRANCH  19  27
ENDBRANCH  12  14
TORSDOF 3
ENDMDL
MODEL       86
REMARK 921   NORMALIZED FREE ENERGY PREDICTED BY IDOCK:   -5.54 KCAL/MOL
REMARK 922        TOTAL FREE ENERGY PREDICTED BY IDOCK:   -7.38 KCAL/MOL
REMARK 923 INTER-LIGAND FREE ENERGY PREDICTED BY IDOCK:   -6.34 KCAL/MOL
REMARK 924 INTRA-LIGAND FREE ENERGY PREDICTED BY IDOCK:   -1.05 KCAL/MOL
REMARK 927      BINDING AFFINITY PREDICTED BY RF-SCORE:    0.00 PKD
ROOT
HETATM    1  C   UNL     1      -8.175   7.124  65.538  1.00  0.00    -0.139 C  
HETATM    2  S   UNL     1      -8.387   8.751  64.709  1.00  0.00    -0.157 SA 
HETATM    3  C   UNL     1      -6.570   9.122  64.650  1.00  0.00    -0.075 C  
HETATM    4  C   UNL     1      -6.246   9.915  63.379  1.00  0.00    -0.121 C  
HETATM    5  CA  UNL     1      -5.872   7.744  64.772  1.00  0.00    -0.038 C  
HETATM    6  C   UNL     1      -6.250  10.040  65.847  1.00  0.00    -0.085 C  
HETATM    7  N   UNL     1      -6.720   6.904  65.639  1.00  0.00    -0.051 N  
HETATM    8  C   UNL     1      -5.667   6.977  63.450  1.00  0.00    -0.036 C  
HETATM    9  OXT UNL     1      -5.126   7.427  62.451  1.00  0.00    -0.033 OA 
HETATM   10  O   UNL     1      -6.073   5.680  63.506  1.00  0.00    -0.023 OA 
HETATM   11  C   UNL     1      -6.693   7.079  67.002  1.00  0.00    -0.059 C  
HETATM   12  CA  UNL     1      -8.246   7.115  67.083  1.00  0.00    -0.118 C  
HETATM   13  O   UNL     1      -5.742   7.286  67.720  1.00  0.00    -0.027 OA 
ENDROOT
BRANCH  12  14
HETATM   14  N   UNL     1      -8.868   8.310  67.708  1.00  0.00    -0.137 N  
HETATM   15  C   UNL     1     -10.236   8.445  67.781  1.00  0.00    -0.224 C  
HETATM   16  H   UNL     1      -8.271   9.044  68.090  1.00  0.00     0.000 HD 
HETATM   17  O   UNL     1     -10.998   7.614  67.292  1.00  0.00    -0.245 OA 
HETATM   18  C   UNL     1     -10.744   9.704  68.457  1.00  0.00    -0.239 C  
HETATM   19  C   UNL     1     -10.410   9.642  69.936  1.00  0.00    -0.249 C  
HETATM   20  C   UNL     1     -10.351  11.009  67.738  1.00  0.00    -0.218 A  
HETATM   21  C   UNL     1     -10.239  11.042  66.335  1.00  0.00    -0.284 A  
HETATM   22  O   UNL     1      -9.353  10.006  70.439  1.00  0.00    -0.108 OA 
HETATM   23  C   UNL     1     -10.056  13.439  67.737  1.00  0.00    -0.232 A  
HETATM   24  C   UNL     1     -10.015  12.243  65.654  1.00  0.00    -0.271 A  
HETATM   25  C   UNL     1     -10.239  12.233  68.420  1.00  0.00    -0.220 A  
HETATM   26  C   UNL     1      -9.940  13.443  66.353  1.00  0.00    -0.293 A  
BRANCH  19  27
HETATM   27  O   UNL     1     -11.471   9.068  70.631  1.00  0.00    -0.263 OA 
BRANCH  27  28
HETATM   28  C   UNL     1     -11.110   7.926  71.356  1.00  0.00    -0.243 A  
HETATM   29  C   UNL     1     -10.198   5.720  71.440  1.00  0.00    -0.269 A  
HETATM   30  C   UNL     1     -10.618   6.802  70.695  1.00  0.00    -0.257 A  
HETATM   31  C   UNL     1     -10.194   5.767  72.827  1.00  0.00    -0.211 A  
HETATM   32  C   UNL     1     -10.640   6.898  73.500  1.00  0.00    -0.378 A  
HETATM   33  C   UNL     1      -9.626   4.513  73.406  1.00  0.00    -0.134 C  
HETATM   34  C   UNL     1      -9.341   3.638  72.170  1.00  0.00    -0.184 C  
HETATM   35  C   UNL     1     -11.109   7.990  72.754  1.00  0.00    -0.448 A  
HETATM   36  C   UNL     1      -9.690   4.427  70.903  1.00  0.00    -0.267 C  
ENDBRANCH  27  28
ENDBRANCH  19  27
ENDBRANCH  12  14
TORSDOF 3
ENDMDL
MODEL       87
REMARK 921   NORMALIZED FREE ENERGY PREDICTED BY IDOCK:   -5.53 KCAL/MOL
REMARK 922        TOTAL FREE ENERGY PREDICTED BY IDOCK:   -7.37 KCAL/MOL
REMARK 923 INTER-LIGAND FREE ENERGY PREDICTED BY IDOCK:   -6.29 KCAL/MOL
REMARK 924 INTRA-LIGAND FREE ENERGY PREDICTED BY IDOCK:   -1.09 KCAL/MOL
REMARK 927      BINDING AFFINITY PREDICTED BY RF-SCORE:    0.00 PKD
ROOT
HETATM    1  C   UNL     1      -9.360   7.302  66.520  1.00  0.00    -0.170 C  
HETATM    2  S   UNL     1      -7.809   8.108  65.951  1.00  0.00    -0.099 SA 
HETATM    3  C   UNL     1      -6.912   7.842  67.552  1.00  0.00    -0.078 C  
HETATM    4  C   UNL     1      -5.423   7.604  67.277  1.00  0.00    -0.031 C  
HETATM    5  CA  UNL     1      -7.656   6.672  68.244  1.00  0.00    -0.104 C  
HETATM    6  C   UNL     1      -7.017   9.152  68.360  1.00  0.00    -0.068 C  
HETATM    7  N   UNL     1      -9.080   6.785  67.872  1.00  0.00    -0.116 N  
HETATM    8  C   UNL     1      -7.191   5.255  67.852  1.00  0.00    -0.071 C  
HETATM    9  OXT UNL     1      -6.036   4.856  67.894  1.00  0.00    -0.025 OA 
HETATM   10  O   UNL     1      -8.212   4.420  67.523  1.00  0.00    -0.099 OA 
HETATM   11  C   UNL     1      -9.881   7.711  68.495  1.00  0.00    -0.167 C  
HETATM   12  CA  UNL     1     -10.438   8.224  67.137  1.00  0.00    -0.316 C  
HETATM   13  O   UNL     1      -9.910   8.022  69.664  1.00  0.00    -0.179 OA 
ENDROOT
BRANCH  12  14
HETATM   14  N   UNL     1     -10.294   9.672  66.844  1.00  0.00    -0.245 N  
HETATM   15  C   UNL     1     -10.988  10.618  67.564  1.00  0.00    -0.310 C  
HETATM   16  H   UNL     1      -9.669   9.973  66.095  1.00  0.00     0.000 HD 
HETATM   17  O   UNL     1     -11.790  10.306  68.441  1.00  0.00    -0.215 OA 
HETATM   18  C   UNL     1     -10.740  12.063  67.177  1.00  0.00    -0.277 C  
HETATM   19  C   UNL     1      -9.319  12.441  67.554  1.00  0.00    -0.181 C  
HETATM   20  C   UNL     1     -11.163  12.412  65.737  1.00  0.00    -0.370 A  
HETATM   21  C   UNL     1     -12.274  11.778  65.149  1.00  0.00     0.290 A  
HETATM   22  O   UNL     1      -8.329  12.264  66.853  1.00  0.00    -0.181 OA 
HETATM   23  C   UNL     1     -11.074  13.885  63.784  1.00  0.00     0.425 A  
HETATM   24  C   UNL     1     -12.755  12.173  63.896  1.00  0.00    -0.487 A  
HETATM   25  C   UNL     1     -10.568  13.463  65.017  1.00  0.00    -0.370 A  
HETATM   26  C   UNL     1     -12.166  13.237  63.222  1.00  0.00    -0.387 A  
BRANCH  19  27
HETATM   27  O   UNL     1      -9.304  12.980  68.837  1.00  0.00     0.075 OA 
BRANCH  27  28
HETATM   28  C   UNL     1      -9.498  14.367  68.861  1.00  0.00    -0.107 A  
HETATM   29  C   UNL     1      -8.630  16.589  68.725  1.00  0.00    -0.262 A  
HETATM   30  C   UNL     1      -8.405  15.229  68.777  1.00  0.00    -0.179 A  
HETATM   31  C   UNL     1      -9.921  17.097  68.685  1.00  0.00    -0.313 A  
HETATM   32  C   UNL     1     -11.020  16.247  68.724  1.00  0.00    -0.343 A  
HETATM   33  C   UNL     1      -9.909  18.584  68.553  1.00  0.00    -0.414 C  
HETATM   34  C   UNL     1      -8.411  18.941  68.590  1.00  0.00    -0.384 C  
HETATM   35  C   UNL     1     -10.805  14.865  68.819  1.00  0.00    -0.254 A  
HETATM   36  C   UNL     1      -7.587  17.651  68.678  1.00  0.00    -0.276 C  
ENDBRANCH  27  28
ENDBRANCH  19  27
ENDBRANCH  12  14
TORSDOF 3
ENDMDL
MODEL       88
REMARK 921   NORMALIZED FREE ENERGY PREDICTED BY IDOCK:   -5.52 KCAL/MOL
REMARK 922        TOTAL FREE ENERGY PREDICTED BY IDOCK:   -7.36 KCAL/MOL
REMARK 923 INTER-LIGAND FREE ENERGY PREDICTED BY IDOCK:   -6.24 KCAL/MOL
REMARK 924 INTRA-LIGAND FREE ENERGY PREDICTED BY IDOCK:   -1.12 KCAL/MOL
REMARK 927      BINDING AFFINITY PREDICTED BY RF-SCORE:    0.00 PKD
ROOT
HETATM    1  C   UNL     1     -11.369  11.164  67.084  1.00  0.00    -0.181 C  
HETATM    2  S   UNL     1     -10.625  11.879  68.605  1.00  0.00    -0.224 SA 
HETATM    3  C   UNL     1      -9.255  12.746  67.704  1.00  0.00    -0.192 C  
HETATM    4  C   UNL     1      -8.919  14.060  68.416  1.00  0.00    -0.189 C  
HETATM    5  CA  UNL     1      -9.759  12.889  66.245  1.00  0.00    -0.268 C  
HETATM    6  C   UNL     1      -8.004  11.849  67.798  1.00  0.00    -0.144 C  
HETATM    7  N   UNL     1     -10.589  11.704  65.955  1.00  0.00    -0.264 N  
HETATM    8  C   UNL     1     -10.619  14.135  65.951  1.00  0.00    -0.298 C  
HETATM    9  OXT UNL     1     -10.300  15.287  66.204  1.00  0.00    -0.274 OA 
HETATM   10  O   UNL     1     -11.771  13.854  65.286  1.00  0.00    -0.319 OA 
HETATM   11  C   UNL     1      -9.991  10.500  65.669  1.00  0.00    -0.270 C  
HETATM   12  CA  UNL     1     -10.900   9.746  66.680  1.00  0.00     0.059 C  
HETATM   13  O   UNL     1      -9.013  10.284  64.991  1.00  0.00    -0.170 OA 
ENDROOT
BRANCH  12  14
HETATM   14  N   UNL     1     -10.229   8.959  67.746  1.00  0.00    -0.214 N  
HETATM   15  C   UNL     1     -10.402   7.597  67.842  1.00  0.00    -0.212 C  
HETATM   16  H   UNL     1      -9.629   9.437  68.419  1.00  0.00     0.000 HD 
HETATM   17  O   UNL     1     -11.153   6.983  67.088  1.00  0.00    -0.350 OA 
HETATM   18  C   UNL     1      -9.649   6.909  68.965  1.00  0.00    -0.136 C  
HETATM   19  C   UNL     1      -8.162   6.962  68.669  1.00  0.00    -0.121 C  
HETATM   20  C   UNL     1     -10.066   7.366  70.376  1.00  0.00    -0.193 A  
HETATM   21  C   UNL     1     -11.398   7.738  70.639  1.00  0.00    -0.275 A  
HETATM   22  O   UNL     1      -7.413   7.886  68.966  1.00  0.00    -0.092 OA 
HETATM   23  C   UNL     1      -9.630   7.536  72.779  1.00  0.00    -0.229 A  
HETATM   24  C   UNL     1     -11.827   8.027  71.939  1.00  0.00    -0.353 A  
HETATM   25  C   UNL     1      -9.192   7.288  71.475  1.00  0.00    -0.150 A  
HETATM   26  C   UNL     1     -10.948   7.910  73.010  1.00  0.00    -0.398 A  
BRANCH  19  27
HETATM   27  O   UNL     1      -7.783   5.819  67.970  1.00  0.00    -0.094 OA 
BRANCH  27  28
HETATM   28  C   UNL     1      -7.694   6.015  66.586  1.00  0.00    -0.103 A  
HETATM   29  C   UNL     1      -6.700   7.091  64.700  1.00  0.00    -0.043 A  
HETATM   30  C   UNL     1      -6.825   6.974  66.068  1.00  0.00    -0.057 A  
HETATM   31  C   UNL     1      -7.370   6.226  63.846  1.00  0.00    -0.069 A  
HETATM   32  C   UNL     1      -8.205   5.236  64.350  1.00  0.00    -0.135 A  
HETATM   33  C   UNL     1      -7.018   6.499  62.420  1.00  0.00    -0.039 C  
HETATM   34  C   UNL     1      -6.080   7.718  62.504  1.00  0.00    -0.072 C  
HETATM   35  C   UNL     1      -8.373   5.133  65.738  1.00  0.00    -0.120 A  
HETATM   36  C   UNL     1      -5.859   8.084  63.976  1.00  0.00    -0.057 C  
ENDBRANCH  27  28
ENDBRANCH  19  27
ENDBRANCH  12  14
TORSDOF 3
ENDMDL
MODEL       89
REMARK 921   NORMALIZED FREE ENERGY PREDICTED BY IDOCK:   -5.51 KCAL/MOL
REMARK 922        TOTAL FREE ENERGY PREDICTED BY IDOCK:   -7.36 KCAL/MOL
REMARK 923 INTER-LIGAND FREE ENERGY PREDICTED BY IDOCK:   -6.32 KCAL/MOL
REMARK 924 INTRA-LIGAND FREE ENERGY PREDICTED BY IDOCK:   -1.03 KCAL/MOL
REMARK 927      BINDING AFFINITY PREDICTED BY RF-SCORE:    0.00 PKD
ROOT
HETATM    1  C   UNL     1     -11.223  13.422  68.874  1.00  0.00    -0.276 C  
HETATM    2  S   UNL     1      -9.386  13.475  68.821  1.00  0.00     0.166 SA 
HETATM    3  C   UNL     1      -9.313  14.393  67.211  1.00  0.00    -0.208 C  
HETATM    4  C   UNL     1      -8.102  15.332  67.206  1.00  0.00    -0.229 C  
HETATM    5  CA  UNL     1     -10.694  15.085  67.077  1.00  0.00    -0.304 C  
HETATM    6  C   UNL     1      -9.079  13.350  66.098  1.00  0.00     0.103 C  
HETATM    7  N   UNL     1     -11.688  14.194  67.707  1.00  0.00    -0.353 N  
HETATM    8  C   UNL     1     -10.820  16.465  67.754  1.00  0.00    -0.306 C  
HETATM    9  OXT UNL     1     -10.066  17.409  67.576  1.00  0.00    -0.299 OA 
HETATM   10  O   UNL     1     -11.929  16.587  68.533  1.00  0.00     0.057 OA 
HETATM   11  C   UNL     1     -12.138  13.084  67.033  1.00  0.00    -0.267 C  
HETATM   12  CA  UNL     1     -11.901  12.170  68.269  1.00  0.00    -0.301 C  
HETATM   13  O   UNL     1     -12.419  12.972  65.862  1.00  0.00    -0.469 OA 
ENDROOT
BRANCH  12  14
HETATM   14  N   UNL     1     -11.024  10.987  68.083  1.00  0.00    -0.226 N  
HETATM   15  C   UNL     1     -10.796  10.100  69.112  1.00  0.00    -0.226 C  
HETATM   16  H   UNL     1     -10.582  10.828  67.178  1.00  0.00     0.000 HD 
HETATM   17  O   UNL     1     -11.265  10.274  70.234  1.00  0.00    -0.280 OA 
HETATM   18  C   UNL     1      -9.895   8.924  68.788  1.00  0.00    -0.182 C  
HETATM   19  C   UNL     1     -10.605   8.009  67.808  1.00  0.00    -0.170 C  
HETATM   20  C   UNL     1      -8.455   9.319  68.408  1.00  0.00    -0.120 A  
HETATM   21  C   UNL     1      -7.847  10.443  68.999  1.00  0.00    -0.120 A  
HETATM   22  O   UNL     1     -10.593   8.131  66.588  1.00  0.00    -0.272 OA 
HETATM   23  C   UNL     1      -6.292   8.784  67.394  1.00  0.00    -0.057 A  
HETATM   24  C   UNL     1      -6.499  10.743  68.770  1.00  0.00    -0.048 A  
HETATM   25  C   UNL     1      -7.648   8.509  67.590  1.00  0.00    -0.098 A  
HETATM   26  C   UNL     1      -5.718   9.904  67.982  1.00  0.00    -0.039 A  
BRANCH  19  27
HETATM   27  O   UNL     1     -11.310   7.033  68.506  1.00  0.00     0.025 OA 
BRANCH  27  28
HETATM   28  C   UNL     1     -10.630   5.812  68.598  1.00  0.00    -0.235 A  
HETATM   29  C   UNL     1      -9.444   4.012  67.568  1.00  0.00    -0.231 A  
HETATM   30  C   UNL     1     -10.178   5.173  67.444  1.00  0.00    -0.224 A  
HETATM   31  C   UNL     1      -9.095   3.519  68.817  1.00  0.00    -0.204 A  
HETATM   32  C   UNL     1      -9.501   4.170  69.976  1.00  0.00    -0.260 A  
HETATM   33  C   UNL     1      -8.239   2.301  68.694  1.00  0.00    -0.074 C  
HETATM   34  C   UNL     1      -8.164   2.061  67.175  1.00  0.00    -0.075 C  
HETATM   35  C   UNL     1     -10.283   5.328  69.864  1.00  0.00    -0.364 A  
HETATM   36  C   UNL     1      -8.923   3.179  66.449  1.00  0.00    -0.158 C  
ENDBRANCH  27  28
ENDBRANCH  19  27
ENDBRANCH  12  14
TORSDOF 3
ENDMDL
MODEL       90
REMARK 921   NORMALIZED FREE ENERGY PREDICTED BY IDOCK:   -5.47 KCAL/MOL
REMARK 922        TOTAL FREE ENERGY PREDICTED BY IDOCK:   -7.30 KCAL/MOL
REMARK 923 INTER-LIGAND FREE ENERGY PREDICTED BY IDOCK:   -5.77 KCAL/MOL
REMARK 924 INTRA-LIGAND FREE ENERGY PREDICTED BY IDOCK:   -1.54 KCAL/MOL
REMARK 927      BINDING AFFINITY PREDICTED BY RF-SCORE:    0.00 PKD
ROOT
HETATM    1  C   UNL     1      -9.562   5.119  67.319  1.00  0.00    -0.142 C  
HETATM    2  S   UNL     1      -7.863   5.771  67.056  1.00  0.00    -0.102 SA 
HETATM    3  C   UNL     1      -7.072   4.604  68.261  1.00  0.00    -0.057 C  
HETATM    4  C   UNL     1      -5.666   4.235  67.776  1.00  0.00    -0.022 C  
HETATM    5  CA  UNL     1      -8.064   3.421  68.391  1.00  0.00    -0.069 C  
HETATM    6  C   UNL     1      -6.902   5.365  69.593  1.00  0.00    -0.060 C  
HETATM    7  N   UNL     1      -9.423   3.978  68.243  1.00  0.00    -0.164 N  
HETATM    8  C   UNL     1      -7.911   2.300  67.344  1.00  0.00    -0.065 C  
HETATM    9  OXT UNL     1      -6.872   1.708  67.091  1.00  0.00    -0.037 OA 
HETATM   10  O   UNL     1      -9.084   1.943  66.755  1.00  0.00    -0.119 OA 
HETATM   11  C   UNL     1     -10.013   4.636  69.295  1.00  0.00    -0.161 C  
HETATM   12  CA  UNL     1     -10.423   5.832  68.388  1.00  0.00    -0.222 C  
HETATM   13  O   UNL     1      -9.993   4.354  70.471  1.00  0.00    -0.217 OA 
ENDROOT
BRANCH  12  14
HETATM   14  N   UNL     1      -9.962   7.183  68.793  1.00  0.00    -0.159 N  
HETATM   15  C   UNL     1     -10.667   7.932  69.708  1.00  0.00    -0.233 C  
HETATM   16  H   UNL     1      -9.108   7.565  68.386  1.00  0.00     0.000 HD 
HETATM   17  O   UNL     1     -11.727   7.539  70.190  1.00  0.00    -0.111 OA 
HETATM   18  C   UNL     1     -10.081   9.290  70.049  1.00  0.00    -0.240 C  
HETATM   19  C   UNL     1      -8.787   9.093  70.815  1.00  0.00    -0.239 C  
HETATM   20  C   UNL     1     -10.010  10.262  68.856  1.00  0.00    -0.209 A  
HETATM   21  C   UNL     1     -10.995  10.229  67.851  1.00  0.00    -0.350 A  
HETATM   22  O   UNL     1      -7.681   8.936  70.310  1.00  0.00    -0.072 OA 
HETATM   23  C   UNL     1      -9.121  12.285  67.803  1.00  0.00    -0.191 A  
HETATM   24  C   UNL     1     -11.024  11.187  66.832  1.00  0.00    -0.333 A  
HETATM   25  C   UNL     1      -9.068  11.304  68.796  1.00  0.00    -0.122 A  
HETATM   26  C   UNL     1     -10.099  12.225  66.818  1.00  0.00    -0.224 A  
BRANCH  19  27
HETATM   27  O   UNL     1      -9.051   9.076  72.182  1.00  0.00    -0.372 OA 
BRANCH  27  28
HETATM   28  C   UNL     1      -8.876   7.816  72.768  1.00  0.00    -0.173 A  
HETATM   29  C   UNL     1      -9.779   5.762  73.586  1.00  0.00    -0.158 A  
HETATM   30  C   UNL     1      -9.983   7.029  73.082  1.00  0.00    -0.242 A  
HETATM   31  C   UNL     1      -8.498   5.243  73.717  1.00  0.00    -0.111 A  
HETATM   32  C   UNL     1      -7.387   6.001  73.366  1.00  0.00    -0.089 A  
HETATM   33  C   UNL     1      -8.537   3.834  74.209  1.00  0.00    -0.088 C  
HETATM   34  C   UNL     1     -10.037   3.569  74.439  1.00  0.00    -0.209 C  
HETATM   35  C   UNL     1      -7.579   7.306  72.891  1.00  0.00    -0.085 A  
HETATM   36  C   UNL     1     -10.837   4.806  74.016  1.00  0.00    -0.322 C  
ENDBRANCH  27  28
ENDBRANCH  19  27
ENDBRANCH  12  14
TORSDOF 3
ENDMDL
MODEL       91
REMARK 921   NORMALIZED FREE ENERGY PREDICTED BY IDOCK:   -5.40 KCAL/MOL
REMARK 922        TOTAL FREE ENERGY PREDICTED BY IDOCK:   -7.22 KCAL/MOL
REMARK 923 INTER-LIGAND FREE ENERGY PREDICTED BY IDOCK:   -6.17 KCAL/MOL
REMARK 924 INTRA-LIGAND FREE ENERGY PREDICTED BY IDOCK:   -1.05 KCAL/MOL
REMARK 927      BINDING AFFINITY PREDICTED BY RF-SCORE:    0.00 PKD
ROOT
HETATM    1  C   UNL     1      -7.529   4.388  67.743  1.00  0.00    -0.069 C  
HETATM    2  S   UNL     1      -9.203   4.475  66.987  1.00  0.00    -0.145 SA 
HETATM    3  C   UNL     1      -8.573   4.506  65.243  1.00  0.00    -0.128 C  
HETATM    4  C   UNL     1      -9.556   3.770  64.326  1.00  0.00    -0.166 C  
HETATM    5  CA  UNL     1      -7.149   3.899  65.316  1.00  0.00    -0.063 C  
HETATM    6  C   UNL     1      -8.551   5.980  64.789  1.00  0.00     0.036 C  
HETATM    7  N   UNL     1      -6.578   4.289  66.620  1.00  0.00    -0.048 N  
HETATM    8  C   UNL     1      -7.069   2.362  65.222  1.00  0.00    -0.057 C  
HETATM    9  OXT UNL     1      -7.568   1.683  64.337  1.00  0.00    -0.057 OA 
HETATM   10  O   UNL     1      -6.299   1.799  66.191  1.00  0.00    -0.022 OA 
HETATM   11  C   UNL     1      -6.086   5.559  66.801  1.00  0.00    -0.026 C  
HETATM   12  CA  UNL     1      -6.871   5.733  68.133  1.00  0.00    -0.067 C  
HETATM   13  O   UNL     1      -5.432   6.234  66.038  1.00  0.00    -0.013 OA 
ENDROOT
BRANCH  12  14
HETATM   14  N   UNL     1      -7.788   6.895  68.237  1.00  0.00    -0.116 N  
HETATM   15  C   UNL     1      -7.308   8.163  68.479  1.00  0.00    -0.093 C  
HETATM   16  H   UNL     1      -8.793   6.752  68.128  1.00  0.00     0.000 HD 
HETATM   17  O   UNL     1      -6.114   8.379  68.666  1.00  0.00    -0.043 OA 
HETATM   18  C   UNL     1      -8.348   9.265  68.546  1.00  0.00    -0.119 C  
HETATM   19  C   UNL     1      -8.943   9.471  67.166  1.00  0.00    -0.134 C  
HETATM   20  C   UNL     1      -9.363   9.104  69.694  1.00  0.00    -0.177 A  
HETATM   21  C   UNL     1      -8.971   8.525  70.915  1.00  0.00    -0.206 A  
HETATM   22  O   UNL     1      -9.889   8.845  66.701  1.00  0.00    -0.215 OA 
HETATM   23  C   UNL     1     -11.507   9.657  70.739  1.00  0.00    -0.399 A  
HETATM   24  C   UNL     1      -9.838   8.490  72.013  1.00  0.00    -0.383 A  
HETATM   25  C   UNL     1     -10.656   9.654  69.630  1.00  0.00    -0.252 A  
HETATM   26  C   UNL     1     -11.098   9.071  71.930  1.00  0.00    -0.433 A  
BRANCH  19  27
HETATM   27  O   UNL     1      -8.223  10.451  66.488  1.00  0.00    -0.124 OA 
BRANCH  27  28
HETATM   28  C   UNL     1      -9.011  11.528  66.062  1.00  0.00    -0.176 A  
HETATM   29  C   UNL     1      -9.698  13.807  66.260  1.00  0.00    -0.297 A  
HETATM   30  C   UNL     1      -8.971  12.741  66.747  1.00  0.00    -0.188 A  
HETATM   31  C   UNL     1     -10.403  13.705  65.068  1.00  0.00    -0.393 A  
HETATM   32  C   UNL     1     -10.415  12.514  64.351  1.00  0.00    -0.384 A  
HETATM   33  C   UNL     1     -11.042  15.005  64.710  1.00  0.00    -0.388 C  
HETATM   34  C   UNL     1     -10.693  15.923  65.897  1.00  0.00    -0.303 C  
HETATM   35  C   UNL     1      -9.714  11.410  64.858  1.00  0.00    -0.283 A  
HETATM   36  C   UNL     1      -9.807  15.154  66.884  1.00  0.00    -0.243 C  
ENDBRANCH  27  28
ENDBRANCH  19  27
ENDBRANCH  12  14
TORSDOF 3
ENDMDL
MODEL       92
REMARK 921   NORMALIZED FREE ENERGY PREDICTED BY IDOCK:   -5.39 KCAL/MOL
REMARK 922        TOTAL FREE ENERGY PREDICTED BY IDOCK:   -7.21 KCAL/MOL
REMARK 923 INTER-LIGAND FREE ENERGY PREDICTED BY IDOCK:   -6.29 KCAL/MOL
REMARK 924 INTRA-LIGAND FREE ENERGY PREDICTED BY IDOCK:   -0.92 KCAL/MOL
REMARK 927      BINDING AFFINITY PREDICTED BY RF-SCORE:    0.00 PKD
ROOT
HETATM    1  C   UNL     1      -7.592   7.549  69.163  1.00  0.00    -0.100 C  
HETATM    2  S   UNL     1      -9.343   7.992  68.821  1.00  0.00    -0.147 SA 
HETATM    3  C   UNL     1      -9.434   7.018  67.245  1.00  0.00    -0.138 C  
HETATM    4  C   UNL     1     -10.844   6.444  67.074  1.00  0.00    -0.464 C  
HETATM    5  CA  UNL     1      -8.297   5.970  67.351  1.00  0.00    -0.105 C  
HETATM    6  C   UNL     1      -9.205   8.004  66.081  1.00  0.00    -0.219 C  
HETATM    7  N   UNL     1      -7.196   6.601  68.106  1.00  0.00    -0.086 N  
HETATM    8  C   UNL     1      -8.658   4.659  68.077  1.00  0.00    -0.102 C  
HETATM    9  OXT UNL     1      -9.612   3.944  67.807  1.00  0.00    -0.182 OA 
HETATM   10  O   UNL     1      -7.753   4.296  69.025  1.00  0.00    -0.055 OA 
HETATM   11  C   UNL     1      -6.362   7.497  67.482  1.00  0.00    -0.056 C  
HETATM   12  CA  UNL     1      -6.512   8.526  68.640  1.00  0.00    -0.054 C  
HETATM   13  O   UNL     1      -5.894   7.447  66.368  1.00  0.00    -0.034 OA 
ENDROOT
BRANCH  12  14
HETATM   14  N   UNL     1      -6.988   9.886  68.285  1.00  0.00    -0.071 N  
HETATM   15  C   UNL     1      -7.350  10.791  69.258  1.00  0.00    -0.129 C  
HETATM   16  H   UNL     1      -7.049  10.156  67.303  1.00  0.00     0.000 HD 
HETATM   17  O   UNL     1      -7.342  10.499  70.451  1.00  0.00    -0.205 OA 
HETATM   18  C   UNL     1      -7.804  12.152  68.764  1.00  0.00    -0.017 C  
HETATM   19  C   UNL     1      -6.618  12.880  68.159  1.00  0.00    -0.093 C  
HETATM   20  C   UNL     1      -9.078  12.116  67.899  1.00  0.00    -0.185 A  
HETATM   21  C   UNL     1     -10.083  11.164  68.153  1.00  0.00    -0.193 A  
HETATM   22  O   UNL     1      -6.241  12.777  66.997  1.00  0.00    -0.252 OA 
HETATM   23  C   UNL     1     -10.592  13.163  66.285  1.00  0.00    -0.292 A  
HETATM   24  C   UNL     1     -11.303  11.198  67.469  1.00  0.00    -0.351 A  
HETATM   25  C   UNL     1      -9.357  13.104  66.939  1.00  0.00    -0.246 A  
HETATM   26  C   UNL     1     -11.564  12.207  66.548  1.00  0.00    -0.425 A  
BRANCH  19  27
HETATM   27  O   UNL     1      -5.996  13.653  69.135  1.00  0.00    -0.080 OA 
BRANCH  27  28
HETATM   28  C   UNL     1      -6.218  15.027  68.985  1.00  0.00    -0.098 A  
HETATM   29  C   UNL     1      -7.710  16.883  68.799  1.00  0.00    -0.247 A  
HETATM   30  C   UNL     1      -7.517  15.519  68.868  1.00  0.00    -0.158 A  
HETATM   31  C   UNL     1      -6.642  17.762  68.915  1.00  0.00    -0.229 A  
HETATM   32  C   UNL     1      -5.346  17.286  69.078  1.00  0.00    -0.153 A  
HETATM   33  C   UNL     1      -7.108  19.180  68.888  1.00  0.00    -0.372 C  
HETATM   34  C   UNL     1      -8.627  19.060  68.663  1.00  0.00    -0.389 C  
HETATM   35  C   UNL     1      -5.131  15.901  69.107  1.00  0.00    -0.104 A  
HETATM   36  C   UNL     1      -9.016  17.578  68.628  1.00  0.00    -0.260 C  
ENDBRANCH  27  28
ENDBRANCH  19  27
ENDBRANCH  12  14
TORSDOF 3
ENDMDL
MODEL       93
REMARK 921   NORMALIZED FREE ENERGY PREDICTED BY IDOCK:   -5.38 KCAL/MOL
REMARK 922        TOTAL FREE ENERGY PREDICTED BY IDOCK:   -7.20 KCAL/MOL
REMARK 923 INTER-LIGAND FREE ENERGY PREDICTED BY IDOCK:   -6.18 KCAL/MOL
REMARK 924 INTRA-LIGAND FREE ENERGY PREDICTED BY IDOCK:   -1.01 KCAL/MOL
REMARK 927      BINDING AFFINITY PREDICTED BY RF-SCORE:    0.00 PKD
ROOT
HETATM    1  C   UNL     1      -8.685   5.518  66.865  1.00  0.00    -0.112 C  
HETATM    2  S   UNL     1      -8.507   6.970  65.752  1.00  0.00    -0.133 SA 
HETATM    3  C   UNL     1      -6.655   6.885  65.697  1.00  0.00    -0.051 C  
HETATM    4  C   UNL     1      -6.159   7.334  64.318  1.00  0.00    -0.037 C  
HETATM    5  CA  UNL     1      -6.306   5.426  66.088  1.00  0.00    -0.035 C  
HETATM    6  C   UNL     1      -6.118   7.903  66.723  1.00  0.00    -0.049 C  
HETATM    7  N   UNL     1      -7.325   4.983  67.059  1.00  0.00    -0.081 N  
HETATM    8  C   UNL     1      -6.298   4.405  64.933  1.00  0.00    -0.034 C  
HETATM    9  OXT UNL     1      -5.671   4.525  63.891  1.00  0.00    -0.016 OA 
HETATM   10  O   UNL     1      -7.002   3.274  65.204  1.00  0.00    -0.054 OA 
HETATM   11  C   UNL     1      -7.249   5.392  68.369  1.00  0.00    -0.071 C  
HETATM   12  CA  UNL     1      -8.747   5.808  68.383  1.00  0.00    -0.111 C  
HETATM   13  O   UNL     1      -6.271   5.495  69.074  1.00  0.00    -0.027 OA 
ENDROOT
BRANCH  12  14
HETATM   14  N   UNL     1      -9.062   7.208  68.762  1.00  0.00    -0.135 N  
HETATM   15  C   UNL     1     -10.340   7.582  69.113  1.00  0.00    -0.212 C  
HETATM   16  H   UNL     1      -8.318   7.907  68.761  1.00  0.00     0.000 HD 
HETATM   17  O   UNL     1     -11.279   6.790  69.082  1.00  0.00    -0.236 OA 
HETATM   18  C   UNL     1     -10.525   9.039  69.494  1.00  0.00    -0.223 C  
HETATM   19  C   UNL     1      -9.807   9.304  70.803  1.00  0.00    -0.283 C  
HETATM   20  C   UNL     1     -10.225  10.031  68.354  1.00  0.00    -0.196 A  
HETATM   21  C   UNL     1     -10.498   9.683  67.018  1.00  0.00    -0.302 A  
HETATM   22  O   UNL     1      -8.624   9.606  70.914  1.00  0.00    -0.233 OA 
HETATM   23  C   UNL     1      -9.718  12.295  67.575  1.00  0.00    -0.190 A  
HETATM   24  C   UNL     1     -10.358  10.615  65.983  1.00  0.00    -0.290 A  
HETATM   25  C   UNL     1      -9.818  11.354  68.603  1.00  0.00    -0.199 A  
HETATM   26  C   UNL     1      -9.985  11.925  66.264  1.00  0.00    -0.245 A  
BRANCH  19  27
HETATM   27  O   UNL     1     -10.685   9.112  71.866  1.00  0.00    -0.357 OA 
BRANCH  27  28
HETATM   28  C   UNL     1     -10.403   7.968  72.624  1.00  0.00    -0.329 A  
HETATM   29  C   UNL     1     -10.847   5.691  73.193  1.00  0.00    -0.321 A  
HETATM   30  C   UNL     1     -11.194   6.827  72.492  1.00  0.00    -0.305 A  
HETATM   31  C   UNL     1      -9.691   5.652  73.962  1.00  0.00    -0.172 A  
HETATM   32  C   UNL     1      -8.870   6.768  74.066  1.00  0.00    -0.187 A  
HETATM   33  C   UNL     1      -9.489   4.298  74.558  1.00  0.00    -0.132 C  
HETATM   34  C   UNL     1     -10.734   3.511  74.106  1.00  0.00    -0.255 C  
HETATM   35  C   UNL     1      -9.234   7.943  73.392  1.00  0.00    -0.351 A  
HETATM   36  C   UNL     1     -11.596   4.405  73.207  1.00  0.00    -0.218 C  
ENDBRANCH  27  28
ENDBRANCH  19  27
ENDBRANCH  12  14
TORSDOF 3
ENDMDL
MODEL       94
REMARK 921   NORMALIZED FREE ENERGY PREDICTED BY IDOCK:   -5.37 KCAL/MOL
REMARK 922        TOTAL FREE ENERGY PREDICTED BY IDOCK:   -7.19 KCAL/MOL
REMARK 923 INTER-LIGAND FREE ENERGY PREDICTED BY IDOCK:   -6.64 KCAL/MOL
REMARK 924 INTRA-LIGAND FREE ENERGY PREDICTED BY IDOCK:   -0.55 KCAL/MOL
REMARK 927      BINDING AFFINITY PREDICTED BY RF-SCORE:    0.00 PKD
ROOT
HETATM    1  C   UNL     1      -7.565   6.045  71.861  1.00  0.00    -0.097 C  
HETATM    2  S   UNL     1      -8.963   6.593  72.922  1.00  0.00    -0.127 SA 
HETATM    3  C   UNL     1      -9.963   5.054  72.651  1.00  0.00    -0.166 C  
HETATM    4  C   UNL     1     -10.756   4.725  73.920  1.00  0.00    -0.362 C  
HETATM    5  CA  UNL     1      -8.939   3.979  72.207  1.00  0.00    -0.110 C  
HETATM    6  C   UNL     1     -10.992   5.364  71.545  1.00  0.00    -0.164 C  
HETATM    7  N   UNL     1      -7.892   4.672  71.432  1.00  0.00    -0.085 N  
HETATM    8  C   UNL     1      -8.235   3.213  73.345  1.00  0.00    -0.074 C  
HETATM    9  OXT UNL     1      -8.801   2.635  74.261  1.00  0.00    -0.074 OA 
HETATM   10  O   UNL     1      -6.883   3.154  73.205  1.00  0.00    -0.035 OA 
HETATM   11  C   UNL     1      -8.131   5.035  70.128  1.00  0.00    -0.081 C  
HETATM   12  CA  UNL     1      -7.607   6.478  70.376  1.00  0.00    -0.096 C  
HETATM   13  O   UNL     1      -8.703   4.414  69.262  1.00  0.00    -0.083 OA 
ENDROOT
BRANCH  12  14
HETATM   14  N   UNL     1      -8.523   7.601  70.056  1.00  0.00    -0.135 N  
HETATM   15  C   UNL     1      -8.278   8.875  70.517  1.00  0.00    -0.145 C  
HETATM   16  H   UNL     1      -9.350   7.426  69.485  1.00  0.00     0.000 HD 
HETATM   17  O   UNL     1      -7.325   9.128  71.249  1.00  0.00    -0.214 OA 
HETATM   18  C   UNL     1      -9.283   9.935  70.107  1.00  0.00    -0.184 C  
HETATM   19  C   UNL     1      -9.170  10.173  68.613  1.00  0.00    -0.157 C  
HETATM   20  C   UNL     1     -10.708   9.692  70.638  1.00  0.00    -0.388 A  
HETATM   21  C   UNL     1     -10.906   9.080  71.891  1.00  0.00    -0.413 A  
HETATM   22  O   UNL     1      -9.754   9.532  67.747  1.00  0.00    -0.141 OA 
HETATM   23  C   UNL     1     -13.117  10.124  70.561  1.00  0.00    -0.170 A  
HETATM   24  C   UNL     1     -12.184   8.971  72.451  1.00  0.00    -0.322 A  
HETATM   25  C   UNL     1     -11.846  10.196  69.983  1.00  0.00    -0.253 A  
HETATM   26  C   UNL     1     -13.286   9.508  71.794  1.00  0.00    -0.505 A  
BRANCH  19  27
HETATM   27  O   UNL     1      -8.268  11.205  68.371  1.00  0.00    -0.129 OA 
BRANCH  27  28
HETATM   28  C   UNL     1      -8.883  12.442  68.140  1.00  0.00    -0.191 A  
HETATM   29  C   UNL     1     -10.613  14.021  68.608  1.00  0.00    -0.263 A  
HETATM   30  C   UNL     1     -10.071  12.767  68.794  1.00  0.00    -0.057 A  
HETATM   31  C   UNL     1      -9.957  14.975  67.842  1.00  0.00    -0.222 A  
HETATM   32  C   UNL     1      -8.749  14.680  67.222  1.00  0.00    -0.224 A  
HETATM   33  C   UNL     1     -10.697  16.272  67.852  1.00  0.00    -0.329 C  
HETATM   34  C   UNL     1     -11.958  15.966  68.682  1.00  0.00    -0.106 C  
HETATM   35  C   UNL     1      -8.208  13.394  67.369  1.00  0.00    -0.188 A  
HETATM   36  C   UNL     1     -11.891  14.520  69.186  1.00  0.00    -0.354 C  
ENDBRANCH  27  28
ENDBRANCH  19  27
ENDBRANCH  12  14
TORSDOF 3
ENDMDL
MODEL       95
REMARK 921   NORMALIZED FREE ENERGY PREDICTED BY IDOCK:   -5.32 KCAL/MOL
REMARK 922        TOTAL FREE ENERGY PREDICTED BY IDOCK:   -7.14 KCAL/MOL
REMARK 923 INTER-LIGAND FREE ENERGY PREDICTED BY IDOCK:   -5.74 KCAL/MOL
REMARK 924 INTRA-LIGAND FREE ENERGY PREDICTED BY IDOCK:   -1.39 KCAL/MOL
REMARK 927      BINDING AFFINITY PREDICTED BY RF-SCORE:    0.00 PKD
ROOT
HETATM    1  C   UNL     1      -9.052  10.470  66.005  1.00  0.00    -0.168 C  
HETATM    2  S   UNL     1     -10.720   9.965  66.590  1.00  0.00     0.032 SA 
HETATM    3  C   UNL     1     -10.418  10.473  68.347  1.00  0.00    -0.186 C  
HETATM    4  C   UNL     1     -11.721  10.990  68.966  1.00  0.00    -0.402 C  
HETATM    5  CA  UNL     1      -9.260  11.502  68.278  1.00  0.00    -0.186 C  
HETATM    6  C   UNL     1     -10.019   9.206  69.130  1.00  0.00    -0.189 C  
HETATM    7  N   UNL     1      -8.384  11.092  67.163  1.00  0.00    -0.131 N  
HETATM    8  C   UNL     1      -9.677  12.964  68.021  1.00  0.00    -0.224 C  
HETATM    9  OXT UNL     1     -10.504  13.586  68.670  1.00  0.00    -0.243 OA 
HETATM   10  O   UNL     1      -8.965  13.564  67.029  1.00  0.00    -0.224 OA 
HETATM   11  C   UNL     1      -7.500  10.053  67.332  1.00  0.00    -0.091 C  
HETATM   12  CA  UNL     1      -7.954   9.380  66.005  1.00  0.00    -0.110 C  
HETATM   13  O   UNL     1      -6.810   9.795  68.291  1.00  0.00    -0.067 OA 
ENDROOT
BRANCH  12  14
HETATM   14  N   UNL     1      -8.436   7.978  66.082  1.00  0.00    -0.127 N  
HETATM   15  C   UNL     1      -7.563   6.935  66.295  1.00  0.00    -0.088 C  
HETATM   16  H   UNL     1      -9.432   7.784  65.974  1.00  0.00     0.000 HD 
HETATM   17  O   UNL     1      -6.350   7.112  66.381  1.00  0.00    -0.044 OA 
HETATM   18  C   UNL     1      -8.184   5.553  66.369  1.00  0.00    -0.106 C  
HETATM   19  C   UNL     1      -9.022   5.453  67.630  1.00  0.00    -0.108 C  
HETATM   20  C   UNL     1      -8.877   5.103  65.069  1.00  0.00    -0.134 A  
HETATM   21  C   UNL     1      -8.375   5.508  63.818  1.00  0.00    -0.075 A  
HETATM   22  O   UNL     1     -10.194   5.795  67.730  1.00  0.00    -0.158 OA 
HETATM   23  C   UNL     1     -10.430   3.633  63.877  1.00  0.00    -0.276 A  
HETATM   24  C   UNL     1      -8.907   5.006  62.625  1.00  0.00    -0.082 A  
HETATM   25  C   UNL     1      -9.926   4.166  65.067  1.00  0.00    -0.216 A  
HETATM   26  C   UNL     1      -9.922   4.055  62.656  1.00  0.00    -0.158 A  
BRANCH  19  27
HETATM   27  O   UNL     1      -8.244   4.951  68.669  1.00  0.00    -0.084 OA 
BRANCH  27  28
HETATM   28  C   UNL     1      -8.665   5.374  69.936  1.00  0.00    -0.121 A  
HETATM   29  C   UNL     1      -8.645   6.982  71.703  1.00  0.00    -0.116 A  
HETATM   30  C   UNL     1      -8.155   6.548  70.489  1.00  0.00    -0.117 A  
HETATM   31  C   UNL     1      -9.679   6.306  72.338  1.00  0.00    -0.162 A  
HETATM   32  C   UNL     1     -10.227   5.159  71.776  1.00  0.00    -0.271 A  
HETATM   33  C   UNL     1     -10.087   7.006  73.592  1.00  0.00    -0.376 C  
HETATM   34  C   UNL     1      -9.102   8.186  73.688  1.00  0.00    -0.235 C  
HETATM   35  C   UNL     1      -9.709   4.685  70.562  1.00  0.00    -0.284 A  
HETATM   36  C   UNL     1      -8.188   8.181  72.457  1.00  0.00    -0.215 C  
ENDBRANCH  27  28
ENDBRANCH  19  27
ENDBRANCH  12  14
TORSDOF 3
ENDMDL
MODEL       96
REMARK 921   NORMALIZED FREE ENERGY PREDICTED BY IDOCK:   -5.31 KCAL/MOL
REMARK 922        TOTAL FREE ENERGY PREDICTED BY IDOCK:   -7.11 KCAL/MOL
REMARK 923 INTER-LIGAND FREE ENERGY PREDICTED BY IDOCK:   -6.20 KCAL/MOL
REMARK 924 INTRA-LIGAND FREE ENERGY PREDICTED BY IDOCK:   -0.92 KCAL/MOL
REMARK 927      BINDING AFFINITY PREDICTED BY RF-SCORE:    0.00 PKD
ROOT
HETATM    1  C   UNL     1     -10.041  16.606  68.574  1.00  0.00    -0.266 C  
HETATM    2  S   UNL     1      -8.595  15.993  69.530  1.00  0.00     0.107 SA 
HETATM    3  C   UNL     1      -7.341  16.813  68.438  1.00  0.00    -0.198 C  
HETATM    4  C   UNL     1      -6.135  17.253  69.275  1.00  0.00    -0.229 C  
HETATM    5  CA  UNL     1      -8.109  17.955  67.725  1.00  0.00    -0.231 C  
HETATM    6  C   UNL     1      -6.834  15.750  67.442  1.00  0.00    -0.235 C  
HETATM    7  N   UNL     1      -9.495  17.486  67.525  1.00  0.00    -0.252 N  
HETATM    8  C   UNL     1      -8.184  19.292  68.490  1.00  0.00    -0.366 C  
HETATM    9  OXT UNL     1      -7.225  19.900  68.942  1.00  0.00    -0.319 OA 
HETATM   10  O   UNL     1      -9.440  19.810  68.556  1.00  0.00    -0.348 OA 
HETATM   11  C   UNL     1      -9.781  16.609  66.507  1.00  0.00    -0.274 C  
HETATM   12  CA  UNL     1     -10.583  15.678  67.461  1.00  0.00    -0.297 C  
HETATM   13  O   UNL     1      -9.355  16.598  65.375  1.00  0.00    -0.370 OA 
ENDROOT
BRANCH  12  14
HETATM   14  N   UNL     1     -10.161  14.257  67.542  1.00  0.00    -0.239 N  
HETATM   15  C   UNL     1     -10.602  13.439  68.558  1.00  0.00    -0.253 C  
HETATM   16  H   UNL     1      -9.533  13.880  66.832  1.00  0.00     0.000 HD 
HETATM   17  O   UNL     1     -11.318  13.858  69.463  1.00  0.00    -0.261 OA 
HETATM   18  C   UNL     1     -10.110  12.005  68.516  1.00  0.00    -0.201 C  
HETATM   19  C   UNL     1     -10.734  11.301  67.326  1.00  0.00    -0.251 C  
HETATM   20  C   UNL     1      -8.582  11.858  68.653  1.00  0.00    -0.037 A  
HETATM   21  C   UNL     1      -7.850  12.758  69.449  1.00  0.00     0.734 A  
HETATM   22  O   UNL     1     -10.285  11.304  66.185  1.00  0.00    -0.230 OA 
HETATM   23  C   UNL     1      -6.535  10.539  68.405  1.00  0.00    -0.055 A  
HETATM   24  C   UNL     1      -6.486  12.566  69.694  1.00  0.00    -0.057 A  
HETATM   25  C   UNL     1      -7.888  10.755  68.127  1.00  0.00    -0.112 A  
HETATM   26  C   UNL     1      -5.833  11.448  69.187  1.00  0.00    -0.047 A  
BRANCH  19  27
HETATM   27  O   UNL     1     -11.919  10.683  67.717  1.00  0.00    -0.359 OA 
BRANCH  27  28
HETATM   28  C   UNL     1     -11.785   9.895  68.867  1.00  0.00     0.309 A  
HETATM   29  C   UNL     1     -10.786   8.058  70.021  1.00  0.00    -0.235 A  
HETATM   30  C   UNL     1     -10.960   8.771  68.854  1.00  0.00     0.062 A  
HETATM   31  C   UNL     1     -11.361   8.485  71.211  1.00  0.00    -0.325 A  
HETATM   32  C   UNL     1     -12.149   9.629  71.247  1.00  0.00    -0.457 A  
HETATM   33  C   UNL     1     -10.968   7.598  72.346  1.00  0.00    -0.353 C  
HETATM   34  C   UNL     1     -10.117   6.503  71.675  1.00  0.00    -0.202 C  
HETATM   35  C   UNL     1     -12.368  10.340  70.058  1.00  0.00    -0.158 A  
HETATM   36  C   UNL     1      -9.982   6.815  70.180  1.00  0.00    -0.191 C  
ENDBRANCH  27  28
ENDBRANCH  19  27
ENDBRANCH  12  14
TORSDOF 3
ENDMDL
MODEL       97
REMARK 921   NORMALIZED FREE ENERGY PREDICTED BY IDOCK:   -5.29 KCAL/MOL
REMARK 922        TOTAL FREE ENERGY PREDICTED BY IDOCK:   -7.09 KCAL/MOL
REMARK 923 INTER-LIGAND FREE ENERGY PREDICTED BY IDOCK:   -6.00 KCAL/MOL
REMARK 924 INTRA-LIGAND FREE ENERGY PREDICTED BY IDOCK:   -1.09 KCAL/MOL
REMARK 927      BINDING AFFINITY PREDICTED BY RF-SCORE:    0.00 PKD
ROOT
HETATM    1  C   UNL     1      -7.707   3.387  66.877  1.00  0.00    -0.080 C  
HETATM    2  S   UNL     1      -9.219   3.825  65.927  1.00  0.00    -0.167 SA 
HETATM    3  C   UNL     1      -8.288   4.601  64.523  1.00  0.00    -0.123 C  
HETATM    4  C   UNL     1      -9.037   4.356  63.209  1.00  0.00    -0.137 C  
HETATM    5  CA  UNL     1      -6.863   3.997  64.599  1.00  0.00    -0.049 C  
HETATM    6  C   UNL     1      -8.283   6.125  64.761  1.00  0.00    -0.112 C  
HETATM    7  N   UNL     1      -6.565   3.770  66.027  1.00  0.00    -0.037 N  
HETATM    8  C   UNL     1      -6.664   2.653  63.870  1.00  0.00    -0.032 C  
HETATM    9  OXT UNL     1      -6.948   2.437  62.701  1.00  0.00    -0.026 OA 
HETATM   10  O   UNL     1      -6.045   1.710  64.629  1.00  0.00    -0.016 OA 
HETATM   11  C   UNL     1      -6.200   4.825  66.828  1.00  0.00    -0.032 C  
HETATM   12  CA  UNL     1      -7.222   4.415  67.926  1.00  0.00    -0.065 C  
HETATM   13  O   UNL     1      -5.466   5.752  66.571  1.00  0.00    -0.012 OA 
ENDROOT
BRANCH  12  14
HETATM   14  N   UNL     1      -8.220   5.433  68.343  1.00  0.00    -0.094 N  
HETATM   15  C   UNL     1      -7.841   6.561  69.035  1.00  0.00    -0.110 C  
HETATM   16  H   UNL     1      -9.204   5.294  68.112  1.00  0.00     0.000 HD 
HETATM   17  O   UNL     1      -6.677   6.751  69.379  1.00  0.00    -0.046 OA 
HETATM   18  C   UNL     1      -8.953   7.530  69.387  1.00  0.00    -0.139 C  
HETATM   19  C   UNL     1      -9.476   8.169  68.114  1.00  0.00    -0.141 C  
HETATM   20  C   UNL     1     -10.024   6.946  70.328  1.00  0.00    -0.189 A  
HETATM   21  C   UNL     1      -9.668   6.002  71.310  1.00  0.00    -0.200 A  
HETATM   22  O   UNL     1     -10.349   7.700  67.392  1.00  0.00    -0.223 OA 
HETATM   23  C   UNL     1     -12.258   7.019  71.325  1.00  0.00    -0.419 A  
HETATM   24  C   UNL     1     -10.596   5.559  72.260  1.00  0.00    -0.276 A  
HETATM   25  C   UNL     1     -11.344   7.430  70.351  1.00  0.00    -0.273 A  
HETATM   26  C   UNL     1     -11.885   6.080  72.278  1.00  0.00    -0.305 A  
BRANCH  19  27
HETATM   27  O   UNL     1      -8.783   9.351  67.865  1.00  0.00    -0.120 OA 
BRANCH  27  28
HETATM   28  C   UNL     1      -9.619  10.445  67.611  1.00  0.00    -0.149 A  
HETATM   29  C   UNL     1     -10.856  12.338  68.380  1.00  0.00    -0.257 A  
HETATM   30  C   UNL     1     -10.098  11.222  68.665  1.00  0.00    -0.216 A  
HETATM   31  C   UNL     1     -11.083  12.731  67.068  1.00  0.00    -0.316 A  
HETATM   32  C   UNL     1     -10.574  11.991  66.007  1.00  0.00    -0.303 A  
HETATM   33  C   UNL     1     -11.860  14.005  67.016  1.00  0.00    -0.458 C  
HETATM   34  C   UNL     1     -12.150  14.316  68.496  1.00  0.00    -0.295 C  
HETATM   35  C   UNL     1      -9.837  10.830  66.283  1.00  0.00    -0.262 A  
HETATM   36  C   UNL     1     -11.482  13.252  69.375  1.00  0.00    -0.323 C  
ENDBRANCH  27  28
ENDBRANCH  19  27
ENDBRANCH  12  14
TORSDOF 3
ENDMDL
MODEL       98
REMARK 921   NORMALIZED FREE ENERGY PREDICTED BY IDOCK:   -5.24 KCAL/MOL
REMARK 922        TOTAL FREE ENERGY PREDICTED BY IDOCK:   -7.04 KCAL/MOL
REMARK 923 INTER-LIGAND FREE ENERGY PREDICTED BY IDOCK:   -5.67 KCAL/MOL
REMARK 924 INTRA-LIGAND FREE ENERGY PREDICTED BY IDOCK:   -1.36 KCAL/MOL
REMARK 927      BINDING AFFINITY PREDICTED BY RF-SCORE:    0.00 PKD
ROOT
HETATM    1  C   UNL     1     -10.634  13.348  69.272  1.00  0.00     0.092 C  
HETATM    2  S   UNL     1      -8.821  13.632  69.162  1.00  0.00     0.652 SA 
HETATM    3  C   UNL     1      -8.829  13.919  67.330  1.00  0.00    -0.221 C  
HETATM    4  C   UNL     1      -7.759  14.953  66.964  1.00  0.00    -0.079 C  
HETATM    5  CA  UNL     1     -10.287  14.321  66.990  1.00  0.00    -0.267 C  
HETATM    6  C   UNL     1      -8.424  12.593  66.655  1.00  0.00     0.021 C  
HETATM    7  N   UNL     1     -11.167  13.584  67.917  1.00  0.00    -0.263 N  
HETATM    8  C   UNL     1     -10.621  15.820  67.135  1.00  0.00    -0.313 C  
HETATM    9  OXT UNL     1      -9.998  16.734  66.616  1.00  0.00    -0.268 OA 
HETATM   10  O   UNL     1     -11.757  16.056  67.845  1.00  0.00    -0.145 OA 
HETATM   11  C   UNL     1     -11.442  12.256  67.692  1.00  0.00    -0.336 C  
HETATM   12  CA  UNL     1     -11.117  11.882  69.167  1.00  0.00    -0.228 C  
HETATM   13  O   UNL     1     -11.671  11.698  66.644  1.00  0.00    -0.523 OA 
ENDROOT
BRANCH  12  14
HETATM   14  N   UNL     1     -10.081  10.843  69.394  1.00  0.00    -0.411 N  
HETATM   15  C   UNL     1     -10.344   9.512  69.160  1.00  0.00    -0.207 C  
HETATM   16  H   UNL     1      -9.158  11.120  69.729  1.00  0.00     0.000 HD 
HETATM   17  O   UNL     1     -11.453   9.123  68.803  1.00  0.00     0.319 OA 
HETATM   18  C   UNL     1      -9.196   8.553  69.416  1.00  0.00    -0.153 C  
HETATM   19  C   UNL     1      -8.113   8.790  68.381  1.00  0.00    -0.117 C  
HETATM   20  C   UNL     1      -8.723   8.513  70.881  1.00  0.00    -0.196 A  
HETATM   21  C   UNL     1      -9.642   8.699  71.931  1.00  0.00    -0.377 A  
HETATM   22  O   UNL     1      -7.213   9.618  68.474  1.00  0.00    -0.069 OA 
HETATM   23  C   UNL     1      -7.041   7.943  72.565  1.00  0.00    -0.095 A  
HETATM   24  C   UNL     1      -9.260   8.535  73.267  1.00  0.00    -0.024 A  
HETATM   25  C   UNL     1      -7.412   8.147  71.233  1.00  0.00    -0.074 A  
HETATM   26  C   UNL     1      -7.965   8.140  73.583  1.00  0.00    -0.256 A  
BRANCH  19  27
HETATM   27  O   UNL     1      -8.319   7.953  67.288  1.00  0.00    -0.119 OA 
BRANCH  27  28
HETATM   28  C   UNL     1      -8.346   8.630  66.063  1.00  0.00    -0.131 A  
HETATM   29  C   UNL     1      -9.415  10.130  64.542  1.00  0.00    -0.364 A  
HETATM   30  C   UNL     1      -9.448   9.412  65.719  1.00  0.00    -0.325 A  
HETATM   31  C   UNL     1      -8.281  10.137  63.741  1.00  0.00    -0.163 A  
HETATM   32  C   UNL     1      -7.158   9.397  64.095  1.00  0.00    -0.102 A  
HETATM   33  C   UNL     1      -8.457  11.043  62.568  1.00  0.00    -0.272 C  
HETATM   34  C   UNL     1      -9.905  11.549  62.712  1.00  0.00    -0.142 C  
HETATM   35  C   UNL     1      -7.195   8.630  65.268  1.00  0.00    -0.083 A  
HETATM   36  C   UNL     1     -10.513  10.976  63.998  1.00  0.00    -0.433 C  
ENDBRANCH  27  28
ENDBRANCH  19  27
ENDBRANCH  12  14
TORSDOF 3
ENDMDL
MODEL       99
REMARK 921   NORMALIZED FREE ENERGY PREDICTED BY IDOCK:   -5.19 KCAL/MOL
REMARK 922        TOTAL FREE ENERGY PREDICTED BY IDOCK:   -6.97 KCAL/MOL
REMARK 923 INTER-LIGAND FREE ENERGY PREDICTED BY IDOCK:   -7.64 KCAL/MOL
REMARK 924 INTRA-LIGAND FREE ENERGY PREDICTED BY IDOCK:    0.66 KCAL/MOL
REMARK 927      BINDING AFFINITY PREDICTED BY RF-SCORE:    0.00 PKD
ROOT
HETATM    1  C   UNL     1     -11.862   7.120  70.954  1.00  0.00    -0.339 C  
HETATM    2  S   UNL     1     -11.284   6.108  69.532  1.00  0.00    -0.330 SA 
HETATM    3  C   UNL     1      -9.677   5.640  70.332  1.00  0.00    -0.179 C  
HETATM    4  C   UNL     1      -9.279   4.225  69.902  1.00  0.00    -0.208 C  
HETATM    5  CA  UNL     1      -9.909   5.834  71.852  1.00  0.00    -0.164 C  
HETATM    6  C   UNL     1      -8.597   6.597  69.786  1.00  0.00    -0.136 C  
HETATM    7  N   UNL     1     -10.840   6.969  72.006  1.00  0.00    -0.219 N  
HETATM    8  C   UNL     1     -10.525   4.632  72.595  1.00  0.00    -0.199 C  
HETATM    9  OXT UNL     1     -10.093   3.489  72.567  1.00  0.00    -0.154 OA 
HETATM   10  O   UNL     1     -11.582   4.965  73.384  1.00  0.00    -0.313 OA 
HETATM   11  C   UNL     1     -10.379   8.257  71.875  1.00  0.00    -0.255 C  
HETATM   12  CA  UNL     1     -11.539   8.632  70.909  1.00  0.00    -0.269 C  
HETATM   13  O   UNL     1      -9.344   8.735  72.280  1.00  0.00    -0.314 OA 
ENDROOT
BRANCH  12  14
HETATM   14  N   UNL     1     -11.169   9.175  69.578  1.00  0.00    -0.437 N  
HETATM   15  C   UNL     1      -9.943   9.764  69.364  1.00  0.00    -0.205 C  
HETATM   16  H   UNL     1     -11.835   9.111  68.808  1.00  0.00     0.000 HD 
HETATM   17  O   UNL     1      -9.127   9.911  70.270  1.00  0.00    -0.208 OA 
HETATM   18  C   UNL     1      -9.683  10.264  67.956  1.00  0.00    -0.167 C  
HETATM   19  C   UNL     1      -9.566   9.074  67.021  1.00  0.00    -0.176 C  
HETATM   20  C   UNL     1     -10.638  11.382  67.496  1.00  0.00    -0.252 A  
HETATM   21  C   UNL     1     -11.132  12.320  68.422  1.00  0.00    -0.283 A  
HETATM   22  O   UNL     1     -10.505   8.516  66.464  1.00  0.00    -0.256 OA 
HETATM   23  C   UNL     1     -11.655  12.723  65.719  1.00  0.00    -0.419 A  
HETATM   24  C   UNL     1     -11.891  13.419  68.006  1.00  0.00    -0.392 A  
HETATM   25  C   UNL     1     -10.931  11.603  66.139  1.00  0.00    -0.339 A  
HETATM   26  C   UNL     1     -12.138  13.630  66.654  1.00  0.00    -0.459 A  
BRANCH  19  27
HETATM   27  O   UNL     1      -8.234   8.683  66.926  1.00  0.00    -0.104 OA 
BRANCH  27  28
HETATM   28  C   UNL     1      -7.961   7.899  65.798  1.00  0.00    -0.109 A  
HETATM   29  C   UNL     1      -7.736   5.759  64.761  1.00  0.00    -0.096 A  
HETATM   30  C   UNL     1      -7.930   6.509  65.901  1.00  0.00    -0.115 A  
HETATM   31  C   UNL     1      -7.644   6.366  63.515  1.00  0.00    -0.088 A  
HETATM   32  C   UNL     1      -7.719   7.748  63.392  1.00  0.00    -0.135 A  
HETATM   33  C   UNL     1      -7.515   5.348  62.430  1.00  0.00    -0.051 C  
HETATM   34  C   UNL     1      -7.465   4.010  63.191  1.00  0.00    -0.050 C  
HETATM   35  C   UNL     1      -7.874   8.525  64.550  1.00  0.00    -0.138 A  
HETATM   36  C   UNL     1      -7.630   4.276  64.691  1.00  0.00    -0.077 C  
ENDBRANCH  27  28
ENDBRANCH  19  27
ENDBRANCH  12  14
TORSDOF 3
ENDMDL
MODEL      100
REMARK 921   NORMALIZED FREE ENERGY PREDICTED BY IDOCK:   -5.19 KCAL/MOL
REMARK 922        TOTAL FREE ENERGY PREDICTED BY IDOCK:   -6.97 KCAL/MOL
REMARK 923 INTER-LIGAND FREE ENERGY PREDICTED BY IDOCK:   -6.32 KCAL/MOL
REMARK 924 INTRA-LIGAND FREE ENERGY PREDICTED BY IDOCK:   -0.65 KCAL/MOL
REMARK 927      BINDING AFFINITY PREDICTED BY RF-SCORE:    0.00 PKD
ROOT
HETATM    1  C   UNL     1      -8.464   7.618  66.098  1.00  0.00    -0.143 C  
HETATM    2  S   UNL     1      -8.646   8.623  64.570  1.00  0.00     0.001 SA 
HETATM    3  C   UNL     1      -6.840   9.026  64.444  1.00  0.00    -0.085 C  
HETATM    4  C   UNL     1      -6.434   9.120  62.970  1.00  0.00    -0.090 C  
HETATM    5  CA  UNL     1      -6.122   7.924  65.264  1.00  0.00    -0.038 C  
HETATM    6  C   UNL     1      -6.638  10.427  65.057  1.00  0.00    -0.075 C  
HETATM    7  N   UNL     1      -7.017   7.561  66.380  1.00  0.00    -0.068 N  
HETATM    8  C   UNL     1      -5.793   6.626  64.499  1.00  0.00    -0.031 C  
HETATM    9  OXT UNL     1      -5.185   6.566  63.441  1.00  0.00    -0.024 OA 
HETATM   10  O   UNL     1      -6.173   5.498  65.157  1.00  0.00    -0.028 OA 
HETATM   11  C   UNL     1      -7.104   8.377  67.482  1.00  0.00    -0.083 C  
HETATM   12  CA  UNL     1      -8.659   8.356  67.444  1.00  0.00    -0.124 C  
HETATM   13  O   UNL     1      -6.218   8.962  68.062  1.00  0.00    -0.050 OA 
ENDROOT
BRANCH  12  14
HETATM   14  N   UNL     1      -9.356   9.664  67.368  1.00  0.00    -0.133 N  
HETATM   15  C   UNL     1     -10.707   9.767  67.617  1.00  0.00    -0.274 C  
HETATM   16  H   UNL     1      -8.826  10.502  67.128  1.00  0.00     0.000 HD 
HETATM   17  O   UNL     1     -11.398   8.782  67.861  1.00  0.00     0.384 OA 
HETATM   18  C   UNL     1     -11.295  11.162  67.522  1.00  0.00    -0.351 C  
HETATM   19  C   UNL     1     -10.756  12.005  68.662  1.00  0.00    -0.236 C  
HETATM   20  C   UNL     1     -11.198  11.794  66.120  1.00  0.00    -0.363 A  
HETATM   21  C   UNL     1     -11.285  10.988  64.970  1.00  0.00     0.099 A  
HETATM   22  O   UNL     1      -9.705  12.636  68.642  1.00  0.00    -0.160 OA 
HETATM   23  C   UNL     1     -11.262  13.752  64.654  1.00  0.00    -0.383 A  
HETATM   24  C   UNL     1     -11.333  11.553  63.690  1.00  0.00    -0.412 A  
HETATM   25  C   UNL     1     -11.172  13.186  65.929  1.00  0.00    -0.311 A  
HETATM   26  C   UNL     1     -11.339  12.935  63.534  1.00  0.00    -0.408 A  
BRANCH  19  27
HETATM   27  O   UNL     1     -11.616  11.922  69.753  1.00  0.00    -0.297 OA 
BRANCH  27  28
HETATM   28  C   UNL     1     -11.550  10.695  70.424  1.00  0.00    -0.351 A  
HETATM   29  C   UNL     1     -10.282   8.992  71.519  1.00  0.00    -0.414 A  
HETATM   30  C   UNL     1     -10.314  10.163  70.792  1.00  0.00     0.117 A  
HETATM   31  C   UNL     1     -11.455   8.384  71.945  1.00  0.00    -0.384 A  
HETATM   32  C   UNL     1     -12.693   8.927  71.624  1.00  0.00    -0.403 A  
HETATM   33  C   UNL     1     -11.164   7.179  72.778  1.00  0.00    -0.314 C  
HETATM   34  C   UNL     1      -9.627   7.079  72.749  1.00  0.00    -0.172 C  
HETATM   35  C   UNL     1     -12.740  10.095  70.849  1.00  0.00    -0.448 A  
HETATM   36  C   UNL     1      -9.060   8.262  71.956  1.00  0.00    -0.267 C  
ENDBRANCH  27  28
ENDBRANCH  19  27
ENDBRANCH  12  14
TORSDOF 3
ENDMDL
MODEL      101
REMARK 921   NORMALIZED FREE ENERGY PREDICTED BY IDOCK:   -5.17 KCAL/MOL
REMARK 922        TOTAL FREE ENERGY PREDICTED BY IDOCK:   -6.96 KCAL/MOL
REMARK 923 INTER-LIGAND FREE ENERGY PREDICTED BY IDOCK:   -6.00 KCAL/MOL
REMARK 924 INTRA-LIGAND FREE ENERGY PREDICTED BY IDOCK:   -0.96 KCAL/MOL
REMARK 927      BINDING AFFINITY PREDICTED BY RF-SCORE:    0.00 PKD
ROOT
HETATM    1  C   UNL     1      -9.239   9.180  71.010  1.00  0.00    -0.252 C  
HETATM    2  S   UNL     1     -11.048   9.171  70.685  1.00  0.00    -0.282 SA 
HETATM    3  C   UNL     1     -11.174   7.322  70.613  1.00  0.00    -0.274 C  
HETATM    4  C   UNL     1     -12.529   6.875  71.172  1.00  0.00    -0.398 C  
HETATM    5  CA  UNL     1      -9.932   6.802  71.382  1.00  0.00    -0.179 C  
HETATM    6  C   UNL     1     -11.144   6.917  69.125  1.00  0.00    -0.205 C  
HETATM    7  N   UNL     1      -8.840   7.767  71.144  1.00  0.00    -0.135 N  
HETATM    8  C   UNL     1     -10.097   6.665  72.908  1.00  0.00    -0.182 C  
HETATM    9  OXT UNL     1     -10.993   6.051  73.468  1.00  0.00    -0.238 OA 
HETATM   10  O   UNL     1      -9.083   7.230  73.617  1.00  0.00    -0.165 OA 
HETATM   11  C   UNL     1      -8.157   7.748  69.952  1.00  0.00    -0.120 C  
HETATM   12  CA  UNL     1      -8.311   9.286  69.776  1.00  0.00    -0.142 C  
HETATM   13  O   UNL     1      -7.782   6.794  69.309  1.00  0.00    -0.101 OA 
ENDROOT
BRANCH  12  14
HETATM   14  N   UNL     1      -8.950   9.769  68.526  1.00  0.00    -0.123 N  
HETATM   15  C   UNL     1      -8.228  10.456  67.576  1.00  0.00    -0.114 C  
HETATM   16  H   UNL     1      -9.941   9.589  68.368  1.00  0.00     0.000 HD 
HETATM   17  O   UNL     1      -7.044  10.741  67.741  1.00  0.00    -0.083 OA 
HETATM   18  C   UNL     1      -8.994  10.880  66.338  1.00  0.00    -0.186 C  
HETATM   19  C   UNL     1      -9.368   9.645  65.539  1.00  0.00    -0.248 C  
HETATM   20  C   UNL     1     -10.143  11.868  66.615  1.00  0.00    -0.225 A  
HETATM   21  C   UNL     1     -10.031  12.817  67.649  1.00  0.00    -0.217 A  
HETATM   22  O   UNL     1     -10.371   8.964  65.715  1.00  0.00     0.168 OA 
HETATM   23  C   UNL     1     -12.211  12.983  65.928  1.00  0.00    -0.493 A  
HETATM   24  C   UNL     1     -11.002  13.808  67.832  1.00  0.00    -0.270 A  
HETATM   25  C   UNL     1     -11.263  11.968  65.771  1.00  0.00    -0.383 A  
HETATM   26  C   UNL     1     -12.082  13.901  66.962  1.00  0.00    -0.451 A  
BRANCH  19  27
HETATM   27  O   UNL     1      -8.374   9.377  64.601  1.00  0.00    -0.137 OA 
BRANCH  27  28
HETATM   28  C   UNL     1      -7.907   8.058  64.644  1.00  0.00    -0.140 A  
HETATM   29  C   UNL     1      -6.838   6.198  63.594  1.00  0.00    -0.041 A  
HETATM   30  C   UNL     1      -7.360   7.471  63.504  1.00  0.00    -0.090 A  
HETATM   31  C   UNL     1      -6.788   5.532  64.811  1.00  0.00    -0.048 A  
HETATM   32  C   UNL     1      -7.289   6.123  65.965  1.00  0.00    -0.080 A  
HETATM   33  C   UNL     1      -6.112   4.208  64.672  1.00  0.00    -0.023 C  
HETATM   34  C   UNL     1      -5.809   4.110  63.165  1.00  0.00    -0.017 C  
HETATM   35  C   UNL     1      -7.861   7.401  65.878  1.00  0.00    -0.104 A  
HETATM   36  C   UNL     1      -6.258   5.404  62.476  1.00  0.00    -0.018 C  
ENDBRANCH  27  28
ENDBRANCH  19  27
ENDBRANCH  12  14
TORSDOF 3
ENDMDL
MODEL      102
REMARK 921   NORMALIZED FREE ENERGY PREDICTED BY IDOCK:   -5.10 KCAL/MOL
REMARK 922        TOTAL FREE ENERGY PREDICTED BY IDOCK:   -6.88 KCAL/MOL
REMARK 923 INTER-LIGAND FREE ENERGY PREDICTED BY IDOCK:   -5.62 KCAL/MOL
REMARK 924 INTRA-LIGAND FREE ENERGY PREDICTED BY IDOCK:   -1.25 KCAL/MOL
REMARK 927      BINDING AFFINITY PREDICTED BY RF-SCORE:    0.00 PKD
ROOT
HETATM    1  C   UNL     1     -11.095   6.167  70.310  1.00  0.00    -0.366 C  
HETATM    2  S   UNL     1      -9.763   4.912  70.132  1.00  0.00    -0.232 SA 
HETATM    3  C   UNL     1      -9.082   5.179  71.836  1.00  0.00    -0.137 C  
HETATM    4  C   UNL     1      -8.547   3.855  72.392  1.00  0.00    -0.108 C  
HETATM    5  CA  UNL     1     -10.243   5.819  72.640  1.00  0.00    -0.184 C  
HETATM    6  C   UNL     1      -7.877   6.132  71.705  1.00  0.00    -0.102 C  
HETATM    7  N   UNL     1     -11.011   6.657  71.699  1.00  0.00    -0.234 N  
HETATM    8  C   UNL     1     -11.234   4.831  73.288  1.00  0.00    -0.340 C  
HETATM    9  OXT UNL     1     -10.926   3.901  74.019  1.00  0.00    -0.217 OA 
HETATM   10  O   UNL     1     -12.538   5.132  73.045  1.00  0.00     0.148 OA 
HETATM   11  C   UNL     1     -10.534   7.893  71.334  1.00  0.00    -0.206 C  
HETATM   12  CA  UNL     1     -10.771   7.600  69.825  1.00  0.00    -0.240 C  
HETATM   13  O   UNL     1      -9.998   8.730  72.023  1.00  0.00    -0.310 OA 
ENDROOT
BRANCH  12  14
HETATM   14  N   UNL     1      -9.605   7.726  68.915  1.00  0.00    -0.153 N  
HETATM   15  C   UNL     1      -9.773   7.962  67.569  1.00  0.00    -0.159 C  
HETATM   16  H   UNL     1      -8.662   7.636  69.294  1.00  0.00     0.000 HD 
HETATM   17  O   UNL     1     -10.888   8.028  67.057  1.00  0.00    -0.283 OA 
HETATM   18  C   UNL     1      -8.501   8.085  66.752  1.00  0.00    -0.128 C  
HETATM   19  C   UNL     1      -7.778   9.358  67.151  1.00  0.00    -0.091 C  
HETATM   20  C   UNL     1      -7.641   6.808  66.728  1.00  0.00    -0.090 A  
HETATM   21  C   UNL     1      -8.249   5.539  66.768  1.00  0.00    -0.105 A  
HETATM   22  O   UNL     1      -6.985   9.461  68.080  1.00  0.00    -0.077 OA 
HETATM   23  C   UNL     1      -5.507   5.680  66.320  1.00  0.00    -0.013 A  
HETATM   24  C   UNL     1      -7.498   4.369  66.614  1.00  0.00    -0.082 A  
HETATM   25  C   UNL     1      -6.251   6.847  66.516  1.00  0.00    -0.045 A  
HETATM   26  C   UNL     1      -6.130   4.440  66.373  1.00  0.00    -0.031 A  
BRANCH  19  27
HETATM   27  O   UNL     1      -8.184  10.404  66.326  1.00  0.00    -0.133 OA 
BRANCH  27  28
HETATM   28  C   UNL     1      -8.644  11.523  67.031  1.00  0.00    -0.161 A  
HETATM   29  C   UNL     1      -8.387  13.797  67.716  1.00  0.00    -0.180 A  
HETATM   30  C   UNL     1      -7.875  12.685  67.081  1.00  0.00    -0.110 A  
HETATM   31  C   UNL     1      -9.674  13.793  68.236  1.00  0.00    -0.231 A  
HETATM   32  C   UNL     1     -10.469  12.655  68.153  1.00  0.00    -0.239 A  
HETATM   33  C   UNL     1     -10.030  15.128  68.801  1.00  0.00    -0.229 C  
HETATM   34  C   UNL     1      -8.742  15.954  68.624  1.00  0.00    -0.199 C  
HETATM   35  C   UNL     1      -9.944  11.504  67.547  1.00  0.00    -0.207 A  
HETATM   36  C   UNL     1      -7.691  15.100  67.903  1.00  0.00    -0.145 C  
ENDBRANCH  27  28
ENDBRANCH  19  27
ENDBRANCH  12  14
TORSDOF 3
ENDMDL
MODEL      103
REMARK 921   NORMALIZED FREE ENERGY PREDICTED BY IDOCK:   -5.06 KCAL/MOL
REMARK 922        TOTAL FREE ENERGY PREDICTED BY IDOCK:   -6.82 KCAL/MOL
REMARK 923 INTER-LIGAND FREE ENERGY PREDICTED BY IDOCK:   -5.50 KCAL/MOL
REMARK 924 INTRA-LIGAND FREE ENERGY PREDICTED BY IDOCK:   -1.32 KCAL/MOL
REMARK 927      BINDING AFFINITY PREDICTED BY RF-SCORE:    0.00 PKD
ROOT
HETATM    1  C   UNL     1      -6.706  15.639  67.171  1.00  0.00    -0.045 C  
HETATM    2  S   UNL     1      -8.511  15.392  66.930  1.00  0.00    -0.265 SA 
HETATM    3  C   UNL     1      -8.999  16.485  68.347  1.00  0.00    -0.219 C  
HETATM    4  C   UNL     1     -10.312  17.201  68.018  1.00  0.00    -0.353 C  
HETATM    5  CA  UNL     1      -7.777  17.409  68.584  1.00  0.00    -0.273 C  
HETATM    6  C   UNL     1      -9.275  15.571  69.558  1.00  0.00    -0.265 C  
HETATM    7  N   UNL     1      -6.570  16.622  68.262  1.00  0.00    -0.134 N  
HETATM    8  C   UNL     1      -7.730  18.691  67.728  1.00  0.00    -0.237 C  
HETATM    9  OXT UNL     1      -8.631  19.511  67.638  1.00  0.00    -0.299 OA 
HETATM   10  O   UNL     1      -6.530  18.894  67.122  1.00  0.00    -0.190 OA 
HETATM   11  C   UNL     1      -6.094  15.699  69.162  1.00  0.00    -0.112 C  
HETATM   12  CA  UNL     1      -5.975  14.606  68.061  1.00  0.00    -0.150 C  
HETATM   13  O   UNL     1      -6.012  15.788  70.366  1.00  0.00    -0.136 OA 
ENDROOT
BRANCH  12  14
HETATM   14  N   UNL     1      -6.693  13.328  68.290  1.00  0.00    -0.091 N  
HETATM   15  C   UNL     1      -6.433  12.216  67.520  1.00  0.00    -0.134 C  
HETATM   16  H   UNL     1      -7.391  13.271  69.031  1.00  0.00     0.000 HD 
HETATM   17  O   UNL     1      -5.637  12.247  66.584  1.00  0.00    -0.299 OA 
HETATM   18  C   UNL     1      -7.222  10.968  67.866  1.00  0.00    -0.086 C  
HETATM   19  C   UNL     1      -6.772  10.457  69.222  1.00  0.00    -0.067 C  
HETATM   20  C   UNL     1      -8.745  11.114  67.680  1.00  0.00    -0.129 A  
HETATM   21  C   UNL     1      -9.261  11.929  66.655  1.00  0.00    -0.206 A  
HETATM   22  O   UNL     1      -7.216  10.827  70.302  1.00  0.00    -0.166 OA 
HETATM   23  C   UNL     1     -11.030  10.349  68.111  1.00  0.00    -0.334 A  
HETATM   24  C   UNL     1     -10.634  11.971  66.384  1.00  0.00    -0.278 A  
HETATM   25  C   UNL     1      -9.664  10.338  68.409  1.00  0.00    -0.165 A  
HETATM   26  C   UNL     1     -11.515  11.168  67.100  1.00  0.00    -0.163 A  
BRANCH  19  27
HETATM   27  O   UNL     1      -5.746   9.531  69.054  1.00  0.00    -0.036 OA 
BRANCH  27  28
HETATM   28  C   UNL     1      -6.173   8.316  68.503  1.00  0.00    -0.053 A  
HETATM   29  C   UNL     1      -7.393   6.271  68.680  1.00  0.00    -0.086 A  
HETATM   30  C   UNL     1      -6.920   7.423  69.271  1.00  0.00    -0.065 A  
HETATM   31  C   UNL     1      -7.197   6.030  67.327  1.00  0.00    -0.076 A  
HETATM   32  C   UNL     1      -6.494   6.934  66.540  1.00  0.00    -0.051 A  
HETATM   33  C   UNL     1      -7.865   4.763  66.905  1.00  0.00    -0.099 C  
HETATM   34  C   UNL     1      -8.450   4.205  68.216  1.00  0.00    -0.104 C  
HETATM   35  C   UNL     1      -5.971   8.089  67.138  1.00  0.00    -0.049 A  
HETATM   36  C   UNL     1      -8.164   5.190  69.355  1.00  0.00    -0.087 C  
ENDBRANCH  27  28
ENDBRANCH  19  27
ENDBRANCH  12  14
TORSDOF 3
ENDMDL
MODEL      104
REMARK 921   NORMALIZED FREE ENERGY PREDICTED BY IDOCK:   -5.00 KCAL/MOL
REMARK 922        TOTAL FREE ENERGY PREDICTED BY IDOCK:   -6.75 KCAL/MOL
REMARK 923 INTER-LIGAND FREE ENERGY PREDICTED BY IDOCK:   -5.81 KCAL/MOL
REMARK 924 INTRA-LIGAND FREE ENERGY PREDICTED BY IDOCK:   -0.95 KCAL/MOL
REMARK 927      BINDING AFFINITY PREDICTED BY RF-SCORE:    0.00 PKD
ROOT
HETATM    1  C   UNL     1      -6.969   5.509  68.099  1.00  0.00    -0.065 C  
HETATM    2  S   UNL     1      -8.702   5.148  67.604  1.00  0.00    -0.102 SA 
HETATM    3  C   UNL     1      -8.423   5.527  65.810  1.00  0.00    -0.134 C  
HETATM    4  C   UNL     1      -9.298   4.612  64.947  1.00  0.00    -0.127 C  
HETATM    5  CA  UNL     1      -6.894   5.379  65.599  1.00  0.00    -0.064 C  
HETATM    6  C   UNL     1      -8.903   6.972  65.565  1.00  0.00     0.022 C  
HETATM    7  N   UNL     1      -6.241   5.806  66.852  1.00  0.00    -0.033 N  
HETATM    8  C   UNL     1      -6.395   3.955  65.283  1.00  0.00    -0.028 C  
HETATM    9  OXT UNL     1      -6.825   3.239  64.392  1.00  0.00    -0.042 OA 
HETATM   10  O   UNL     1      -5.339   3.569  66.048  1.00  0.00    -0.012 OA 
HETATM   11  C   UNL     1      -6.110   7.144  67.136  1.00  0.00    -0.041 C  
HETATM   12  CA  UNL     1      -6.666   6.949  68.575  1.00  0.00    -0.064 C  
HETATM   13  O   UNL     1      -5.820   8.051  66.389  1.00  0.00    -0.039 OA 
ENDROOT
BRANCH  12  14
HETATM   14  N   UNL     1      -7.845   7.762  68.966  1.00  0.00    -0.116 N  
HETATM   15  C   UNL     1      -7.696   8.993  69.563  1.00  0.00    -0.082 C  
HETATM   16  H   UNL     1      -8.784   7.402  68.789  1.00  0.00     0.000 HD 
HETATM   17  O   UNL     1      -6.590   9.449  69.842  1.00  0.00    -0.048 OA 
HETATM   18  C   UNL     1      -8.980   9.729  69.898  1.00  0.00    -0.254 C  
HETATM   19  C   UNL     1      -9.663  10.146  68.610  1.00  0.00    -0.163 C  
HETATM   20  C   UNL     1      -9.873   9.005  70.923  1.00  0.00    -0.330 A  
HETATM   21  C   UNL     1      -9.296   8.233  71.950  1.00  0.00    -0.282 A  
HETATM   22  O   UNL     1     -10.436   9.451  67.960  1.00  0.00    -0.209 OA 
HETATM   23  C   UNL     1     -12.042   8.679  72.010  1.00  0.00    -0.442 A  
HETATM   24  C   UNL     1     -10.080   7.677  72.967  1.00  0.00    -0.362 A  
HETATM   25  C   UNL     1     -11.264   9.200  70.972  1.00  0.00    -0.380 A  
HETATM   26  C   UNL     1     -11.449   7.914  73.006  1.00  0.00    -0.230 A  
BRANCH  19  27
HETATM   27  O   UNL     1      -9.246  11.426  68.252  1.00  0.00    -0.170 OA 
BRANCH  27  28
HETATM   28  C   UNL     1     -10.092  12.439  68.720  1.00  0.00    -0.055 A  
HETATM   29  C   UNL     1     -11.994  13.140  69.983  1.00  0.00    -0.391 A  
HETATM   30  C   UNL     1     -11.222  12.119  69.470  1.00  0.00    -0.201 A  
HETATM   31  C   UNL     1     -11.621  14.467  69.821  1.00  0.00    -0.345 A  
HETATM   32  C   UNL     1     -10.472  14.800  69.113  1.00  0.00    -0.243 A  
HETATM   33  C   UNL     1     -12.567  15.382  70.527  1.00  0.00    -0.471 C  
HETATM   34  C   UNL     1     -13.636  14.430  71.096  1.00  0.00    -0.338 C  
HETATM   35  C   UNL     1      -9.701  13.772  68.551  1.00  0.00    -0.193 A  
HETATM   36  C   UNL     1     -13.252  12.984  70.764  1.00  0.00     0.223 C  
ENDBRANCH  27  28
ENDBRANCH  19  27
ENDBRANCH  12  14
TORSDOF 3
ENDMDL
MODEL      105
REMARK 921   NORMALIZED FREE ENERGY PREDICTED BY IDOCK:   -4.95 KCAL/MOL
REMARK 922        TOTAL FREE ENERGY PREDICTED BY IDOCK:   -6.70 KCAL/MOL
REMARK 923 INTER-LIGAND FREE ENERGY PREDICTED BY IDOCK:   -7.26 KCAL/MOL
REMARK 924 INTRA-LIGAND FREE ENERGY PREDICTED BY IDOCK:    0.57 KCAL/MOL
REMARK 927      BINDING AFFINITY PREDICTED BY RF-SCORE:    0.00 PKD
ROOT
HETATM    1  C   UNL     1      -8.846   7.360  66.035  1.00  0.00    -0.146 C  
HETATM    2  S   UNL     1      -9.330   8.863  65.094  1.00  0.00     0.199 SA 
HETATM    3  C   UNL     1      -7.586   9.439  64.832  1.00  0.00    -0.110 C  
HETATM    4  C   UNL     1      -7.472  10.138  63.474  1.00  0.00    -0.132 C  
HETATM    5  CA  UNL     1      -6.711   8.171  65.005  1.00  0.00    -0.052 C  
HETATM    6  C   UNL     1      -7.286  10.499  65.911  1.00  0.00    -0.142 C  
HETATM    7  N   UNL     1      -7.372   7.324  66.017  1.00  0.00    -0.074 N  
HETATM    8  C   UNL     1      -6.521   7.310  63.740  1.00  0.00    -0.048 C  
HETATM    9  OXT UNL     1      -6.126   7.723  62.659  1.00  0.00    -0.069 OA 
HETATM   10  O   UNL     1      -6.754   5.986  63.945  1.00  0.00    -0.036 OA 
HETATM   11  C   UNL     1      -7.254   7.632  67.351  1.00  0.00    -0.087 C  
HETATM   12  CA  UNL     1      -8.787   7.492  67.575  1.00  0.00    -0.127 C  
HETATM   13  O   UNL     1      -6.280   8.018  67.956  1.00  0.00    -0.044 OA 
ENDROOT
BRANCH  12  14
HETATM   14  N   UNL     1      -9.501   8.659  68.151  1.00  0.00    -0.140 N  
HETATM   15  C   UNL     1      -8.866   9.532  69.005  1.00  0.00    -0.143 C  
HETATM   16  H   UNL     1     -10.480   8.816  67.910  1.00  0.00     0.000 HD 
HETATM   17  O   UNL     1      -7.704   9.359  69.365  1.00  0.00    -0.076 OA 
HETATM   18  C   UNL     1      -9.702  10.693  69.511  1.00  0.00    -0.085 C  
HETATM   19  C   UNL     1     -10.001  11.629  68.356  1.00  0.00    -0.201 C  
HETATM   20  C   UNL     1     -10.916  10.271  70.361  1.00  0.00    -0.365 A  
HETATM   21  C   UNL     1     -10.848   9.131  71.183  1.00  0.00    -0.381 A  
HETATM   22  O   UNL     1     -10.942  11.517  67.578  1.00  0.00    -0.224 OA 
HETATM   23  C   UNL     1     -13.087  10.771  71.375  1.00  0.00    -0.469 A  
HETATM   24  C   UNL     1     -11.888   8.806  72.061  1.00  0.00    -0.442 A  
HETATM   25  C   UNL     1     -12.067  11.072  70.469  1.00  0.00    -0.470 A  
HETATM   26  C   UNL     1     -12.999   9.635  72.169  1.00  0.00    -0.493 A  
BRANCH  19  27
HETATM   27  O   UNL     1      -9.020  12.614  68.287  1.00  0.00    -0.194 OA 
BRANCH  27  28
HETATM   28  C   UNL     1      -9.479  13.823  67.750  1.00  0.00    -0.216 A  
HETATM   29  C   UNL     1     -10.027  16.134  68.005  1.00  0.00    -0.238 A  
HETATM   30  C   UNL     1      -9.648  14.936  68.573  1.00  0.00    -0.215 A  
HETATM   31  C   UNL     1     -10.171  16.258  66.630  1.00  0.00    -0.287 A  
HETATM   32  C   UNL     1      -9.962  15.168  65.793  1.00  0.00    -0.375 A  
HETATM   33  C   UNL     1     -10.510  17.662  66.250  1.00  0.00    -0.292 C  
HETATM   34  C   UNL     1     -10.630  18.387  67.604  1.00  0.00    -0.437 C  
HETATM   35  C   UNL     1      -9.617  13.934  66.362  1.00  0.00    -0.292 A  
HETATM   36  C   UNL     1     -10.296  17.405  68.733  1.00  0.00    -0.357 C  
ENDBRANCH  27  28
ENDBRANCH  19  27
ENDBRANCH  12  14
TORSDOF 3
ENDMDL
MODEL      106
REMARK 921   NORMALIZED FREE ENERGY PREDICTED BY IDOCK:   -4.94 KCAL/MOL
REMARK 922        TOTAL FREE ENERGY PREDICTED BY IDOCK:   -6.68 KCAL/MOL
REMARK 923 INTER-LIGAND FREE ENERGY PREDICTED BY IDOCK:   -5.98 KCAL/MOL
REMARK 924 INTRA-LIGAND FREE ENERGY PREDICTED BY IDOCK:   -0.70 KCAL/MOL
REMARK 927      BINDING AFFINITY PREDICTED BY RF-SCORE:    0.00 PKD
ROOT
HETATM    1  C   UNL     1     -10.071   4.546  69.113  1.00  0.00    -0.013 C  
HETATM    2  S   UNL     1     -10.500   5.430  67.559  1.00  0.00    -0.127 SA 
HETATM    3  C   UNL     1      -8.879   5.068  66.733  1.00  0.00    -0.107 C  
HETATM    4  C   UNL     1      -9.097   4.889  65.227  1.00  0.00    -0.154 C  
HETATM    5  CA  UNL     1      -8.314   3.831  67.477  1.00  0.00    -0.094 C  
HETATM    6  C   UNL     1      -7.984   6.311  66.914  1.00  0.00    -0.109 C  
HETATM    7  N   UNL     1      -8.748   3.936  68.883  1.00  0.00    -0.088 N  
HETATM    8  C   UNL     1      -8.785   2.460  66.952  1.00  0.00    -0.124 C  
HETATM    9  OXT UNL     1      -8.715   2.088  65.790  1.00  0.00    -0.110 OA 
HETATM   10  O   UNL     1      -9.226   1.627  67.933  1.00  0.00    -0.139 OA 
HETATM   11  C   UNL     1      -8.099   4.794  69.739  1.00  0.00    -0.069 C  
HETATM   12  CA  UNL     1      -9.443   5.393  70.245  1.00  0.00    -0.163 C  
HETATM   13  O   UNL     1      -6.914   5.015  69.834  1.00  0.00    -0.050 OA 
ENDROOT
BRANCH  12  14
HETATM   14  N   UNL     1      -9.620   6.862  70.127  1.00  0.00    -0.162 N  
HETATM   15  C   UNL     1      -8.962   7.729  70.970  1.00  0.00    -0.142 C  
HETATM   16  H   UNL     1     -10.242   7.236  69.410  1.00  0.00     0.000 HD 
HETATM   17  O   UNL     1      -8.242   7.328  71.881  1.00  0.00    -0.102 OA 
HETATM   18  C   UNL     1      -9.217   9.206  70.735  1.00  0.00    -0.321 C  
HETATM   19  C   UNL     1      -8.600   9.611  69.410  1.00  0.00    -0.158 C  
HETATM   20  C   UNL     1     -10.681   9.634  70.948  1.00  0.00    -0.402 A  
HETATM   21  C   UNL     1     -11.474   8.999  71.923  1.00  0.00    -0.440 A  
HETATM   22  O   UNL     1      -9.146   9.521  68.316  1.00  0.00    -0.127 OA 
HETATM   23  C   UNL     1     -12.503  11.238  70.631  1.00  0.00    -0.439 A  
HETATM   24  C   UNL     1     -12.760   9.460  72.225  1.00  0.00    -0.416 A  
HETATM   25  C   UNL     1     -11.234  10.754  70.301  1.00  0.00    -0.326 A  
HETATM   26  C   UNL     1     -13.268  10.589  71.591  1.00  0.00    -0.493 A  
BRANCH  19  27
HETATM   27  O   UNL     1      -7.300  10.063  69.619  1.00  0.00    -0.093 OA 
BRANCH  27  28
HETATM   28  C   UNL     1      -7.118  11.413  69.291  1.00  0.00    -0.100 A  
HETATM   29  C   UNL     1      -7.698  13.331  67.991  1.00  0.00    -0.147 A  
HETATM   30  C   UNL     1      -7.838  11.982  68.242  1.00  0.00    -0.145 A  
HETATM   31  C   UNL     1      -6.911  14.131  68.809  1.00  0.00    -0.101 A  
HETATM   32  C   UNL     1      -6.222  13.584  69.886  1.00  0.00    -0.108 A  
HETATM   33  C   UNL     1      -6.977  15.561  68.385  1.00  0.00    -0.115 C  
HETATM   34  C   UNL     1      -7.868  15.529  67.130  1.00  0.00    -0.256 C  
HETATM   35  C   UNL     1      -6.324  12.206  70.126  1.00  0.00     0.026 A  
HETATM   36  C   UNL     1      -8.350  14.093  66.891  1.00  0.00    -0.062 C  
ENDBRANCH  27  28
ENDBRANCH  19  27
ENDBRANCH  12  14
TORSDOF 3
ENDMDL
MODEL      107
REMARK 921   NORMALIZED FREE ENERGY PREDICTED BY IDOCK:   -4.93 KCAL/MOL
REMARK 922        TOTAL FREE ENERGY PREDICTED BY IDOCK:   -6.67 KCAL/MOL
REMARK 923 INTER-LIGAND FREE ENERGY PREDICTED BY IDOCK:   -6.48 KCAL/MOL
REMARK 924 INTRA-LIGAND FREE ENERGY PREDICTED BY IDOCK:   -0.19 KCAL/MOL
REMARK 927      BINDING AFFINITY PREDICTED BY RF-SCORE:    0.00 PKD
ROOT
HETATM    1  C   UNL     1     -10.743   5.939  70.451  1.00  0.00    -0.303 C  
HETATM    2  S   UNL     1      -9.454   4.722  69.965  1.00  0.00    -0.190 SA 
HETATM    3  C   UNL     1      -8.498   4.883  71.546  1.00  0.00    -0.121 C  
HETATM    4  C   UNL     1      -7.871   3.534  71.910  1.00  0.00    -0.062 C  
HETATM    5  CA  UNL     1      -9.511   5.447  72.575  1.00  0.00    -0.145 C  
HETATM    6  C   UNL     1      -7.337   5.864  71.282  1.00  0.00    -0.080 C  
HETATM    7  N   UNL     1     -10.431   6.334  71.837  1.00  0.00    -0.205 N  
HETATM    8  C   UNL     1     -10.374   4.400  73.309  1.00  0.00    -0.173 C  
HETATM    9  OXT UNL     1      -9.942   3.428  73.911  1.00  0.00    -0.107 OA 
HETATM   10  O   UNL     1     -11.701   4.695  73.308  1.00  0.00    -0.290 OA 
HETATM   11  C   UNL     1     -10.028   7.600  71.485  1.00  0.00    -0.173 C  
HETATM   12  CA  UNL     1     -10.513   7.407  70.020  1.00  0.00    -0.226 C  
HETATM   13  O   UNL     1      -9.388   8.397  72.132  1.00  0.00    -0.217 OA 
ENDROOT
BRANCH  12  14
HETATM   14  N   UNL     1      -9.517   7.614  68.939  1.00  0.00    -0.149 N  
HETATM   15  C   UNL     1      -9.830   8.338  67.811  1.00  0.00    -0.170 C  
HETATM   16  H   UNL     1      -8.583   7.213  69.034  1.00  0.00     0.000 HD 
HETATM   17  O   UNL     1     -10.954   8.799  67.626  1.00  0.00    -0.109 OA 
HETATM   18  C   UNL     1      -8.719   8.490  66.789  1.00  0.00    -0.133 C  
HETATM   19  C   UNL     1      -7.629   9.372  67.370  1.00  0.00    -0.095 C  
HETATM   20  C   UNL     1      -8.244   7.161  66.172  1.00  0.00    -0.128 A  
HETATM   21  C   UNL     1      -9.153   6.106  65.970  1.00  0.00    -0.136 A  
HETATM   22  O   UNL     1      -6.699   8.983  68.067  1.00  0.00    -0.066 OA 
HETATM   23  C   UNL     1      -6.580   5.854  64.940  1.00  0.00    -0.042 A  
HETATM   24  C   UNL     1      -8.774   4.942  65.291  1.00  0.00    -0.146 A  
HETATM   25  C   UNL     1      -6.947   6.999  65.654  1.00  0.00    -0.056 A  
HETATM   26  C   UNL     1      -7.494   4.824  64.761  1.00  0.00    -0.072 A  
BRANCH  19  27
HETATM   27  O   UNL     1      -7.869  10.699  67.025  1.00  0.00    -0.111 OA 
BRANCH  27  28
HETATM   28  C   UNL     1      -8.829  10.850  66.017  1.00  0.00    -0.188 A  
HETATM   29  C   UNL     1     -10.834  11.850  65.191  1.00  0.00    -0.350 A  
HETATM   30  C   UNL     1      -9.945  11.658  66.227  1.00  0.00    -0.247 A  
HETATM   31  C   UNL     1     -10.594  11.310  63.934  1.00  0.00    -0.455 A  
HETATM   32  C   UNL     1      -9.461  10.539  63.699  1.00  0.00    -0.347 A  
HETATM   33  C   UNL     1     -11.652  11.718  62.963  1.00  0.00     0.016 C  
HETATM   34  C   UNL     1     -12.636  12.537  63.819  1.00  0.00    -0.491 C  
HETATM   35  C   UNL     1      -8.571  10.302  64.756  1.00  0.00    -0.193 A  
HETATM   36  C   UNL     1     -12.096  12.640  65.250  1.00  0.00    -0.519 C  
ENDBRANCH  27  28
ENDBRANCH  19  27
ENDBRANCH  12  14
TORSDOF 3
ENDMDL
MODEL      108
REMARK 921   NORMALIZED FREE ENERGY PREDICTED BY IDOCK:   -4.89 KCAL/MOL
REMARK 922        TOTAL FREE ENERGY PREDICTED BY IDOCK:   -6.62 KCAL/MOL
REMARK 923 INTER-LIGAND FREE ENERGY PREDICTED BY IDOCK:   -5.33 KCAL/MOL
REMARK 924 INTRA-LIGAND FREE ENERGY PREDICTED BY IDOCK:   -1.30 KCAL/MOL
REMARK 927      BINDING AFFINITY PREDICTED BY RF-SCORE:    0.00 PKD
ROOT
HETATM    1  C   UNL     1     -11.301  12.571  66.692  1.00  0.00    -0.334 C  
HETATM    2  S   UNL     1     -11.612  13.343  68.332  1.00  0.00    -0.355 SA 
HETATM    3  C   UNL     1     -10.130  14.456  68.252  1.00  0.00    -0.239 C  
HETATM    4  C   UNL     1     -10.441  15.780  68.957  1.00  0.00    -0.225 C  
HETATM    5  CA  UNL     1      -9.789  14.568  66.744  1.00  0.00    -0.265 C  
HETATM    6  C   UNL     1      -9.000  13.774  69.050  1.00  0.00     0.275 C  
HETATM    7  N   UNL     1     -10.135  13.273  66.124  1.00  0.00    -0.288 N  
HETATM    8  C   UNL     1     -10.543  15.665  65.966  1.00  0.00    -0.328 C  
HETATM    9  OXT UNL     1     -10.596  16.844  66.283  1.00  0.00    -0.284 OA 
HETATM   10  O   UNL     1     -11.099  15.222  64.806  1.00  0.00    -0.407 OA 
HETATM   11  C   UNL     1      -9.295  12.196  66.272  1.00  0.00    -0.218 C  
HETATM   12  CA  UNL     1     -10.472  11.265  66.683  1.00  0.00    -0.247 C  
HETATM   13  O   UNL     1      -8.086  12.168  66.234  1.00  0.00     0.117 OA 
ENDROOT
BRANCH  12  14
HETATM   14  N   UNL     1     -10.361  10.561  67.985  1.00  0.00    -0.172 N  
HETATM   15  C   UNL     1     -10.434   9.188  68.062  1.00  0.00    -0.224 C  
HETATM   16  H   UNL     1     -10.228  11.104  68.839  1.00  0.00     0.000 HD 
HETATM   17  O   UNL     1     -10.643   8.494  67.071  1.00  0.00    -0.306 OA 
HETATM   18  C   UNL     1     -10.290   8.592  69.449  1.00  0.00    -0.218 C  
HETATM   19  C   UNL     1      -8.869   8.804  69.935  1.00  0.00    -0.143 C  
HETATM   20  C   UNL     1     -11.401   9.007  70.433  1.00  0.00    -0.242 A  
HETATM   21  C   UNL     1     -12.711   9.234  69.971  1.00  0.00     1.028 A  
HETATM   22  O   UNL     1      -8.459   9.805  70.513  1.00  0.00    -0.171 OA 
HETATM   23  C   UNL     1     -12.254   9.236  72.716  1.00  0.00     0.411 A  
HETATM   24  C   UNL     1     -13.761   9.482  70.862  1.00  0.00     0.014 A  
HETATM   25  C   UNL     1     -11.198   9.030  71.824  1.00  0.00    -0.448 A  
HETATM   26  C   UNL     1     -13.536   9.465  72.234  1.00  0.00    -0.532 A  
BRANCH  19  27
HETATM   27  O   UNL     1      -8.087   7.706  69.588  1.00  0.00    -0.121 OA 
BRANCH  27  28
HETATM   28  C   UNL     1      -8.511   6.510  70.182  1.00  0.00    -0.135 A  
HETATM   29  C   UNL     1      -8.933   4.162  70.053  1.00  0.00    -0.158 A  
HETATM   30  C   UNL     1      -8.588   5.341  69.426  1.00  0.00    -0.102 A  
HETATM   31  C   UNL     1      -9.132   4.116  71.426  1.00  0.00    -0.182 A  
HETATM   32  C   UNL     1      -9.014   5.266  72.199  1.00  0.00    -0.138 A  
HETATM   33  C   UNL     1      -9.418   2.723  71.881  1.00  0.00    -0.200 C  
HETATM   34  C   UNL     1      -9.441   1.910  70.573  1.00  0.00    -0.168 C  
HETATM   35  C   UNL     1      -8.705   6.479  71.567  1.00  0.00    -0.132 A  
HETATM   36  C   UNL     1      -9.106   2.836  69.398  1.00  0.00    -0.189 C  
ENDBRANCH  27  28
ENDBRANCH  19  27
ENDBRANCH  12  14
TORSDOF 3
ENDMDL
MODEL      109
REMARK 921   NORMALIZED FREE ENERGY PREDICTED BY IDOCK:   -4.87 KCAL/MOL
REMARK 922        TOTAL FREE ENERGY PREDICTED BY IDOCK:   -6.60 KCAL/MOL
REMARK 923 INTER-LIGAND FREE ENERGY PREDICTED BY IDOCK:   -5.99 KCAL/MOL
REMARK 924 INTRA-LIGAND FREE ENERGY PREDICTED BY IDOCK:   -0.61 KCAL/MOL
REMARK 927      BINDING AFFINITY PREDICTED BY RF-SCORE:    0.00 PKD
ROOT
HETATM    1  C   UNL     1      -9.461   5.027  66.044  1.00  0.00    -0.161 C  
HETATM    2  S   UNL     1      -8.000   6.139  65.948  1.00  0.00    -0.118 SA 
HETATM    3  C   UNL     1      -6.793   4.841  66.494  1.00  0.00    -0.058 C  
HETATM    4  C   UNL     1      -5.448   5.059  65.793  1.00  0.00    -0.013 C  
HETATM    5  CA  UNL     1      -7.489   3.489  66.195  1.00  0.00    -0.077 C  
HETATM    6  C   UNL     1      -6.552   5.045  68.004  1.00  0.00    -0.050 C  
HETATM    7  N   UNL     1      -8.937   3.695  66.396  1.00  0.00    -0.136 N  
HETATM    8  C   UNL     1      -7.298   2.938  64.768  1.00  0.00    -0.070 C  
HETATM    9  OXT UNL     1      -6.221   2.775  64.214  1.00  0.00    -0.021 OA 
HETATM   10  O   UNL     1      -8.459   2.550  64.176  1.00  0.00    -0.085 OA 
HETATM   11  C   UNL     1      -9.456   3.722  67.668  1.00  0.00    -0.185 C  
HETATM   12  CA  UNL     1     -10.249   5.028  67.375  1.00  0.00    -0.148 C  
HETATM   13  O   UNL     1      -9.176   3.023  68.615  1.00  0.00    -0.141 OA 
ENDROOT
BRANCH  12  14
HETATM   14  N   UNL     1     -10.006   6.188  68.270  1.00  0.00    -0.135 N  
HETATM   15  C   UNL     1     -10.495   7.438  67.964  1.00  0.00    -0.199 C  
HETATM   16  H   UNL     1      -9.467   6.056  69.126  1.00  0.00     0.000 HD 
HETATM   17  O   UNL     1     -11.107   7.658  66.922  1.00  0.00    -0.133 OA 
HETATM   18  C   UNL     1     -10.191   8.534  68.968  1.00  0.00    -0.218 C  
HETATM   19  C   UNL     1     -10.958   8.260  70.248  1.00  0.00    -0.232 C  
HETATM   20  C   UNL     1      -8.690   8.833  69.140  1.00  0.00    -0.136 A  
HETATM   21  C   UNL     1      -7.810   8.709  68.048  1.00  0.00    -0.103 A  
HETATM   22  O   UNL     1     -10.571   7.550  71.168  1.00  0.00    -0.220 OA 
HETATM   23  C   UNL     1      -6.840   9.807  70.414  1.00  0.00    -0.135 A  
HETATM   24  C   UNL     1      -6.471   9.102  68.148  1.00  0.00    -0.059 A  
HETATM   25  C   UNL     1      -8.167   9.376  70.327  1.00  0.00    -0.194 A  
HETATM   26  C   UNL     1      -5.991   9.666  69.324  1.00  0.00    -0.034 A  
BRANCH  19  27
HETATM   27  O   UNL     1     -12.191   8.906  70.202  1.00  0.00     0.280 OA 
BRANCH  27  28
HETATM   28  C   UNL     1     -12.096  10.298  70.320  1.00  0.00    -0.249 A  
HETATM   29  C   UNL     1     -11.599  12.435  69.374  1.00  0.00    -0.371 A  
HETATM   30  C   UNL     1     -11.608  11.061  69.259  1.00  0.00    -0.384 A  
HETATM   31  C   UNL     1     -12.130  13.061  70.493  1.00  0.00    -0.373 A  
HETATM   32  C   UNL     1     -12.661  12.315  71.539  1.00  0.00    -0.339 A  
HETATM   33  C   UNL     1     -12.077  14.546  70.354  1.00  0.00    -0.389 C  
HETATM   34  C   UNL     1     -11.362  14.760  69.006  1.00  0.00    -0.295 C  
HETATM   35  C   UNL     1     -12.638  10.915  71.453  1.00  0.00    -0.508 A  
HETATM   36  C   UNL     1     -11.075  13.397  68.366  1.00  0.00    -0.301 C  
ENDBRANCH  27  28
ENDBRANCH  19  27
ENDBRANCH  12  14
TORSDOF 3
ENDMDL
MODEL      110
REMARK 921   NORMALIZED FREE ENERGY PREDICTED BY IDOCK:   -4.85 KCAL/MOL
REMARK 922        TOTAL FREE ENERGY PREDICTED BY IDOCK:   -6.58 KCAL/MOL
REMARK 923 INTER-LIGAND FREE ENERGY PREDICTED BY IDOCK:   -5.02 KCAL/MOL
REMARK 924 INTRA-LIGAND FREE ENERGY PREDICTED BY IDOCK:   -1.56 KCAL/MOL
REMARK 927      BINDING AFFINITY PREDICTED BY RF-SCORE:    0.00 PKD
ROOT
HETATM    1  C   UNL     1      -7.506  10.025  70.446  1.00  0.00    -0.050 C  
HETATM    2  S   UNL     1      -9.228   9.416  70.651  1.00  0.00    -0.194 SA 
HETATM    3  C   UNL     1      -8.786   7.635  70.386  1.00  0.00    -0.143 C  
HETATM    4  C   UNL     1      -9.689   6.745  71.246  1.00  0.00    -0.179 C  
HETATM    5  CA  UNL     1      -7.270   7.544  70.697  1.00  0.00    -0.067 C  
HETATM    6  C   UNL     1      -9.094   7.299  68.912  1.00  0.00    -0.132 C  
HETATM    7  N   UNL     1      -6.665   8.825  70.282  1.00  0.00    -0.039 N  
HETATM    8  C   UNL     1      -6.902   7.322  72.178  1.00  0.00    -0.059 C  
HETATM    9  OXT UNL     1      -7.341   6.429  72.887  1.00  0.00    -0.092 OA 
HETATM   10  O   UNL     1      -5.948   8.177  72.634  1.00  0.00    -0.050 OA 
HETATM   11  C   UNL     1      -6.415   9.066  68.952  1.00  0.00    -0.048 C  
HETATM   12  CA  UNL     1      -7.088  10.466  69.023  1.00  0.00    -0.076 C  
HETATM   13  O   UNL     1      -5.980   8.309  68.115  1.00  0.00    -0.040 OA 
ENDROOT
BRANCH  12  14
HETATM   14  N   UNL     1      -8.200  10.737  68.078  1.00  0.00    -0.112 N  
HETATM   15  C   UNL     1      -7.955  11.155  66.790  1.00  0.00    -0.156 C  
HETATM   16  H   UNL     1      -9.164  10.610  68.389  1.00  0.00     0.000 HD 
HETATM   17  O   UNL     1      -6.816  11.369  66.383  1.00  0.00    -0.102 OA 
HETATM   18  C   UNL     1      -9.177  11.381  65.920  1.00  0.00    -0.231 C  
HETATM   19  C   UNL     1      -9.839  10.045  65.638  1.00  0.00    -0.295 C  
HETATM   20  C   UNL     1     -10.113  12.496  66.425  1.00  0.00    -0.255 A  
HETATM   21  C   UNL     1      -9.586  13.622  67.086  1.00  0.00    -0.241 A  
HETATM   22  O   UNL     1     -10.667   9.498  66.358  1.00  0.00    -0.067 OA 
HETATM   23  C   UNL     1     -12.291  13.614  66.432  1.00  0.00    -0.441 A  
HETATM   24  C   UNL     1     -10.400  14.705  67.433  1.00  0.00    -0.241 A  
HETATM   25  C   UNL     1     -11.486  12.514  66.122  1.00  0.00    -0.426 A  
HETATM   26  C   UNL     1     -11.748  14.709  67.091  1.00  0.00    -0.392 A  
BRANCH  19  27
HETATM   27  O   UNL     1      -9.331   9.512  64.457  1.00  0.00    -0.232 OA 
BRANCH  27  28
HETATM   28  C   UNL     1      -8.236   8.662  64.653  1.00  0.00    -0.165 A  
HETATM   29  C   UNL     1      -7.320   6.603  65.444  1.00  0.00    -0.076 A  
HETATM   30  C   UNL     1      -8.398   7.456  65.333  1.00  0.00    -0.122 A  
HETATM   31  C   UNL     1      -6.110   6.898  64.830  1.00  0.00    -0.036 A  
HETATM   32  C   UNL     1      -5.948   8.076  64.111  1.00  0.00    -0.057 A  
HETATM   33  C   UNL     1      -5.125   5.793  65.026  1.00  0.00    -0.009 C  
HETATM   34  C   UNL     1      -5.876   4.789  65.921  1.00  0.00    -0.022 C  
HETATM   35  C   UNL     1      -7.024   8.971  64.026  1.00  0.00    -0.087 A  
HETATM   36  C   UNL     1      -7.299   5.303  66.170  1.00  0.00    -0.081 C  
ENDBRANCH  27  28
ENDBRANCH  19  27
ENDBRANCH  12  14
TORSDOF 3
ENDMDL
MODEL      111
REMARK 921   NORMALIZED FREE ENERGY PREDICTED BY IDOCK:   -4.80 KCAL/MOL
REMARK 922        TOTAL FREE ENERGY PREDICTED BY IDOCK:   -6.51 KCAL/MOL
REMARK 923 INTER-LIGAND FREE ENERGY PREDICTED BY IDOCK:   -5.93 KCAL/MOL
REMARK 924 INTRA-LIGAND FREE ENERGY PREDICTED BY IDOCK:   -0.59 KCAL/MOL
REMARK 927      BINDING AFFINITY PREDICTED BY RF-SCORE:    0.00 PKD
ROOT
HETATM    1  C   UNL     1      -8.677   7.386  66.486  1.00  0.00    -0.140 C  
HETATM    2  S   UNL     1      -7.409   7.550  67.807  1.00  0.00    -0.105 SA 
HETATM    3  C   UNL     1      -7.045   5.733  67.885  1.00  0.00    -0.071 C  
HETATM    4  C   UNL     1      -5.564   5.517  68.212  1.00  0.00    -0.012 C  
HETATM    5  CA  UNL     1      -7.516   5.166  66.522  1.00  0.00    -0.087 C  
HETATM    6  C   UNL     1      -7.855   5.153  69.063  1.00  0.00    -0.081 C  
HETATM    7  N   UNL     1      -8.687   5.961  66.104  1.00  0.00    -0.136 N  
HETATM    8  C   UNL     1      -6.485   5.231  65.377  1.00  0.00    -0.039 C  
HETATM    9  OXT UNL     1      -5.344   4.797  65.430  1.00  0.00    -0.012 OA 
HETATM   10  O   UNL     1      -6.986   5.754  64.225  1.00  0.00    -0.048 OA 
HETATM   11  C   UNL     1      -9.916   5.721  66.670  1.00  0.00    -0.176 C  
HETATM   12  CA  UNL     1     -10.146   7.235  66.946  1.00  0.00    -0.247 C  
HETATM   13  O   UNL     1     -10.428   4.660  66.945  1.00  0.00    -0.163 OA 
ENDROOT
BRANCH  12  14
HETATM   14  N   UNL     1     -10.429   7.637  68.346  1.00  0.00    -0.268 N  
HETATM   15  C   UNL     1     -10.643   8.956  68.680  1.00  0.00    -0.147 C  
HETATM   16  H   UNL     1     -10.466   6.924  69.075  1.00  0.00     0.000 HD 
HETATM   17  O   UNL     1     -10.560   9.857  67.849  1.00  0.00    -0.220 OA 
HETATM   18  C   UNL     1     -10.937   9.232  70.142  1.00  0.00    -0.278 C  
HETATM   19  C   UNL     1     -12.295   8.652  70.492  1.00  0.00     0.294 C  
HETATM   20  C   UNL     1      -9.787   8.863  71.098  1.00  0.00    -0.345 A  
HETATM   21  C   UNL     1      -8.448   8.994  70.684  1.00  0.00    -0.229 A  
HETATM   22  O   UNL     1     -12.502   7.497  70.848  1.00  0.00    -0.244 OA 
HETATM   23  C   UNL     1      -8.956   8.371  73.347  1.00  0.00    -0.166 A  
HETATM   24  C   UNL     1      -7.390   8.792  71.576  1.00  0.00    -0.109 A  
HETATM   25  C   UNL     1     -10.012   8.532  72.446  1.00  0.00    -0.365 A  
HETATM   26  C   UNL     1      -7.644   8.498  72.911  1.00  0.00    -0.049 A  
BRANCH  19  27
HETATM   27  O   UNL     1     -13.278   9.619  70.307  1.00  0.00     0.222 OA 
BRANCH  27  28
HETATM   28  C   UNL     1     -12.891  10.897  70.730  1.00  0.00    -0.289 A  
HETATM   29  C   UNL     1     -11.969  13.050  70.261  1.00  0.00    -0.360 A  
HETATM   30  C   UNL     1     -12.269  11.771  69.840  1.00  0.00    -0.293 A  
HETATM   31  C   UNL     1     -12.341  13.491  71.523  1.00  0.00    -0.186 A  
HETATM   32  C   UNL     1     -13.001  12.644  72.405  1.00  0.00    -0.110 A  
HETATM   33  C   UNL     1     -11.978  14.926  71.719  1.00  0.00    -0.435 C  
HETATM   34  C   UNL     1     -11.254  15.300  70.412  1.00  0.00    -0.325 C  
HETATM   35  C   UNL     1     -13.275  11.328  72.004  1.00  0.00    -0.437 A  
HETATM   36  C   UNL     1     -11.269  14.095  69.464  1.00  0.00    -0.267 C  
ENDBRANCH  27  28
ENDBRANCH  19  27
ENDBRANCH  12  14
TORSDOF 3
ENDMDL
MODEL      112
REMARK 921   NORMALIZED FREE ENERGY PREDICTED BY IDOCK:   -4.78 KCAL/MOL
REMARK 922        TOTAL FREE ENERGY PREDICTED BY IDOCK:   -6.49 KCAL/MOL
REMARK 923 INTER-LIGAND FREE ENERGY PREDICTED BY IDOCK:   -6.48 KCAL/MOL
REMARK 924 INTRA-LIGAND FREE ENERGY PREDICTED BY IDOCK:   -0.01 KCAL/MOL
REMARK 927      BINDING AFFINITY PREDICTED BY RF-SCORE:    0.00 PKD
ROOT
HETATM    1  C   UNL     1      -7.893   5.185  70.408  1.00  0.00    -0.075 C  
HETATM    2  S   UNL     1      -8.646   6.341  71.623  1.00  0.00    -0.133 SA 
HETATM    3  C   UNL     1     -10.357   5.647  71.443  1.00  0.00    -0.228 C  
HETATM    4  C   UNL     1     -11.089   5.726  72.787  1.00  0.00    -0.327 C  
HETATM    5  CA  UNL     1     -10.157   4.219  70.876  1.00  0.00    -0.091 C  
HETATM    6  C   UNL     1     -11.121   6.558  70.460  1.00  0.00    -0.375 C  
HETATM    7  N   UNL     1      -8.970   4.263  69.999  1.00  0.00    -0.087 N  
HETATM    8  C   UNL     1      -9.914   3.110  71.920  1.00  0.00    -0.139 C  
HETATM    9  OXT UNL     1     -10.629   2.882  72.885  1.00  0.00    -0.159 OA 
HETATM   10  O   UNL     1      -8.847   2.317  71.631  1.00  0.00    -0.069 OA 
HETATM   11  C   UNL     1      -9.071   4.791  68.735  1.00  0.00    -0.112 C  
HETATM   12  CA  UNL     1      -7.807   5.674  68.943  1.00  0.00    -0.096 C  
HETATM   13  O   UNL     1      -9.964   4.659  67.929  1.00  0.00    -0.143 OA 
ENDROOT
BRANCH  12  14
HETATM   14  N   UNL     1      -7.956   7.136  68.740  1.00  0.00    -0.121 N  
HETATM   15  C   UNL     1      -8.750   7.639  67.733  1.00  0.00    -0.127 C  
HETATM   16  H   UNL     1      -7.462   7.781  69.357  1.00  0.00     0.000 HD 
HETATM   17  O   UNL     1      -9.326   6.906  66.934  1.00  0.00    -0.137 OA 
HETATM   18  C   UNL     1      -8.830   9.151  67.643  1.00  0.00    -0.123 C  
HETATM   19  C   UNL     1      -9.577   9.681  68.853  1.00  0.00    -0.161 C  
HETATM   20  C   UNL     1      -7.485   9.837  67.336  1.00  0.00    -0.091 A  
HETATM   21  C   UNL     1      -6.533   9.201  66.517  1.00  0.00    -0.067 A  
HETATM   22  O   UNL     1      -9.072   9.946  69.937  1.00  0.00    -0.218 OA 
HETATM   23  C   UNL     1      -6.069  11.833  67.292  1.00  0.00    -0.124 A  
HETATM   24  C   UNL     1      -5.365   9.859  66.118  1.00  0.00    -0.044 A  
HETATM   25  C   UNL     1      -7.216  11.161  67.724  1.00  0.00    -0.091 A  
HETATM   26  C   UNL     1      -5.141  11.180  66.491  1.00  0.00    -0.107 A  
BRANCH  19  27
HETATM   27  O   UNL     1     -10.934   9.781  68.557  1.00  0.00    -0.215 OA 
BRANCH  27  28
HETATM   28  C   UNL     1     -11.438  11.082  68.680  1.00  0.00    -0.308 A  
HETATM   29  C   UNL     1     -12.218  12.889  70.033  1.00  0.00    -0.292 A  
HETATM   30  C   UNL     1     -11.799  11.579  69.931  1.00  0.00    -0.430 A  
HETATM   31  C   UNL     1     -12.216  13.727  68.926  1.00  0.00    -0.235 A  
HETATM   32  C   UNL     1     -11.816  13.257  67.681  1.00  0.00    -0.400 A  
HETATM   33  C   UNL     1     -12.635  15.111  69.299  1.00  0.00     0.112 C  
HETATM   34  C   UNL     1     -12.973  14.997  70.798  1.00  0.00    -0.442 C  
HETATM   35  C   UNL     1     -11.427  11.915  67.556  1.00  0.00    -0.396 A  
HETATM   36  C   UNL     1     -12.682  13.569  71.273  1.00  0.00    -0.432 C  
ENDBRANCH  27  28
ENDBRANCH  19  27
ENDBRANCH  12  14
TORSDOF 3
ENDMDL
MODEL      113
REMARK 921   NORMALIZED FREE ENERGY PREDICTED BY IDOCK:   -4.72 KCAL/MOL
REMARK 922        TOTAL FREE ENERGY PREDICTED BY IDOCK:   -6.42 KCAL/MOL
REMARK 923 INTER-LIGAND FREE ENERGY PREDICTED BY IDOCK:   -7.15 KCAL/MOL
REMARK 924 INTRA-LIGAND FREE ENERGY PREDICTED BY IDOCK:    0.73 KCAL/MOL
REMARK 927      BINDING AFFINITY PREDICTED BY RF-SCORE:    0.00 PKD
ROOT
HETATM    1  C   UNL     1      -6.811   9.636  65.785  1.00  0.00    -0.093 C  
HETATM    2  S   UNL     1      -7.464   9.029  67.393  1.00  0.00    -0.084 SA 
HETATM    3  C   UNL     1      -8.540   7.725  66.630  1.00  0.00    -0.136 C  
HETATM    4  C   UNL     1      -8.610   6.506  67.555  1.00  0.00    -0.119 C  
HETATM    5  CA  UNL     1      -7.929   7.465  65.229  1.00  0.00    -0.127 C  
HETATM    6  C   UNL     1      -9.967   8.304  66.538  1.00  0.00    -0.320 C  
HETATM    7  N   UNL     1      -7.375   8.747  64.753  1.00  0.00    -0.091 N  
HETATM    8  C   UNL     1      -6.790   6.427  65.178  1.00  0.00    -0.047 C  
HETATM    9  OXT UNL     1      -6.851   5.290  65.623  1.00  0.00    -0.058 OA 
HETATM   10  O   UNL     1      -5.693   6.857  64.498  1.00  0.00    -0.031 OA 
HETATM   11  C   UNL     1      -8.215   9.711  64.247  1.00  0.00    -0.156 C  
HETATM   12  CA  UNL     1      -7.566  10.816  65.129  1.00  0.00     0.121 C  
HETATM   13  O   UNL     1      -9.173   9.575  63.521  1.00  0.00    -0.197 OA 
ENDROOT
BRANCH  12  14
HETATM   14  N   UNL     1      -8.463  11.588  66.025  1.00  0.00    -0.365 N  
HETATM   15  C   UNL     1      -9.812  11.690  65.766  1.00  0.00    -0.239 C  
HETATM   16  H   UNL     1      -8.074  12.051  66.846  1.00  0.00     0.000 HD 
HETATM   17  O   UNL     1     -10.320  11.194  64.764  1.00  0.00    -0.287 OA 
HETATM   18  C   UNL     1     -10.621  12.493  66.767  1.00  0.00    -0.253 C  
HETATM   19  C   UNL     1     -10.664  11.743  68.085  1.00  0.00    -0.214 C  
HETATM   20  C   UNL     1     -10.218  13.978  66.857  1.00  0.00    -0.260 A  
HETATM   21  C   UNL     1      -9.761  14.661  65.715  1.00  0.00    -0.331 A  
HETATM   22  O   UNL     1      -9.820  11.816  68.971  1.00  0.00    -0.065 OA 
HETATM   23  C   UNL     1     -10.225  16.122  68.037  1.00  0.00    -0.252 A  
HETATM   24  C   UNL     1      -9.518  16.039  65.743  1.00  0.00    -0.283 A  
HETATM   25  C   UNL     1     -10.428  14.740  68.020  1.00  0.00    -0.246 A  
HETATM   26  C   UNL     1      -9.766  16.772  66.899  1.00  0.00    -0.263 A  
BRANCH  19  27
HETATM   27  O   UNL     1     -11.790  10.924  68.120  1.00  0.00    -0.564 OA 
BRANCH  27  28
HETATM   28  C   UNL     1     -11.875  10.141  69.277  1.00  0.00     0.078 A  
HETATM   29  C   UNL     1     -11.227   8.218  70.537  1.00  0.00    -0.247 A  
HETATM   30  C   UNL     1     -11.187   8.930  69.358  1.00  0.00     0.138 A  
HETATM   31  C   UNL     1     -11.878   8.723  71.655  1.00  0.00    -0.399 A  
HETATM   32  C   UNL     1     -12.529   9.949  71.602  1.00  0.00    -0.507 A  
HETATM   33  C   UNL     1     -11.717   7.812  72.827  1.00  0.00    -0.312 C  
HETATM   34  C   UNL     1     -10.928   6.619  72.256  1.00  0.00    -0.278 C  
HETATM   35  C   UNL     1     -12.532  10.664  70.396  1.00  0.00    -0.421 A  
HETATM   36  C   UNL     1     -10.593   6.893  70.786  1.00  0.00    -0.245 C  
ENDBRANCH  27  28
ENDBRANCH  19  27
ENDBRANCH  12  14
TORSDOF 3
ENDMDL
MODEL      114
REMARK 921   NORMALIZED FREE ENERGY PREDICTED BY IDOCK:   -4.69 KCAL/MOL
REMARK 922        TOTAL FREE ENERGY PREDICTED BY IDOCK:   -6.39 KCAL/MOL
REMARK 923 INTER-LIGAND FREE ENERGY PREDICTED BY IDOCK:   -5.81 KCAL/MOL
REMARK 924 INTRA-LIGAND FREE ENERGY PREDICTED BY IDOCK:   -0.58 KCAL/MOL
REMARK 927      BINDING AFFINITY PREDICTED BY RF-SCORE:    0.00 PKD
ROOT
HETATM    1  C   UNL     1      -8.197  13.300  67.107  1.00  0.00    -0.114 C  
HETATM    2  S   UNL     1      -9.821  12.445  67.205  1.00  0.00    -0.207 SA 
HETATM    3  C   UNL     1     -10.685  13.866  68.026  1.00  0.00    -0.247 C  
HETATM    4  C   UNL     1     -12.143  13.923  67.560  1.00  0.00    -0.366 C  
HETATM    5  CA  UNL     1      -9.827  15.112  67.687  1.00  0.00    -0.219 C  
HETATM    6  C   UNL     1     -10.707  13.576  69.541  1.00  0.00     0.152 C  
HETATM    7  N   UNL     1      -8.422  14.665  67.619  1.00  0.00    -0.168 N  
HETATM    8  C   UNL     1     -10.153  15.805  66.348  1.00  0.00    -0.291 C  
HETATM    9  OXT UNL     1     -11.262  16.182  66.001  1.00  0.00    -0.015 OA 
HETATM   10  O   UNL     1      -9.055  16.053  65.585  1.00  0.00    -0.357 OA 
HETATM   11  C   UNL     1      -7.715  14.448  68.777  1.00  0.00    -0.139 C  
HETATM   12  CA  UNL     1      -7.214  13.063  68.277  1.00  0.00    -0.113 C  
HETATM   13  O   UNL     1      -7.714  15.100  69.796  1.00  0.00    -0.202 OA 
ENDROOT
BRANCH  12  14
HETATM   14  N   UNL     1      -7.501  11.885  69.133  1.00  0.00    -0.321 N  
HETATM   15  C   UNL     1      -7.529  10.612  68.608  1.00  0.00    -0.098 C  
HETATM   16  H   UNL     1      -7.680  12.020  70.128  1.00  0.00     0.000 HD 
HETATM   17  O   UNL     1      -7.369  10.402  67.408  1.00  0.00    -0.091 OA 
HETATM   18  C   UNL     1      -7.818   9.494  69.591  1.00  0.00    -0.116 C  
HETATM   19  C   UNL     1      -6.645   9.356  70.543  1.00  0.00    -0.084 C  
HETATM   20  C   UNL     1      -9.207   9.578  70.252  1.00  0.00    -0.303 A  
HETATM   21  C   UNL     1     -10.304  10.095  69.537  1.00  0.00    -0.263 A  
HETATM   22  O   UNL     1      -6.494   9.993  71.580  1.00  0.00    -0.311 OA 
HETATM   23  C   UNL     1     -10.769   8.941  72.026  1.00  0.00    -0.389 A  
HETATM   24  C   UNL     1     -11.598  10.058  70.068  1.00  0.00    -0.279 A  
HETATM   25  C   UNL     1      -9.470   9.015  71.513  1.00  0.00    -0.316 A  
HETATM   26  C   UNL     1     -11.833   9.465  71.304  1.00  0.00    -0.435 A  
BRANCH  19  27
HETATM   27  O   UNL     1      -5.741   8.424  70.040  1.00  0.00    -0.025 OA 
BRANCH  27  28
HETATM   28  C   UNL     1      -6.233   7.113  70.043  1.00  0.00    -0.027 A  
HETATM   29  C   UNL     1      -7.152   5.241  71.207  1.00  0.00    -0.064 A  
HETATM   30  C   UNL     1      -6.599   6.503  71.242  1.00  0.00    -0.051 A  
HETATM   31  C   UNL     1      -7.410   4.608  69.998  1.00  0.00    -0.054 A  
HETATM   32  C   UNL     1      -7.091   5.223  68.793  1.00  0.00    -0.061 A  
HETATM   33  C   UNL     1      -8.079   3.290  70.214  1.00  0.00    -0.058 C  
HETATM   34  C   UNL     1      -8.135   3.157  71.747  1.00  0.00    -0.058 C  
HETATM   35  C   UNL     1      -6.490   6.489  68.817  1.00  0.00    -0.043 A  
HETATM   36  C   UNL     1      -7.557   4.426  72.385  1.00  0.00    -0.079 C  
ENDBRANCH  27  28
ENDBRANCH  19  27
ENDBRANCH  12  14
TORSDOF 3
ENDMDL
MODEL      115
REMARK 921   NORMALIZED FREE ENERGY PREDICTED BY IDOCK:   -4.66 KCAL/MOL
REMARK 922        TOTAL FREE ENERGY PREDICTED BY IDOCK:   -6.35 KCAL/MOL
REMARK 923 INTER-LIGAND FREE ENERGY PREDICTED BY IDOCK:   -5.14 KCAL/MOL
REMARK 924 INTRA-LIGAND FREE ENERGY PREDICTED BY IDOCK:   -1.22 KCAL/MOL
REMARK 927      BINDING AFFINITY PREDICTED BY RF-SCORE:    0.00 PKD
ROOT
HETATM    1  C   UNL     1      -9.059  13.334  68.064  1.00  0.00    -0.202 C  
HETATM    2  S   UNL     1      -9.057  13.356  66.225  1.00  0.00     0.140 SA 
HETATM    3  C   UNL     1     -10.795  13.988  66.086  1.00  0.00    -0.291 C  
HETATM    4  C   UNL     1     -10.916  14.898  64.859  1.00  0.00    -0.422 C  
HETATM    5  CA  UNL     1     -11.090  14.664  67.449  1.00  0.00    -0.326 C  
HETATM    6  C   UNL     1     -11.707  12.770  65.835  1.00  0.00    -0.464 C  
HETATM    7  N   UNL     1     -10.354  13.903  68.478  1.00  0.00    -0.241 N  
HETATM    8  C   UNL     1     -10.660  16.139  67.573  1.00  0.00    -0.314 C  
HETATM    9  OXT UNL     1     -10.968  17.031  66.797  1.00  0.00    -0.059 OA 
HETATM   10  O   UNL     1      -9.951  16.404  68.704  1.00  0.00    -0.217 OA 
HETATM   11  C   UNL     1     -10.847  12.701  68.925  1.00  0.00    -0.197 C  
HETATM   12  CA  UNL     1      -9.467  12.006  68.744  1.00  0.00     0.039 C  
HETATM   13  O   UNL     1     -11.991  12.396  69.171  1.00  0.00    -0.290 OA 
ENDROOT
BRANCH  12  14
HETATM   14  N   UNL     1      -9.421  10.798  67.882  1.00  0.00    -0.155 N  
HETATM   15  C   UNL     1      -8.603   9.734  68.189  1.00  0.00    -0.118 C  
HETATM   16  H   UNL     1     -10.005  10.755  67.047  1.00  0.00     0.000 HD 
HETATM   17  O   UNL     1      -7.844   9.757  69.155  1.00  0.00    -0.083 OA 
HETATM   18  C   UNL     1      -8.660   8.554  67.237  1.00  0.00    -0.123 C  
HETATM   19  C   UNL     1     -10.016   7.885  67.359  1.00  0.00    -0.198 C  
HETATM   20  C   UNL     1      -8.203   8.880  65.802  1.00  0.00    -0.116 A  
HETATM   21  C   UNL     1      -7.190   9.830  65.577  1.00  0.00    -0.108 A  
HETATM   22  O   UNL     1     -11.025   8.208  66.743  1.00  0.00    -0.063 OA 
HETATM   23  C   UNL     1      -8.109   8.335  63.418  1.00  0.00    -0.133 A  
HETATM   24  C   UNL     1      -6.668  10.044  64.296  1.00  0.00    -0.128 A  
HETATM   25  C   UNL     1      -8.659   8.151  64.690  1.00  0.00     0.035 A  
HETATM   26  C   UNL     1      -7.115   9.284  63.220  1.00  0.00    -0.089 A  
BRANCH  19  27
HETATM   27  O   UNL     1      -9.952   6.870  68.311  1.00  0.00    -0.145 OA 
BRANCH  27  28
HETATM   28  C   UNL     1      -9.263   5.733  67.869  1.00  0.00    -0.108 A  
HETATM   29  C   UNL     1      -7.297   4.377  67.836  1.00  0.00    -0.069 A  
HETATM   30  C   UNL     1      -7.928   5.542  68.220  1.00  0.00    -0.096 A  
HETATM   31  C   UNL     1      -7.992   3.374  67.175  1.00  0.00    -0.079 A  
HETATM   32  C   UNL     1      -9.337   3.533  66.858  1.00  0.00    -0.212 A  
HETATM   33  C   UNL     1      -7.121   2.185  66.935  1.00  0.00    -0.048 C  
HETATM   34  C   UNL     1      -5.750   2.622  67.483  1.00  0.00    -0.019 C  
HETATM   35  C   UNL     1      -9.978   4.730  67.205  1.00  0.00    -0.214 A  
HETATM   36  C   UNL     1      -5.871   4.028  68.083  1.00  0.00    -0.026 C  
ENDBRANCH  27  28
ENDBRANCH  19  27
ENDBRANCH  12  14
TORSDOF 3
ENDMDL
MODEL      116
REMARK 921   NORMALIZED FREE ENERGY PREDICTED BY IDOCK:   -4.63 KCAL/MOL
REMARK 922        TOTAL FREE ENERGY PREDICTED BY IDOCK:   -6.32 KCAL/MOL
REMARK 923 INTER-LIGAND FREE ENERGY PREDICTED BY IDOCK:   -5.85 KCAL/MOL
REMARK 924 INTRA-LIGAND FREE ENERGY PREDICTED BY IDOCK:   -0.48 KCAL/MOL
REMARK 927      BINDING AFFINITY PREDICTED BY RF-SCORE:    0.00 PKD
ROOT
HETATM    1  C   UNL     1     -10.862   8.526  69.460  1.00  0.00    -0.125 C  
HETATM    2  S   UNL     1      -9.677   8.020  68.148  1.00  0.00    -0.166 SA 
HETATM    3  C   UNL     1      -8.552   7.113  69.311  1.00  0.00    -0.137 C  
HETATM    4  C   UNL     1      -7.938   5.904  68.597  1.00  0.00    -0.103 C  
HETATM    5  CA  UNL     1      -9.427   6.784  70.547  1.00  0.00    -0.169 C  
HETATM    6  C   UNL     1      -7.390   8.066  69.662  1.00  0.00    -0.085 C  
HETATM    7  N   UNL     1     -10.388   7.893  70.705  1.00  0.00    -0.201 N  
HETATM    8  C   UNL     1     -10.243   5.478  70.462  1.00  0.00    -0.242 C  
HETATM    9  OXT UNL     1      -9.785   4.377  70.198  1.00  0.00    -0.186 OA 
HETATM   10  O   UNL     1     -11.551   5.634  70.799  1.00  0.00     0.069 OA 
HETATM   11  C   UNL     1      -9.979   9.080  71.264  1.00  0.00    -0.311 C  
HETATM   12  CA  UNL     1     -10.626   9.907  70.116  1.00  0.00    -0.297 C  
HETATM   13  O   UNL     1      -9.245   9.258  72.209  1.00  0.00    -0.103 OA 
ENDROOT
BRANCH  12  14
HETATM   14  N   UNL     1      -9.745  10.836  69.366  1.00  0.00    -0.415 N  
HETATM   15  C   UNL     1     -10.158  11.415  68.187  1.00  0.00    -0.189 C  
HETATM   16  H   UNL     1      -8.816  11.051  69.730  1.00  0.00     0.000 HD 
HETATM   17  O   UNL     1     -11.247  11.151  67.681  1.00  0.00    -0.267 OA 
HETATM   18  C   UNL     1      -9.171  12.358  67.527  1.00  0.00    -0.183 C  
HETATM   19  C   UNL     1      -9.020  13.599  68.387  1.00  0.00    -0.160 C  
HETATM   20  C   UNL     1      -7.855  11.687  67.088  1.00  0.00    -0.163 A  
HETATM   21  C   UNL     1      -7.852  10.351  66.644  1.00  0.00    -0.120 A  
HETATM   22  O   UNL     1      -8.243  13.720  69.327  1.00  0.00     0.229 OA 
HETATM   23  C   UNL     1      -5.510  11.835  66.402  1.00  0.00     0.111 A  
HETATM   24  C   UNL     1      -6.696   9.765  66.117  1.00  0.00    -0.085 A  
HETATM   25  C   UNL     1      -6.653  12.407  66.968  1.00  0.00    -0.002 A  
HETATM   26  C   UNL     1      -5.530  10.512  65.980  1.00  0.00    -0.091 A  
BRANCH  19  27
HETATM   27  O   UNL     1      -9.931  14.567  67.973  1.00  0.00    -0.215 OA 
BRANCH  27  28
HETATM   28  C   UNL     1      -9.332  15.658  67.331  1.00  0.00    -0.210 A  
HETATM   29  C   UNL     1      -9.354  17.959  66.688  1.00  0.00    -0.293 A  
HETATM   30  C   UNL     1      -9.999  16.881  67.258  1.00  0.00    -0.277 A  
HETATM   31  C   UNL     1      -8.039  17.857  66.257  1.00  0.00    -0.266 A  
HETATM   32  C   UNL     1      -7.347  16.656  66.365  1.00  0.00    -0.216 A  
HETATM   33  C   UNL     1      -7.537  19.169  65.751  1.00  0.00    -0.156 C  
HETATM   34  C   UNL     1      -8.762  20.096  65.862  1.00  0.00    -0.090 C  
HETATM   35  C   UNL     1      -8.005  15.541  66.904  1.00  0.00    -0.264 A  
HETATM   36  C   UNL     1      -9.927  19.319  66.487  1.00  0.00    -0.470 C  
ENDBRANCH  27  28
ENDBRANCH  19  27
ENDBRANCH  12  14
TORSDOF 3
ENDMDL
MODEL      117
REMARK 921   NORMALIZED FREE ENERGY PREDICTED BY IDOCK:   -4.55 KCAL/MOL
REMARK 922        TOTAL FREE ENERGY PREDICTED BY IDOCK:   -6.22 KCAL/MOL
REMARK 923 INTER-LIGAND FREE ENERGY PREDICTED BY IDOCK:   -5.18 KCAL/MOL
REMARK 924 INTRA-LIGAND FREE ENERGY PREDICTED BY IDOCK:   -1.04 KCAL/MOL
REMARK 927      BINDING AFFINITY PREDICTED BY RF-SCORE:    0.00 PKD
ROOT
HETATM    1  C   UNL     1      -8.451   6.306  65.343  1.00  0.00    -0.129 C  
HETATM    2  S   UNL     1      -8.058   7.585  64.083  1.00  0.00     0.008 SA 
HETATM    3  C   UNL     1      -6.221   7.419  64.275  1.00  0.00    -0.041 C  
HETATM    4  C   UNL     1      -5.537   7.656  62.925  1.00  0.00    -0.050 C  
HETATM    5  CA  UNL     1      -6.004   6.015  64.895  1.00  0.00    -0.025 C  
HETATM    6  C   UNL     1      -5.755   8.546  65.220  1.00  0.00    -0.044 C  
HETATM    7  N   UNL     1      -7.157   5.749  65.777  1.00  0.00    -0.068 N  
HETATM    8  C   UNL     1      -5.914   4.847  63.892  1.00  0.00    -0.018 C  
HETATM    9  OXT UNL     1      -5.160   4.799  62.932  1.00  0.00    -0.009 OA 
HETATM   10  O   UNL     1      -6.709   3.792  64.216  1.00  0.00    -0.041 OA 
HETATM   11  C   UNL     1      -7.217   6.329  67.021  1.00  0.00    -0.075 C  
HETATM   12  CA  UNL     1      -8.680   6.802  66.791  1.00  0.00    -0.122 C  
HETATM   13  O   UNL     1      -6.327   6.488  67.826  1.00  0.00    -0.039 OA 
ENDROOT
BRANCH  12  14
HETATM   14  N   UNL     1      -8.959   8.253  66.940  1.00  0.00    -0.141 N  
HETATM   15  C   UNL     1     -10.169   8.700  67.421  1.00  0.00    -0.262 C  
HETATM   16  H   UNL     1      -8.241   8.930  66.681  1.00  0.00     0.000 HD 
HETATM   17  O   UNL     1     -11.082   7.928  67.699  1.00  0.00    -0.004 OA 
HETATM   18  C   UNL     1     -10.321  10.205  67.540  1.00  0.00    -0.279 C  
HETATM   19  C   UNL     1      -9.402  10.710  68.637  1.00  0.00    -0.177 C  
HETATM   20  C   UNL     1     -10.235  10.956  66.198  1.00  0.00    -0.304 A  
HETATM   21  C   UNL     1     -10.717  10.360  65.018  1.00  0.00     0.161 A  
HETATM   22  O   UNL     1      -8.224  11.016  68.489  1.00  0.00    -0.131 OA 
HETATM   23  C   UNL     1      -9.914  13.022  64.926  1.00  0.00    -0.151 A  
HETATM   24  C   UNL     1     -10.771  11.073  63.815  1.00  0.00    -0.294 A  
HETATM   25  C   UNL     1      -9.821  12.297  66.117  1.00  0.00    -0.257 A  
HETATM   26  C   UNL     1     -10.386  12.408  63.773  1.00  0.00    -0.454 A  
BRANCH  19  27
HETATM   27  O   UNL     1     -10.088  10.736  69.847  1.00  0.00    -0.037 OA 
BRANCH  27  28
HETATM   28  C   UNL     1      -9.965   9.551  70.584  1.00  0.00    -0.276 A  
HETATM   29  C   UNL     1     -10.953   7.671  71.677  1.00  0.00    -0.267 A  
HETATM   30  C   UNL     1     -11.103   8.875  71.021  1.00  0.00    -0.340 A  
HETATM   31  C   UNL     1      -9.699   7.099  71.841  1.00  0.00    -0.169 A  
HETATM   32  C   UNL     1      -8.560   7.740  71.370  1.00  0.00    -0.131 A  
HETATM   33  C   UNL     1      -9.800   5.767  72.508  1.00  0.00    -0.182 C  
HETATM   34  C   UNL     1     -11.304   5.621  72.806  1.00  0.00    -0.350 C  
HETATM   35  C   UNL     1      -8.694   8.985  70.739  1.00  0.00    -0.269 A  
HETATM   36  C   UNL     1     -12.049   6.840  72.249  1.00  0.00    -0.212 C  
ENDBRANCH  27  28
ENDBRANCH  19  27
ENDBRANCH  12  14
TORSDOF 3
ENDMDL
MODEL      118
REMARK 921   NORMALIZED FREE ENERGY PREDICTED BY IDOCK:   -4.53 KCAL/MOL
REMARK 922        TOTAL FREE ENERGY PREDICTED BY IDOCK:   -6.20 KCAL/MOL
REMARK 923 INTER-LIGAND FREE ENERGY PREDICTED BY IDOCK:   -5.99 KCAL/MOL
REMARK 924 INTRA-LIGAND FREE ENERGY PREDICTED BY IDOCK:   -0.21 KCAL/MOL
REMARK 927      BINDING AFFINITY PREDICTED BY RF-SCORE:    0.00 PKD
ROOT
HETATM    1  C   UNL     1      -9.718   8.678  69.369  1.00  0.00    -0.176 C  
HETATM    2  S   UNL     1      -9.765   7.792  67.759  1.00  0.00    -0.161 SA 
HETATM    3  C   UNL     1      -8.039   7.131  67.907  1.00  0.00    -0.119 C  
HETATM    4  C   UNL     1      -7.958   5.748  67.253  1.00  0.00    -0.102 C  
HETATM    5  CA  UNL     1      -7.718   7.172  69.422  1.00  0.00    -0.107 C  
HETATM    6  C   UNL     1      -7.118   8.067  67.096  1.00  0.00    -0.082 C  
HETATM    7  N   UNL     1      -8.420   8.344  69.982  1.00  0.00    -0.123 N  
HETATM    8  C   UNL     1      -8.163   5.940  70.235  1.00  0.00    -0.114 C  
HETATM    9  OXT UNL     1      -7.884   4.780  69.967  1.00  0.00    -0.063 OA 
HETATM   10  O   UNL     1      -8.847   6.255  71.368  1.00  0.00    -0.138 OA 
HETATM   11  C   UNL     1      -7.902   9.604  69.801  1.00  0.00    -0.142 C  
HETATM   12  CA  UNL     1      -9.278  10.161  69.335  1.00  0.00    -0.214 C  
HETATM   13  O   UNL     1      -6.748   9.963  69.856  1.00  0.00    -0.063 OA 
ENDROOT
BRANCH  12  14
HETATM   14  N   UNL     1      -9.331  10.821  68.006  1.00  0.00    -0.147 N  
HETATM   15  C   UNL     1     -10.526  10.997  67.345  1.00  0.00    -0.218 C  
HETATM   16  H   UNL     1      -8.467  11.149  67.575  1.00  0.00     0.000 HD 
HETATM   17  O   UNL     1     -11.587  10.576  67.800  1.00  0.00    -0.462 OA 
HETATM   18  C   UNL     1     -10.445  11.699  66.003  1.00  0.00    -0.294 C  
HETATM   19  C   UNL     1     -10.053  13.148  66.224  1.00  0.00    -0.285 C  
HETATM   20  C   UNL     1      -9.625  10.940  64.943  1.00  0.00    -0.297 A  
HETATM   21  C   UNL     1      -9.614   9.533  64.926  1.00  0.00    -0.158 A  
HETATM   22  O   UNL     1      -8.905  13.566  66.316  1.00  0.00     0.025 OA 
HETATM   23  C   UNL     1      -8.398  10.893  62.826  1.00  0.00    -0.144 A  
HETATM   24  C   UNL     1      -8.986   8.825  63.895  1.00  0.00     0.288 A  
HETATM   25  C   UNL     1      -8.989  11.600  63.877  1.00  0.00     0.360 A  
HETATM   26  C   UNL     1      -8.393   9.505  62.837  1.00  0.00    -0.172 A  
BRANCH  19  27
HETATM   27  O   UNL     1     -11.199  13.928  66.350  1.00  0.00    -0.306 OA 
BRANCH  27  28
HETATM   28  C   UNL     1     -10.931  15.292  66.521  1.00  0.00    -0.295 A  
HETATM   29  C   UNL     1     -10.531  17.168  67.945  1.00  0.00    -0.369 A  
HETATM   30  C   UNL     1     -10.874  15.840  67.802  1.00  0.00    -0.316 A  
HETATM   31  C   UNL     1     -10.176  17.936  66.845  1.00  0.00    -0.358 A  
HETATM   32  C   UNL     1     -10.185  17.390  65.566  1.00  0.00    -0.000 A  
HETATM   33  C   UNL     1      -9.772  19.312  67.258  1.00  0.00    -0.409 C  
HETATM   34  C   UNL     1      -9.998  19.316  68.782  1.00  0.00    -0.511 C  
HETATM   35  C   UNL     1     -10.572  16.052  65.403  1.00  0.00    -0.428 A  
HETATM   36  C   UNL     1     -10.466  17.925  69.226  1.00  0.00     0.113 C  
ENDBRANCH  27  28
ENDBRANCH  19  27
ENDBRANCH  12  14
TORSDOF 3
ENDMDL
MODEL      119
REMARK 921   NORMALIZED FREE ENERGY PREDICTED BY IDOCK:   -4.48 KCAL/MOL
REMARK 922        TOTAL FREE ENERGY PREDICTED BY IDOCK:   -6.15 KCAL/MOL
REMARK 923 INTER-LIGAND FREE ENERGY PREDICTED BY IDOCK:   -5.40 KCAL/MOL
REMARK 924 INTRA-LIGAND FREE ENERGY PREDICTED BY IDOCK:   -0.75 KCAL/MOL
REMARK 927      BINDING AFFINITY PREDICTED BY RF-SCORE:    0.00 PKD
ROOT
HETATM    1  C   UNL     1      -6.794   5.373  70.789  1.00  0.00    -0.051 C  
HETATM    2  S   UNL     1      -7.911   6.305  71.912  1.00  0.00    -0.102 SA 
HETATM    3  C   UNL     1      -8.906   4.817  72.395  1.00  0.00    -0.119 C  
HETATM    4  C   UNL     1      -9.365   4.953  73.851  1.00  0.00    -0.124 C  
HETATM    5  CA  UNL     1      -7.991   3.603  72.096  1.00  0.00    -0.071 C  
HETATM    6  C   UNL     1     -10.178   4.811  71.522  1.00  0.00    -0.246 C  
HETATM    7  N   UNL     1      -7.178   3.955  70.915  1.00  0.00    -0.037 N  
HETATM    8  C   UNL     1      -7.015   3.205  73.221  1.00  0.00    -0.040 C  
HETATM    9  OXT UNL     1      -7.331   2.980  74.380  1.00  0.00    -0.045 OA 
HETATM   10  O   UNL     1      -5.736   3.031  72.795  1.00  0.00    -0.007 OA 
HETATM   11  C   UNL     1      -7.731   3.895  69.659  1.00  0.00    -0.052 C  
HETATM   12  CA  UNL     1      -7.200   5.312  69.297  1.00  0.00    -0.057 C  
HETATM   13  O   UNL     1      -8.477   3.060  69.200  1.00  0.00    -0.058 OA 
ENDROOT
BRANCH  12  14
HETATM   14  N   UNL     1      -8.196   6.320  68.856  1.00  0.00    -0.113 N  
HETATM   15  C   UNL     1      -7.802   7.551  68.381  1.00  0.00    -0.122 C  
HETATM   16  H   UNL     1      -9.191   6.098  68.907  1.00  0.00     0.000 HD 
HETATM   17  O   UNL     1      -6.620   7.885  68.347  1.00  0.00    -0.058 OA 
HETATM   18  C   UNL     1      -8.916   8.484  67.948  1.00  0.00    -0.139 C  
HETATM   19  C   UNL     1      -9.577   7.924  66.703  1.00  0.00    -0.226 C  
HETATM   20  C   UNL     1      -9.873   8.894  69.084  1.00  0.00    -0.180 A  
HETATM   21  C   UNL     1      -9.393   9.043  70.399  1.00  0.00    -0.244 A  
HETATM   22  O   UNL     1     -10.491   7.108  66.691  1.00  0.00    -0.235 OA 
HETATM   23  C   UNL     1     -12.010   9.812  69.848  1.00  0.00     0.071 A  
HETATM   24  C   UNL     1     -10.213   9.541  71.418  1.00  0.00    -0.170 A  
HETATM   25  C   UNL     1     -11.204   9.275  68.840  1.00  0.00     0.151 A  
HETATM   26  C   UNL     1     -11.515   9.941  71.139  1.00  0.00    -0.459 A  
BRANCH  19  27
HETATM   27  O   UNL     1      -8.957   8.446  65.570  1.00  0.00    -0.171 OA 
BRANCH  27  28
HETATM   28  C   UNL     1      -9.518   9.652  65.133  1.00  0.00    -0.265 A  
HETATM   29  C   UNL     1     -11.004  11.493  65.463  1.00  0.00    -0.290 A  
HETATM   30  C   UNL     1     -10.524  10.268  65.876  1.00  0.00    -0.167 A  
HETATM   31  C   UNL     1     -10.452  12.143  64.368  1.00  0.00    -0.352 A  
HETATM   32  C   UNL     1      -9.418  11.561  63.644  1.00  0.00    -0.191 A  
HETATM   33  C   UNL     1     -11.082  13.482  64.164  1.00  0.00    -0.302 C  
HETATM   34  C   UNL     1     -12.167  13.543  65.255  1.00  0.00    -0.474 C  
HETATM   35  C   UNL     1      -8.950  10.296  64.029  1.00  0.00    -0.261 A  
HETATM   36  C   UNL     1     -12.100  12.269  66.106  1.00  0.00    -0.189 C  
ENDBRANCH  27  28
ENDBRANCH  19  27
ENDBRANCH  12  14
TORSDOF 3
ENDMDL
MODEL      120
REMARK 921   NORMALIZED FREE ENERGY PREDICTED BY IDOCK:   -4.47 KCAL/MOL
REMARK 922        TOTAL FREE ENERGY PREDICTED BY IDOCK:   -6.13 KCAL/MOL
REMARK 923 INTER-LIGAND FREE ENERGY PREDICTED BY IDOCK:   -4.69 KCAL/MOL
REMARK 924 INTRA-LIGAND FREE ENERGY PREDICTED BY IDOCK:   -1.44 KCAL/MOL
REMARK 927      BINDING AFFINITY PREDICTED BY RF-SCORE:    0.00 PKD
ROOT
HETATM    1  C   UNL     1      -8.795  12.492  65.402  1.00  0.00     0.891 C  
HETATM    2  S   UNL     1     -10.199  11.707  64.512  1.00  0.00    -0.311 SA 
HETATM    3  C   UNL     1     -11.503  12.632  65.452  1.00  0.00    -0.338 C  
HETATM    4  C   UNL     1     -12.699  12.912  64.536  1.00  0.00    -0.359 C  
HETATM    5  CA  UNL     1     -10.785  13.886  66.013  1.00  0.00    -0.287 C  
HETATM    6  C   UNL     1     -12.005  11.702  66.576  1.00  0.00     0.349 C  
HETATM    7  N   UNL     1      -9.392  13.492  66.306  1.00  0.00    -0.184 N  
HETATM    8  C   UNL     1     -10.728  15.104  65.070  1.00  0.00    -0.430 C  
HETATM    9  OXT UNL     1     -11.692  15.613  64.517  1.00  0.00    -0.363 OA 
HETATM   10  O   UNL     1      -9.486  15.647  64.958  1.00  0.00    -0.096 OA 
HETATM   11  C   UNL     1      -9.107  12.775  67.443  1.00  0.00    -0.192 C  
HETATM   12  CA  UNL     1      -8.255  11.746  66.646  1.00  0.00    -0.117 C  
HETATM   13  O   UNL     1      -9.561  12.909  68.556  1.00  0.00    -0.198 OA 
ENDROOT
BRANCH  12  14
HETATM   14  N   UNL     1      -8.636  10.315  66.757  1.00  0.00    -0.126 N  
HETATM   15  C   UNL     1      -8.174   9.533  67.792  1.00  0.00    -0.114 C  
HETATM   16  H   UNL     1      -9.250   9.904  66.054  1.00  0.00     0.000 HD 
HETATM   17  O   UNL     1      -7.393   9.968  68.635  1.00  0.00    -0.078 OA 
HETATM   18  C   UNL     1      -8.649   8.093  67.799  1.00  0.00    -0.131 C  
HETATM   19  C   UNL     1     -10.136   8.063  68.094  1.00  0.00    -0.197 C  
HETATM   20  C   UNL     1      -8.194   7.273  66.577  1.00  0.00    -0.117 A  
HETATM   21  C   UNL     1      -6.949   7.528  65.971  1.00  0.00    -0.061 A  
HETATM   22  O   UNL     1     -11.027   8.170  67.259  1.00  0.00    -0.154 OA 
HETATM   23  C   UNL     1      -8.408   5.317  65.120  1.00  0.00    -0.145 A  
HETATM   24  C   UNL     1      -6.459   6.711  64.947  1.00  0.00    -0.042 A  
HETATM   25  C   UNL     1      -8.915   6.157  66.115  1.00  0.00    -0.164 A  
HETATM   26  C   UNL     1      -7.180   5.596  64.534  1.00  0.00    -0.058 A  
BRANCH  19  27
HETATM   27  O   UNL     1     -10.338   7.937  69.466  1.00  0.00    -0.208 OA 
BRANCH  27  28
HETATM   28  C   UNL     1      -9.866   6.728  69.992  1.00  0.00    -0.169 A  
HETATM   29  C   UNL     1      -8.656   5.519  71.659  1.00  0.00    -0.132 A  
HETATM   30  C   UNL     1      -9.043   6.727  71.117  1.00  0.00    -0.151 A  
HETATM   31  C   UNL     1      -9.130   4.321  71.143  1.00  0.00    -0.183 A  
HETATM   32  C   UNL     1      -9.987   4.309  70.049  1.00  0.00    -0.196 A  
HETATM   33  C   UNL     1      -8.636   3.160  71.941  1.00  0.00    -0.101 C  
HETATM   34  C   UNL     1      -7.717   3.806  72.994  1.00  0.00    -0.074 C  
HETATM   35  C   UNL     1     -10.355   5.529  69.463  1.00  0.00    -0.357 A  
HETATM   36  C   UNL     1      -7.749   5.329  72.825  1.00  0.00    -0.098 C  
ENDBRANCH  27  28
ENDBRANCH  19  27
ENDBRANCH  12  14
TORSDOF 3
ENDMDL
MODEL      121
REMARK 921   NORMALIZED FREE ENERGY PREDICTED BY IDOCK:   -4.42 KCAL/MOL
REMARK 922        TOTAL FREE ENERGY PREDICTED BY IDOCK:   -6.07 KCAL/MOL
REMARK 923 INTER-LIGAND FREE ENERGY PREDICTED BY IDOCK:   -5.37 KCAL/MOL
REMARK 924 INTRA-LIGAND FREE ENERGY PREDICTED BY IDOCK:   -0.70 KCAL/MOL
REMARK 927      BINDING AFFINITY PREDICTED BY RF-SCORE:    0.00 PKD
ROOT
HETATM    1  C   UNL     1      -9.716   9.597  66.782  1.00  0.00    -0.197 C  
HETATM    2  S   UNL     1     -11.030   9.441  68.057  1.00  0.00     0.050 SA 
HETATM    3  C   UNL     1     -10.321  10.753  69.159  1.00  0.00    -0.217 C  
HETATM    4  C   UNL     1     -11.455  11.503  69.865  1.00  0.00    -0.340 C  
HETATM    5  CA  UNL     1      -9.425  11.617  68.235  1.00  0.00    -0.191 C  
HETATM    6  C   UNL     1      -9.502  10.040  70.255  1.00  0.00    -0.041 C  
HETATM    7  N   UNL     1      -8.855  10.713  67.217  1.00  0.00    -0.136 N  
HETATM    8  C   UNL     1     -10.139  12.759  67.485  1.00  0.00    -0.213 C  
HETATM    9  OXT UNL     1     -10.835  13.618  68.007  1.00  0.00    -0.237 OA 
HETATM   10  O   UNL     1      -9.859  12.793  66.155  1.00  0.00    -0.262 OA 
HETATM   11  C   UNL     1      -7.798   9.896  67.540  1.00  0.00    -0.098 C  
HETATM   12  CA  UNL     1      -8.498   8.653  66.918  1.00  0.00    -0.112 C  
HETATM   13  O   UNL     1      -6.825  10.148  68.213  1.00  0.00    -0.061 OA 
ENDROOT
BRANCH  12  14
HETATM   14  N   UNL     1      -8.691   7.471  67.795  1.00  0.00    -0.123 N  
HETATM   15  C   UNL     1      -9.483   6.415  67.402  1.00  0.00    -0.116 C  
HETATM   16  H   UNL     1      -8.230   7.440  68.704  1.00  0.00     0.000 HD 
HETATM   17  O   UNL     1     -10.099   6.425  66.340  1.00  0.00    -0.123 OA 
HETATM   18  C   UNL     1      -9.585   5.261  68.382  1.00  0.00    -0.176 C  
HETATM   19  C   UNL     1      -8.242   4.562  68.467  1.00  0.00    -0.082 C  
HETATM   20  C   UNL     1     -10.230   5.635  69.731  1.00  0.00    -0.321 A  
HETATM   21  C   UNL     1     -11.243   6.611  69.789  1.00  0.00    -0.413 A  
HETATM   22  O   UNL     1      -7.321   4.884  69.210  1.00  0.00    -0.055 OA 
HETATM   23  C   UNL     1     -10.668   5.159  72.091  1.00  0.00    -0.252 A  
HETATM   24  C   UNL     1     -11.933   6.870  70.978  1.00  0.00    -0.422 A  
HETATM   25  C   UNL     1      -9.951   4.929  70.914  1.00  0.00    -0.287 A  
HETATM   26  C   UNL     1     -11.657   6.132  72.124  1.00  0.00    -0.369 A  
BRANCH  19  27
HETATM   27  O   UNL     1      -8.196   3.523  67.542  1.00  0.00    -0.088 OA 
BRANCH  27  28
HETATM   28  C   UNL     1      -7.885   3.945  66.243  1.00  0.00    -0.090 A  
HETATM   29  C   UNL     1      -6.390   4.986  64.699  1.00  0.00    -0.034 A  
HETATM   30  C   UNL     1      -6.708   4.651  65.998  1.00  0.00    -0.053 A  
HETATM   31  C   UNL     1      -7.184   4.571  63.639  1.00  0.00    -0.050 A  
HETATM   32  C   UNL     1      -8.337   3.828  63.866  1.00  0.00    -0.091 A  
HETATM   33  C   UNL     1      -6.596   4.987  62.332  1.00  0.00    -0.026 C  
HETATM   34  C   UNL     1      -5.347   5.793  62.734  1.00  0.00    -0.014 C  
HETATM   35  C   UNL     1      -8.695   3.517  65.186  1.00  0.00    -0.118 A  
HETATM   36  C   UNL     1      -5.203   5.772  64.260  1.00  0.00    -0.016 C  
ENDBRANCH  27  28
ENDBRANCH  19  27
ENDBRANCH  12  14
TORSDOF 3
ENDMDL
MODEL      122
REMARK 921   NORMALIZED FREE ENERGY PREDICTED BY IDOCK:   -4.41 KCAL/MOL
REMARK 922        TOTAL FREE ENERGY PREDICTED BY IDOCK:   -6.06 KCAL/MOL
REMARK 923 INTER-LIGAND FREE ENERGY PREDICTED BY IDOCK:   -4.54 KCAL/MOL
REMARK 924 INTRA-LIGAND FREE ENERGY PREDICTED BY IDOCK:   -1.52 KCAL/MOL
REMARK 927      BINDING AFFINITY PREDICTED BY RF-SCORE:    0.00 PKD
ROOT
HETATM    1  C   UNL     1      -7.602   4.320  69.415  1.00  0.00    -0.054 C  
HETATM    2  S   UNL     1      -9.041   4.325  68.271  1.00  0.00    -0.141 SA 
HETATM    3  C   UNL     1      -8.006   4.420  66.735  1.00  0.00    -0.098 C  
HETATM    4  C   UNL     1      -8.689   3.646  65.604  1.00  0.00    -0.117 C  
HETATM    5  CA  UNL     1      -6.610   3.892  67.155  1.00  0.00    -0.046 C  
HETATM    6  C   UNL     1      -7.958   5.900  66.304  1.00  0.00    -0.102 C  
HETATM    7  N   UNL     1      -6.401   4.293  68.560  1.00  0.00    -0.035 N  
HETATM    8  C   UNL     1      -6.421   2.364  67.081  1.00  0.00    -0.035 C  
HETATM    9  OXT UNL     1      -6.647   1.673  66.099  1.00  0.00    -0.023 OA 
HETATM   10  O   UNL     1      -5.880   1.829  68.208  1.00  0.00    -0.022 OA 
HETATM   11  C   UNL     1      -6.043   5.585  68.859  1.00  0.00    -0.025 C  
HETATM   12  CA  UNL     1      -7.139   5.693  69.958  1.00  0.00    -0.067 C  
HETATM   13  O   UNL     1      -5.262   6.307  68.282  1.00  0.00    -0.006 OA 
ENDROOT
BRANCH  12  14
HETATM   14  N   UNL     1      -8.120   6.800  69.836  1.00  0.00    -0.123 N  
HETATM   15  C   UNL     1      -7.802   8.081  70.229  1.00  0.00    -0.088 C  
HETATM   16  H   UNL     1      -9.047   6.609  69.454  1.00  0.00     0.000 HD 
HETATM   17  O   UNL     1      -6.718   8.352  70.740  1.00  0.00    -0.036 OA 
HETATM   18  C   UNL     1      -8.887   9.124  70.036  1.00  0.00    -0.193 C  
HETATM   19  C   UNL     1      -9.097   9.352  68.552  1.00  0.00    -0.131 C  
HETATM   20  C   UNL     1     -10.163   8.865  70.860  1.00  0.00    -0.304 A  
HETATM   21  C   UNL     1     -10.081   8.259  72.128  1.00  0.00    -0.344 A  
HETATM   22  O   UNL     1      -9.843   8.696  67.832  1.00  0.00    -0.160 OA 
HETATM   23  C   UNL     1     -12.539   9.262  71.295  1.00  0.00    -0.377 A  
HETATM   24  C   UNL     1     -11.208   8.136  72.947  1.00  0.00    -0.312 A  
HETATM   25  C   UNL     1     -11.421   9.348  70.460  1.00  0.00    -0.317 A  
HETATM   26  C   UNL     1     -12.433   8.653  72.538  1.00  0.00    -0.372 A  
BRANCH  19  27
HETATM   27  O   UNL     1      -8.283  10.395  68.119  1.00  0.00    -0.112 OA 
BRANCH  27  28
HETATM   28  C   UNL     1      -7.880  10.271  66.783  1.00  0.00    -0.114 A  
HETATM   29  C   UNL     1      -6.428   9.345  65.128  1.00  0.00    -0.075 A  
HETATM   30  C   UNL     1      -6.756   9.513  66.457  1.00  0.00    -0.075 A  
HETATM   31  C   UNL     1      -7.236   9.857  64.123  1.00  0.00    -0.134 A  
HETATM   32  C   UNL     1      -8.384  10.577  64.433  1.00  0.00    -0.097 A  
HETATM   33  C   UNL     1      -6.719   9.482  62.774  1.00  0.00    -0.099 C  
HETATM   34  C   UNL     1      -5.418   8.716  63.083  1.00  0.00    -0.069 C  
HETATM   35  C   UNL     1      -8.706  10.791  65.781  1.00  0.00    -0.194 A  
HETATM   36  C   UNL     1      -5.245   8.609  64.602  1.00  0.00    -0.039 C  
ENDBRANCH  27  28
ENDBRANCH  19  27
ENDBRANCH  12  14
TORSDOF 3
ENDMDL
MODEL      123
REMARK 921   NORMALIZED FREE ENERGY PREDICTED BY IDOCK:   -4.38 KCAL/MOL
REMARK 922        TOTAL FREE ENERGY PREDICTED BY IDOCK:   -6.03 KCAL/MOL
REMARK 923 INTER-LIGAND FREE ENERGY PREDICTED BY IDOCK:   -4.84 KCAL/MOL
REMARK 924 INTRA-LIGAND FREE ENERGY PREDICTED BY IDOCK:   -1.18 KCAL/MOL
REMARK 927      BINDING AFFINITY PREDICTED BY RF-SCORE:    0.00 PKD
ROOT
HETATM    1  C   UNL     1     -10.122  12.615  68.403  1.00  0.00    -0.222 C  
HETATM    2  S   UNL     1      -9.072  12.287  66.930  1.00  0.00    -0.211 SA 
HETATM    3  C   UNL     1     -10.505  11.979  65.794  1.00  0.00    -0.254 C  
HETATM    4  C   UNL     1     -10.162  12.472  64.385  1.00  0.00    -0.346 C  
HETATM    5  CA  UNL     1     -11.713  12.677  66.469  1.00  0.00    -0.400 C  
HETATM    6  C   UNL     1     -10.698  10.451  65.703  1.00  0.00     0.005 C  
HETATM    7  N   UNL     1     -11.517  12.567  67.928  1.00  0.00    -0.294 N  
HETATM    8  C   UNL     1     -11.892  14.173  66.142  1.00  0.00    -0.407 C  
HETATM    9  OXT UNL     1     -11.945  14.647  65.017  1.00  0.00    -0.379 OA 
HETATM   10  O   UNL     1     -12.078  14.950  67.242  1.00  0.00    -0.246 OA 
HETATM   11  C   UNL     1     -11.795  11.384  68.570  1.00  0.00    -0.294 C  
HETATM   12  CA  UNL     1     -10.432  11.407  69.319  1.00  0.00    -0.067 C  
HETATM   13  O   UNL     1     -12.720  10.625  68.392  1.00  0.00     0.661 OA 
ENDROOT
BRANCH  12  14
HETATM   14  N   UNL     1      -9.545  10.228  69.157  1.00  0.00    -0.207 N  
HETATM   15  C   UNL     1      -9.917   8.987  69.622  1.00  0.00    -0.192 C  
HETATM   16  H   UNL     1      -8.643  10.339  68.692  1.00  0.00     0.000 HD 
HETATM   17  O   UNL     1     -10.969   8.811  70.231  1.00  0.00    -0.237 OA 
HETATM   18  C   UNL     1      -8.928   7.862  69.379  1.00  0.00    -0.145 C  
HETATM   19  C   UNL     1      -8.862   7.574  67.891  1.00  0.00    -0.126 C  
HETATM   20  C   UNL     1      -7.571   8.053  70.083  1.00  0.00    -0.081 A  
HETATM   21  C   UNL     1      -7.502   8.702  71.330  1.00  0.00    -0.117 A  
HETATM   22  O   UNL     1      -8.138   8.151  67.088  1.00  0.00    -0.113 OA 
HETATM   23  C   UNL     1      -5.200   7.497  70.332  1.00  0.00    -0.023 A  
HETATM   24  C   UNL     1      -6.302   8.768  72.047  1.00  0.00    -0.069 A  
HETATM   25  C   UNL     1      -6.389   7.467  69.597  1.00  0.00    -0.031 A  
HETATM   26  C   UNL     1      -5.156   8.151  71.557  1.00  0.00    -0.030 A  
BRANCH  19  27
HETATM   27  O   UNL     1      -9.782   6.580  67.566  1.00  0.00    -0.119 OA 
BRANCH  27  28
HETATM   28  C   UNL     1      -9.300   5.282  67.780  1.00  0.00    -0.119 A  
HETATM   29  C   UNL     1      -7.668   3.582  67.393  1.00  0.00    -0.078 A  
HETATM   30  C   UNL     1      -8.164   4.836  67.106  1.00  0.00    -0.106 A  
HETATM   31  C   UNL     1      -8.240   2.798  68.386  1.00  0.00    -0.079 A  
HETATM   32  C   UNL     1      -9.346   3.249  69.097  1.00  0.00    -0.233 A  
HETATM   33  C   UNL     1      -7.484   1.523  68.565  1.00  0.00    -0.042 C  
HETATM   34  C   UNL     1      -6.392   1.591  67.481  1.00  0.00    -0.024 C  
HETATM   35  C   UNL     1      -9.886   4.505  68.785  1.00  0.00    -0.180 A  
HETATM   36  C   UNL     1      -6.498   2.930  66.742  1.00  0.00    -0.036 C  
ENDBRANCH  27  28
ENDBRANCH  19  27
ENDBRANCH  12  14
TORSDOF 3
ENDMDL
MODEL      124
REMARK 921   NORMALIZED FREE ENERGY PREDICTED BY IDOCK:   -4.37 KCAL/MOL
REMARK 922        TOTAL FREE ENERGY PREDICTED BY IDOCK:   -6.01 KCAL/MOL
REMARK 923 INTER-LIGAND FREE ENERGY PREDICTED BY IDOCK:   -4.92 KCAL/MOL
REMARK 924 INTRA-LIGAND FREE ENERGY PREDICTED BY IDOCK:   -1.09 KCAL/MOL
REMARK 927      BINDING AFFINITY PREDICTED BY RF-SCORE:    0.00 PKD
ROOT
HETATM    1  C   UNL     1      -9.892  13.361  68.081  1.00  0.00    -0.234 C  
HETATM    2  S   UNL     1      -9.012  12.882  66.540  1.00  0.00     0.001 SA 
HETATM    3  C   UNL     1     -10.563  12.693  65.539  1.00  0.00    -0.276 C  
HETATM    4  C   UNL     1     -10.295  13.106  64.089  1.00  0.00    -0.286 C  
HETATM    5  CA  UNL     1     -11.630  13.534  66.285  1.00  0.00    -0.345 C  
HETATM    6  C   UNL     1     -10.918  11.192  65.522  1.00  0.00    -0.143 C  
HETATM    7  N   UNL     1     -11.321  13.446  67.726  1.00  0.00    -0.278 N  
HETATM    8  C   UNL     1     -11.683  15.030  65.917  1.00  0.00    -0.098 C  
HETATM    9  OXT UNL     1     -11.784  15.474  64.783  1.00  0.00    -0.294 OA 
HETATM   10  O   UNL     1     -11.692  15.855  66.999  1.00  0.00     0.210 OA 
HETATM   11  C   UNL     1     -11.662  12.319  68.433  1.00  0.00    -0.337 C  
HETATM   12  CA  UNL     1     -10.244  12.220  69.065  1.00  0.00     0.089 C  
HETATM   13  O   UNL     1     -12.672  11.656  68.361  1.00  0.00     0.321 OA 
ENDROOT
BRANCH  12  14
HETATM   14  N   UNL     1      -9.500  10.950  68.874  1.00  0.00    -0.251 N  
HETATM   15  C   UNL     1      -9.948   9.771  69.427  1.00  0.00    -0.205 C  
HETATM   16  H   UNL     1      -8.640  10.950  68.324  1.00  0.00     0.000 HD 
HETATM   17  O   UNL     1     -10.949   9.727  70.138  1.00  0.00    -0.250 OA 
HETATM   18  C   UNL     1      -9.105   8.542  69.144  1.00  0.00    -0.146 C  
HETATM   19  C   UNL     1      -9.212   8.196  67.671  1.00  0.00    -0.137 C  
HETATM   20  C   UNL     1      -7.674   8.614  69.711  1.00  0.00    -0.088 A  
HETATM   21  C   UNL     1      -7.420   9.296  70.916  1.00  0.00    -0.123 A  
HETATM   22  O   UNL     1      -8.514   8.666  66.780  1.00  0.00    -0.112 OA 
HETATM   23  C   UNL     1      -5.358   7.824  69.765  1.00  0.00    -0.023 A  
HETATM   24  C   UNL     1      -6.157   9.261  71.516  1.00  0.00    -0.063 A  
HETATM   25  C   UNL     1      -6.609   7.892  69.145  1.00  0.00    -0.040 A  
HETATM   26  C   UNL     1      -5.131   8.512  70.950  1.00  0.00    -0.024 A  
BRANCH  19  27
HETATM   27  O   UNL     1     -10.254   7.293  67.477  1.00  0.00    -0.183 OA 
BRANCH  27  28
HETATM   28  C   UNL     1      -9.834   5.958  67.432  1.00  0.00    -0.131 A  
HETATM   29  C   UNL     1      -9.524   3.841  68.494  1.00  0.00    -0.211 A  
HETATM   30  C   UNL     1      -9.870   5.173  68.584  1.00  0.00    -0.225 A  
HETATM   31  C   UNL     1      -9.214   3.265  67.270  1.00  0.00    -0.221 A  
HETATM   32  C   UNL     1      -9.218   4.025  66.107  1.00  0.00    -0.155 A  
HETATM   33  C   UNL     1      -8.951   1.802  67.416  1.00  0.00    -0.161 C  
HETATM   34  C   UNL     1      -9.071   1.560  68.932  1.00  0.00    -0.165 C  
HETATM   35  C   UNL     1      -9.527   5.391  66.191  1.00  0.00    -0.171 A  
HETATM   36  C   UNL     1      -9.463   2.871  69.623  1.00  0.00    -0.164 C  
ENDBRANCH  27  28
ENDBRANCH  19  27
ENDBRANCH  12  14
TORSDOF 3
ENDMDL
MODEL      125
REMARK 921   NORMALIZED FREE ENERGY PREDICTED BY IDOCK:   -4.33 KCAL/MOL
REMARK 922        TOTAL FREE ENERGY PREDICTED BY IDOCK:   -5.97 KCAL/MOL
REMARK 923 INTER-LIGAND FREE ENERGY PREDICTED BY IDOCK:   -4.74 KCAL/MOL
REMARK 924 INTRA-LIGAND FREE ENERGY PREDICTED BY IDOCK:   -1.23 KCAL/MOL
REMARK 927      BINDING AFFINITY PREDICTED BY RF-SCORE:    0.00 PKD
ROOT
HETATM    1  C   UNL     1      -9.176   7.185  70.519  1.00  0.00    -0.158 C  
HETATM    2  S   UNL     1      -9.132   9.023  70.549  1.00  0.00    -0.240 SA 
HETATM    3  C   UNL     1     -10.927   9.218  70.123  1.00  0.00    -0.246 C  
HETATM    4  C   UNL     1     -11.491  10.458  70.825  1.00  0.00    -0.422 C  
HETATM    5  CA  UNL     1     -11.585   7.872  70.518  1.00  0.00    -0.144 C  
HETATM    6  C   UNL     1     -11.013   9.481  68.606  1.00  0.00    -0.113 C  
HETATM    7  N   UNL     1     -10.583   6.814  70.281  1.00  0.00    -0.207 N  
HETATM    8  C   UNL     1     -12.039   7.752  71.987  1.00  0.00    -0.311 C  
HETATM    9  OXT UNL     1     -12.763   8.547  72.567  1.00  0.00    -0.362 OA 
HETATM   10  O   UNL     1     -11.626   6.606  72.590  1.00  0.00    -0.230 OA 
HETATM   11  C   UNL     1     -10.347   6.367  69.003  1.00  0.00    -0.199 C  
HETATM   12  CA  UNL     1      -8.808   6.502  69.181  1.00  0.00    -0.128 C  
HETATM   13  O   UNL     1     -11.143   6.150  68.118  1.00  0.00    -0.332 OA 
ENDROOT
BRANCH  12  14
HETATM   14  N   UNL     1      -8.081   7.348  68.202  1.00  0.00    -0.123 N  
HETATM   15  C   UNL     1      -6.786   7.058  67.832  1.00  0.00    -0.077 C  
HETATM   16  H   UNL     1      -8.548   8.159  67.795  1.00  0.00     0.000 HD 
HETATM   17  O   UNL     1      -6.164   6.123  68.328  1.00  0.00    -0.028 OA 
HETATM   18  C   UNL     1      -6.162   7.991  66.811  1.00  0.00    -0.054 C  
HETATM   19  C   UNL     1      -6.861   7.807  65.478  1.00  0.00    -0.052 C  
HETATM   20  C   UNL     1      -6.018   9.447  67.294  1.00  0.00    -0.049 A  
HETATM   21  C   UNL     1      -5.762   9.725  68.650  1.00  0.00    -0.039 A  
HETATM   22  O   UNL     1      -7.882   8.388  65.126  1.00  0.00    -0.103 OA 
HETATM   23  C   UNL     1      -5.677  11.826  66.827  1.00  0.00    -0.113 A  
HETATM   24  C   UNL     1      -5.496  11.028  69.086  1.00  0.00    -0.040 A  
HETATM   25  C   UNL     1      -5.983  10.531  66.399  1.00  0.00    -0.084 A  
HETATM   26  C   UNL     1      -5.436  12.075  68.172  1.00  0.00    -0.051 A  
BRANCH  19  27
HETATM   27  O   UNL     1      -6.191   6.845  64.727  1.00  0.00    -0.035 OA 
BRANCH  27  28
HETATM   28  C   UNL     1      -7.003   5.772  64.342  1.00  0.00    -0.051 A  
HETATM   29  C   UNL     1      -8.100   3.711  64.846  1.00  0.00    -0.090 A  
HETATM   30  C   UNL     1      -7.235   4.716  65.222  1.00  0.00    -0.068 A  
HETATM   31  C   UNL     1      -8.789   3.776  63.642  1.00  0.00    -0.101 A  
HETATM   32  C   UNL     1      -8.602   4.845  62.774  1.00  0.00    -0.119 A  
HETATM   33  C   UNL     1      -9.720   2.618  63.493  1.00  0.00    -0.115 C  
HETATM   34  C   UNL     1      -9.457   1.774  64.754  1.00  0.00    -0.055 C  
HETATM   35  C   UNL     1      -7.693   5.853  63.127  1.00  0.00    -0.094 A  
HETATM   36  C   UNL     1      -8.429   2.492  65.636  1.00  0.00    -0.104 C  
ENDBRANCH  27  28
ENDBRANCH  19  27
ENDBRANCH  12  14
TORSDOF 3
ENDMDL
MODEL      126
REMARK 921   NORMALIZED FREE ENERGY PREDICTED BY IDOCK:   -4.29 KCAL/MOL
REMARK 922        TOTAL FREE ENERGY PREDICTED BY IDOCK:   -5.91 KCAL/MOL
REMARK 923 INTER-LIGAND FREE ENERGY PREDICTED BY IDOCK:   -4.80 KCAL/MOL
REMARK 924 INTRA-LIGAND FREE ENERGY PREDICTED BY IDOCK:   -1.11 KCAL/MOL
REMARK 927      BINDING AFFINITY PREDICTED BY RF-SCORE:    0.00 PKD
ROOT
HETATM    1  C   UNL     1      -8.130  13.252  67.397  1.00  0.00    -0.175 C  
HETATM    2  S   UNL     1      -8.295  13.421  69.220  1.00  0.00     0.885 SA 
HETATM    3  C   UNL     1      -6.468  13.394  69.535  1.00  0.00    -0.083 C  
HETATM    4  C   UNL     1      -6.136  14.296  70.729  1.00  0.00    -0.174 C  
HETATM    5  CA  UNL     1      -5.819  13.806  68.189  1.00  0.00    -0.123 C  
HETATM    6  C   UNL     1      -6.092  11.954  69.940  1.00  0.00    -0.153 C  
HETATM    7  N   UNL     1      -6.683  13.281  67.113  1.00  0.00     0.099 N  
HETATM    8  C   UNL     1      -5.666  15.323  67.955  1.00  0.00    -0.139 C  
HETATM    9  OXT UNL     1      -5.126  16.103  68.724  1.00  0.00    -0.101 OA 
HETATM   10  O   UNL     1      -6.119  15.733  66.740  1.00  0.00    -0.185 OA 
HETATM   11  C   UNL     1      -6.626  11.950  66.776  1.00  0.00    -0.019 C  
HETATM   12  CA  UNL     1      -8.175  11.815  66.824  1.00  0.00    -0.147 C  
HETATM   13  O   UNL     1      -5.655  11.236  66.678  1.00  0.00    -0.098 OA 
ENDROOT
BRANCH  12  14
HETATM   14  N   UNL     1      -8.740  10.779  67.723  1.00  0.00    -0.129 N  
HETATM   15  C   UNL     1      -9.663   9.865  67.266  1.00  0.00    -0.171 C  
HETATM   16  H   UNL     1      -8.441  10.742  68.698  1.00  0.00     0.000 HD 
HETATM   17  O   UNL     1     -10.093   9.897  66.116  1.00  0.00    -0.250 OA 
HETATM   18  C   UNL     1     -10.151   8.848  68.281  1.00  0.00    -0.219 C  
HETATM   19  C   UNL     1      -9.010   7.912  68.632  1.00  0.00    -0.134 C  
HETATM   20  C   UNL     1     -10.904   9.462  69.476  1.00  0.00    -0.231 A  
HETATM   21  C   UNL     1     -11.690  10.616  69.305  1.00  0.00    -0.336 A  
HETATM   22  O   UNL     1      -8.168   8.115  69.500  1.00  0.00    -0.117 OA 
HETATM   23  C   UNL     1     -11.788   9.298  71.753  1.00  0.00    -0.454 A  
HETATM   24  C   UNL     1     -12.486  11.113  70.343  1.00  0.00    -0.382 A  
HETATM   25  C   UNL     1     -10.961   8.826  70.729  1.00  0.00    -0.294 A  
HETATM   26  C   UNL     1     -12.548  10.444  71.561  1.00  0.00    -0.544 A  
BRANCH  19  27
HETATM   27  O   UNL     1      -9.038   6.803  67.791  1.00  0.00    -0.120 OA 
BRANCH  27  28
HETATM   28  C   UNL     1      -8.888   5.586  68.466  1.00  0.00    -0.104 A  
HETATM   29  C   UNL     1      -7.527   3.751  69.163  1.00  0.00    -0.053 A  
HETATM   30  C   UNL     1      -7.671   4.907  68.426  1.00  0.00    -0.082 A  
HETATM   31  C   UNL     1      -8.547   3.300  69.990  1.00  0.00    -0.111 A  
HETATM   32  C   UNL     1      -9.750   3.991  70.074  1.00  0.00    -0.264 A  
HETATM   33  C   UNL     1      -8.130   2.078  70.740  1.00  0.00    -0.059 C  
HETATM   34  C   UNL     1      -6.717   1.786  70.203  1.00  0.00    -0.029 C  
HETATM   35  C   UNL     1      -9.924   5.146  69.297  1.00  0.00    -0.280 A  
HETATM   36  C   UNL     1      -6.321   2.878  69.203  1.00  0.00    -0.029 C  
ENDBRANCH  27  28
ENDBRANCH  19  27
ENDBRANCH  12  14
TORSDOF 3
ENDMDL
MODEL      127
REMARK 921   NORMALIZED FREE ENERGY PREDICTED BY IDOCK:   -4.24 KCAL/MOL
REMARK 922        TOTAL FREE ENERGY PREDICTED BY IDOCK:   -5.86 KCAL/MOL
REMARK 923 INTER-LIGAND FREE ENERGY PREDICTED BY IDOCK:   -4.56 KCAL/MOL
REMARK 924 INTRA-LIGAND FREE ENERGY PREDICTED BY IDOCK:   -1.30 KCAL/MOL
REMARK 927      BINDING AFFINITY PREDICTED BY RF-SCORE:    0.00 PKD
ROOT
HETATM    1  C   UNL     1      -9.414  10.083  69.875  1.00  0.00    -0.181 C  
HETATM    2  S   UNL     1      -8.819  10.519  68.191  1.00  0.00    -0.139 SA 
HETATM    3  C   UNL     1     -10.500  10.425  67.413  1.00  0.00    -0.249 C  
HETATM    4  C   UNL     1     -10.610  11.465  66.293  1.00  0.00    -0.312 C  
HETATM    5  CA  UNL     1     -11.499  10.601  68.586  1.00  0.00    -0.263 C  
HETATM    6  C   UNL     1     -10.623   9.037  66.752  1.00  0.00    -0.201 C  
HETATM    7  N   UNL     1     -10.882   9.982  69.776  1.00  0.00    -0.254 N  
HETATM    8  C   UNL     1     -11.850  12.056  68.955  1.00  0.00    -0.315 C  
HETATM    9  OXT UNL     1     -12.254  12.903  68.173  1.00  0.00    -0.211 OA 
HETATM   10  O   UNL     1     -11.753  12.316  70.287  1.00  0.00    -0.271 OA 
HETATM   11  C   UNL     1     -10.893   8.616  69.922  1.00  0.00    -0.208 C  
HETATM   12  CA  UNL     1      -9.375   8.585  70.260  1.00  0.00    -0.162 C  
HETATM   13  O   UNL     1     -11.785   7.836  69.678  1.00  0.00     0.276 OA 
ENDROOT
BRANCH  12  14
HETATM   14  N   UNL     1      -8.508   7.724  69.418  1.00  0.00    -0.133 N  
HETATM   15  C   UNL     1      -7.272   7.307  69.861  1.00  0.00    -0.081 C  
HETATM   16  H   UNL     1      -8.832   7.434  68.495  1.00  0.00     0.000 HD 
HETATM   17  O   UNL     1      -6.815   7.668  70.943  1.00  0.00    -0.042 OA 
HETATM   18  C   UNL     1      -6.491   6.418  68.912  1.00  0.00    -0.043 C  
HETATM   19  C   UNL     1      -7.192   5.077  68.800  1.00  0.00    -0.058 C  
HETATM   20  C   UNL     1      -6.121   7.092  67.577  1.00  0.00    -0.036 A  
HETATM   21  C   UNL     1      -5.843   8.471  67.529  1.00  0.00    -0.043 A  
HETATM   22  O   UNL     1      -8.101   4.816  68.020  1.00  0.00    -0.089 OA 
HETATM   23  C   UNL     1      -5.395   6.948  65.244  1.00  0.00    -0.027 A  
HETATM   24  C   UNL     1      -5.377   9.076  66.357  1.00  0.00    -0.037 A  
HETATM   25  C   UNL     1      -5.900   6.351  66.402  1.00  0.00    -0.024 A  
HETATM   26  C   UNL     1      -5.136   8.312  65.220  1.00  0.00    -0.031 A  
BRANCH  19  27
HETATM   27  O   UNL     1      -6.675   4.198  69.747  1.00  0.00    -0.033 OA 
BRANCH  27  28
HETATM   28  C   UNL     1      -7.655   3.603  70.551  1.00  0.00    -0.041 A  
HETATM   29  C   UNL     1      -9.402   3.779  72.171  1.00  0.00    -0.182 A  
HETATM   30  C   UNL     1      -8.391   4.376  71.448  1.00  0.00    -0.096 A  
HETATM   31  C   UNL     1      -9.737   2.448  71.963  1.00  0.00    -0.212 A  
HETATM   32  C   UNL     1      -9.041   1.677  71.040  1.00  0.00    -0.144 A  
HETATM   33  C   UNL     1     -10.907   2.052  72.801  1.00  0.00    -0.170 C  
HETATM   34  C   UNL     1     -11.212   3.318  73.624  1.00  0.00    -0.280 C  
HETATM   35  C   UNL     1      -7.983   2.261  70.329  1.00  0.00    -0.052 A  
HETATM   36  C   UNL     1     -10.254   4.437  73.199  1.00  0.00    -0.218 C  
ENDBRANCH  27  28
ENDBRANCH  19  27
ENDBRANCH  12  14
TORSDOF 3
ENDMDL
MODEL      128
REMARK 921   NORMALIZED FREE ENERGY PREDICTED BY IDOCK:   -4.18 KCAL/MOL
REMARK 922        TOTAL FREE ENERGY PREDICTED BY IDOCK:   -5.79 KCAL/MOL
REMARK 923 INTER-LIGAND FREE ENERGY PREDICTED BY IDOCK:   -5.84 KCAL/MOL
REMARK 924 INTRA-LIGAND FREE ENERGY PREDICTED BY IDOCK:    0.05 KCAL/MOL
REMARK 927      BINDING AFFINITY PREDICTED BY RF-SCORE:    0.00 PKD
ROOT
HETATM    1  C   UNL     1     -11.405   7.646  69.375  1.00  0.00     0.267 C  
HETATM    2  S   UNL     1      -9.836   7.114  68.577  1.00  0.00    -0.157 SA 
HETATM    3  C   UNL     1      -8.843   7.192  70.142  1.00  0.00    -0.145 C  
HETATM    4  C   UNL     1      -7.772   6.097  70.128  1.00  0.00    -0.097 C  
HETATM    5  CA  UNL     1      -9.883   7.092  71.287  1.00  0.00    -0.177 C  
HETATM    6  C   UNL     1      -8.104   8.546  70.149  1.00  0.00    -0.111 C  
HETATM    7  N   UNL     1     -11.111   7.762  70.816  1.00  0.00    -0.254 N  
HETATM    8  C   UNL     1     -10.275   5.663  71.713  1.00  0.00    -0.202 C  
HETATM    9  OXT UNL     1      -9.491   4.782  72.031  1.00  0.00    -0.135 OA 
HETATM   10  O   UNL     1     -11.619   5.471  71.795  1.00  0.00    -0.072 OA 
HETATM   11  C   UNL     1     -11.187   9.134  70.817  1.00  0.00    -0.277 C  
HETATM   12  CA  UNL     1     -11.717   9.161  69.355  1.00  0.00     0.654 C  
HETATM   13  O   UNL     1     -10.790   9.914  71.653  1.00  0.00    -0.059 OA 
ENDROOT
BRANCH  12  14
HETATM   14  N   UNL     1     -10.954   9.965  68.368  1.00  0.00    -0.402 N  
HETATM   15  C   UNL     1     -10.718  11.306  68.570  1.00  0.00    -0.201 C  
HETATM   16  H   UNL     1     -10.598   9.516  67.523  1.00  0.00     0.000 HD 
HETATM   17  O   UNL     1     -11.167  11.904  69.545  1.00  0.00    -0.231 OA 
HETATM   18  C   UNL     1      -9.912  12.009  67.495  1.00  0.00    -0.199 C  
HETATM   19  C   UNL     1      -8.488  11.487  67.522  1.00  0.00    -0.143 C  
HETATM   20  C   UNL     1     -10.589  12.029  66.111  1.00  0.00    -0.298 A  
HETATM   21  C   UNL     1     -11.991  12.105  66.007  1.00  0.00    -0.236 A  
HETATM   22  O   UNL     1      -8.086  10.493  66.929  1.00  0.00    -0.116 OA 
HETATM   23  C   UNL     1     -10.475  12.320  63.683  1.00  0.00    -0.483 A  
HETATM   24  C   UNL     1     -12.619  12.258  64.765  1.00  0.00    -0.312 A  
HETATM   25  C   UNL     1      -9.851  12.125  64.919  1.00  0.00    -0.173 A  
HETATM   26  C   UNL     1     -11.860  12.383  63.607  1.00  0.00    -0.610 A  
BRANCH  19  27
HETATM   27  O   UNL     1      -7.713  12.286  68.358  1.00  0.00    -0.130 OA 
BRANCH  27  28
HETATM   28  C   UNL     1      -8.016  13.651  68.264  1.00  0.00    -0.150 A  
HETATM   29  C   UNL     1      -8.804  15.522  67.007  1.00  0.00    -0.255 A  
HETATM   30  C   UNL     1      -8.438  14.194  67.052  1.00  0.00    -0.178 A  
HETATM   31  C   UNL     1      -8.823  16.296  68.160  1.00  0.00    -0.183 A  
HETATM   32  C   UNL     1      -8.447  15.756  69.384  1.00  0.00    -0.218 A  
HETATM   33  C   UNL     1      -9.325  17.673  67.874  1.00  0.00    -0.268 C  
HETATM   34  C   UNL     1      -9.549  17.670  66.350  1.00  0.00    -0.285 C  
HETATM   35  C   UNL     1      -8.033  14.417  69.435  1.00  0.00     0.147 A  
HETATM   36  C   UNL     1      -9.234  16.275  65.797  1.00  0.00    -0.151 C  
ENDBRANCH  27  28
ENDBRANCH  19  27
ENDBRANCH  12  14
TORSDOF 3
ENDMDL
MODEL      129
REMARK 921   NORMALIZED FREE ENERGY PREDICTED BY IDOCK:   -4.17 KCAL/MOL
REMARK 922        TOTAL FREE ENERGY PREDICTED BY IDOCK:   -5.78 KCAL/MOL
REMARK 923 INTER-LIGAND FREE ENERGY PREDICTED BY IDOCK:   -4.73 KCAL/MOL
REMARK 924 INTRA-LIGAND FREE ENERGY PREDICTED BY IDOCK:   -1.05 KCAL/MOL
REMARK 927      BINDING AFFINITY PREDICTED BY RF-SCORE:    0.00 PKD
ROOT
HETATM    1  C   UNL     1     -10.392  17.144  68.284  1.00  0.00    -0.354 C  
HETATM    2  S   UNL     1      -8.707  16.600  68.777  1.00  0.00    -0.247 SA 
HETATM    3  C   UNL     1      -7.849  17.546  67.431  1.00  0.00    -0.202 C  
HETATM    4  C   UNL     1      -6.488  18.037  67.933  1.00  0.00    -0.188 C  
HETATM    5  CA  UNL     1      -8.848  18.657  67.018  1.00  0.00    -0.281 C  
HETATM    6  C   UNL     1      -7.575  16.558  66.279  1.00  0.00    -0.157 C  
HETATM    7  N   UNL     1     -10.206  18.099  67.176  1.00  0.00    -0.350 N  
HETATM    8  C   UNL     1      -8.786  19.955  67.847  1.00  0.00    -0.298 C  
HETATM    9  OXT UNL     1      -7.777  20.612  68.053  1.00  0.00    -0.135 OA 
HETATM   10  O   UNL     1     -10.003  20.381  68.279  1.00  0.00    -0.306 OA 
HETATM   11  C   UNL     1     -10.710  17.242  66.228  1.00  0.00    -0.077 C  
HETATM   12  CA  UNL     1     -11.165  16.223  67.311  1.00  0.00     0.052 C  
HETATM   13  O   UNL     1     -10.611  17.303  65.023  1.00  0.00    -0.675 OA 
ENDROOT
BRANCH  12  14
HETATM   14  N   UNL     1     -10.656  14.833  67.196  1.00  0.00    -0.280 N  
HETATM   15  C   UNL     1     -11.263  13.919  66.365  1.00  0.00    -0.315 C  
HETATM   16  H   UNL     1      -9.842  14.550  67.742  1.00  0.00     0.000 HD 
HETATM   17  O   UNL     1     -12.274  14.195  65.724  1.00  0.00    -0.410 OA 
HETATM   18  C   UNL     1     -10.636  12.538  66.326  1.00  0.00    -0.273 C  
HETATM   19  C   UNL     1      -9.275  12.630  65.662  1.00  0.00     0.247 C  
HETATM   20  C   UNL     1     -10.673  11.791  67.673  1.00  0.00    -0.254 A  
HETATM   21  C   UNL     1     -11.751  11.975  68.559  1.00  0.00    -0.387 A  
HETATM   22  O   UNL     1      -8.225  12.900  66.233  1.00  0.00     0.399 OA 
HETATM   23  C   UNL     1      -9.874  10.006  69.145  1.00  0.00    -0.213 A  
HETATM   24  C   UNL     1     -11.871  11.209  69.724  1.00  0.00    -0.422 A  
HETATM   25  C   UNL     1      -9.732  10.799  68.003  1.00  0.00    -0.174 A  
HETATM   26  C   UNL     1     -10.943  10.213  70.008  1.00  0.00    -0.364 A  
BRANCH  19  27
HETATM   27  O   UNL     1      -9.406  12.401  64.295  1.00  0.00     0.235 OA 
BRANCH  27  28
HETATM   28  C   UNL     1      -9.184  11.068  63.928  1.00  0.00    -0.166 A  
HETATM   29  C   UNL     1      -8.530   8.840  64.488  1.00  0.00    -0.158 A  
HETATM   30  C   UNL     1      -8.666  10.163  64.853  1.00  0.00    -0.198 A  
HETATM   31  C   UNL     1      -8.967   8.393  63.249  1.00  0.00     0.644 A  
HETATM   32  C   UNL     1      -9.527   9.276  62.333  1.00  0.00     0.429 A  
HETATM   33  C   UNL     1      -8.786   6.917  63.116  1.00  0.00     0.632 C  
HETATM   34  C   UNL     1      -8.100   6.514  64.435  1.00  0.00    -0.065 C  
HETATM   35  C   UNL     1      -9.632  10.632  62.676  1.00  0.00    -0.293 A  
HETATM   36  C   UNL     1      -7.957   7.752  65.327  1.00  0.00    -0.127 C  
ENDBRANCH  27  28
ENDBRANCH  19  27
ENDBRANCH  12  14
TORSDOF 3
ENDMDL
MODEL      130
REMARK 921   NORMALIZED FREE ENERGY PREDICTED BY IDOCK:   -4.16 KCAL/MOL
REMARK 922        TOTAL FREE ENERGY PREDICTED BY IDOCK:   -5.77 KCAL/MOL
REMARK 923 INTER-LIGAND FREE ENERGY PREDICTED BY IDOCK:   -4.59 KCAL/MOL
REMARK 924 INTRA-LIGAND FREE ENERGY PREDICTED BY IDOCK:   -1.18 KCAL/MOL
REMARK 927      BINDING AFFINITY PREDICTED BY RF-SCORE:    0.00 PKD
ROOT
HETATM    1  C   UNL     1     -10.481   5.233  69.854  1.00  0.00    -0.281 C  
HETATM    2  S   UNL     1      -8.889   4.775  70.650  1.00  0.00    -0.115 SA 
HETATM    3  C   UNL     1      -8.695   6.395  71.531  1.00  0.00    -0.134 C  
HETATM    4  C   UNL     1      -8.007   6.170  72.881  1.00  0.00    -0.105 C  
HETATM    5  CA  UNL     1     -10.124   6.991  71.603  1.00  0.00    -0.182 C  
HETATM    6  C   UNL     1      -7.747   7.269  70.683  1.00  0.00    -0.093 C  
HETATM    7  N   UNL     1     -10.832   6.566  70.379  1.00  0.00    -0.252 N  
HETATM    8  C   UNL     1     -10.978   6.542  72.806  1.00  0.00    -0.253 C  
HETATM    9  OXT UNL     1     -10.636   6.610  73.977  1.00  0.00    -0.323 OA 
HETATM   10  O   UNL     1     -12.225   6.125  72.460  1.00  0.00    -0.178 OA 
HETATM   11  C   UNL     1     -10.586   7.205  69.188  1.00  0.00    -0.214 C  
HETATM   12  CA  UNL     1     -10.398   5.854  68.439  1.00  0.00    -0.210 C  
HETATM   13  O   UNL     1     -10.431   8.387  68.981  1.00  0.00    -0.222 OA 
ENDROOT
BRANCH  12  14
HETATM   14  N   UNL     1      -9.118   5.647  67.717  1.00  0.00    -0.108 N  
HETATM   15  C   UNL     1      -9.064   5.671  66.341  1.00  0.00    -0.147 C  
HETATM   16  H   UNL     1      -8.263   5.485  68.248  1.00  0.00     0.000 HD 
HETATM   17  O   UNL     1     -10.073   5.813  65.655  1.00  0.00     0.200 OA 
HETATM   18  C   UNL     1      -7.694   5.462  65.726  1.00  0.00    -0.087 C  
HETATM   19  C   UNL     1      -6.821   6.662  66.041  1.00  0.00    -0.053 C  
HETATM   20  C   UNL     1      -7.070   4.086  66.028  1.00  0.00    -0.067 A  
HETATM   21  C   UNL     1      -7.888   2.948  66.159  1.00  0.00    -0.081 A  
HETATM   22  O   UNL     1      -6.152   6.805  67.058  1.00  0.00    -0.029 OA 
HETATM   23  C   UNL     1      -5.127   2.601  66.133  1.00  0.00    -0.005 A  
HETATM   24  C   UNL     1      -7.335   1.670  66.300  1.00  0.00    -0.060 A  
HETATM   25  C   UNL     1      -5.679   3.881  66.034  1.00  0.00    -0.018 A  
HETATM   26  C   UNL     1      -5.956   1.495  66.270  1.00  0.00    -0.019 A  
BRANCH  19  27
HETATM   27  O   UNL     1      -6.928   7.600  65.017  1.00  0.00    -0.056 OA 
BRANCH  27  28
HETATM   28  C   UNL     1      -7.454   8.828  65.437  1.00  0.00    -0.086 A  
HETATM   29  C   UNL     1      -9.287  10.144  66.221  1.00  0.00    -0.214 A  
HETATM   30  C   UNL     1      -8.811   8.944  65.735  1.00  0.00    -0.223 A  
HETATM   31  C   UNL     1      -8.426  11.201  66.480  1.00  0.00    -0.165 A  
HETATM   32  C   UNL     1      -7.063  11.084  66.230  1.00  0.00    -0.092 A  
HETATM   33  C   UNL     1      -9.160  12.360  67.070  1.00  0.00    -0.207 C  
HETATM   34  C   UNL     1     -10.629  11.897  67.074  1.00  0.00    -0.260 C  
HETATM   35  C   UNL     1      -6.573   9.883  65.697  1.00  0.00    -0.093 A  
HETATM   36  C   UNL     1     -10.706  10.459  66.547  1.00  0.00    -0.162 C  
ENDBRANCH  27  28
ENDBRANCH  19  27
ENDBRANCH  12  14
TORSDOF 3
ENDMDL
MODEL      131
REMARK 921   NORMALIZED FREE ENERGY PREDICTED BY IDOCK:   -3.80 KCAL/MOL
REMARK 922        TOTAL FREE ENERGY PREDICTED BY IDOCK:   -5.34 KCAL/MOL
REMARK 923 INTER-LIGAND FREE ENERGY PREDICTED BY IDOCK:   -4.34 KCAL/MOL
REMARK 924 INTRA-LIGAND FREE ENERGY PREDICTED BY IDOCK:   -1.00 KCAL/MOL
REMARK 927      BINDING AFFINITY PREDICTED BY RF-SCORE:    0.00 PKD
ROOT
HETATM    1  C   UNL     1      -8.193  13.215  67.404  1.00  0.00    -0.187 C  
HETATM    2  S   UNL     1      -8.492  13.492  69.197  1.00  0.00     0.655 SA 
HETATM    3  C   UNL     1      -6.692  13.598  69.630  1.00  0.00     0.011 C  
HETATM    4  C   UNL     1      -6.495  14.593  70.778  1.00  0.00     0.095 C  
HETATM    5  CA  UNL     1      -5.977  13.961  68.303  1.00  0.00    -0.117 C  
HETATM    6  C   UNL     1      -6.264  12.212  70.157  1.00  0.00    -0.061 C  
HETATM    7  N   UNL     1      -6.735  13.315  67.213  1.00  0.00    -0.056 N  
HETATM    8  C   UNL     1      -5.895  15.465  67.976  1.00  0.00    -0.139 C  
HETATM    9  OXT UNL     1      -5.454  16.326  68.723  1.00  0.00    -0.107 OA 
HETATM   10  O   UNL     1      -6.287  15.767  66.709  1.00  0.00    -0.209 OA 
HETATM   11  C   UNL     1      -6.579  11.971  66.972  1.00  0.00    -0.108 C  
HETATM   12  CA  UNL     1      -8.117  11.745  66.930  1.00  0.00    -0.160 C  
HETATM   13  O   UNL     1      -5.564  11.312  66.986  1.00  0.00    -0.062 OA 
ENDROOT
BRANCH  12  14
HETATM   14  N   UNL     1      -8.683  10.736  67.860  1.00  0.00    -0.127 N  
HETATM   15  C   UNL     1      -9.518   9.738  67.408  1.00  0.00    -0.152 C  
HETATM   16  H   UNL     1      -8.450  10.782  68.852  1.00  0.00     0.000 HD 
HETATM   17  O   UNL     1      -9.868   9.669  66.232  1.00  0.00    -0.218 OA 
HETATM   18  C   UNL     1     -10.015   8.762  68.456  1.00  0.00    -0.200 C  
HETATM   19  C   UNL     1      -8.849   7.923  68.945  1.00  0.00    -0.142 C  
HETATM   20  C   UNL     1     -10.883   9.404  69.555  1.00  0.00    -0.231 A  
HETATM   21  C   UNL     1     -11.721  10.494  69.253  1.00  0.00    -0.281 A  
HETATM   22  O   UNL     1      -8.083   8.234  69.849  1.00  0.00    -0.112 OA 
HETATM   23  C   UNL     1     -11.911   9.334  71.775  1.00  0.00    -0.455 A  
HETATM   24  C   UNL     1     -12.614  11.007  70.201  1.00  0.00    -0.281 A  
HETATM   25  C   UNL     1     -10.990   8.849  70.842  1.00  0.00    -0.325 A  
HETATM   26  C   UNL     1     -12.721  10.416  71.455  1.00  0.00    -0.564 A  
BRANCH  19  27
HETATM   27  O   UNL     1      -8.756   6.763  68.182  1.00  0.00    -0.123 OA 
BRANCH  27  28
HETATM   28  C   UNL     1      -8.001   6.922  67.014  1.00  0.00    -0.116 A  
HETATM   29  C   UNL     1      -7.779   6.741  64.642  1.00  0.00    -0.112 A  
HETATM   30  C   UNL     1      -8.511   6.502  65.786  1.00  0.00    -0.149 A  
HETATM   31  C   UNL     1      -6.587   7.451  64.693  1.00  0.00    -0.040 A  
HETATM   32  C   UNL     1      -6.089   7.915  65.905  1.00  0.00    -0.038 A  
HETATM   33  C   UNL     1      -6.021   7.649  63.326  1.00  0.00    -0.054 C  
HETATM   34  C   UNL     1      -7.002   6.890  62.412  1.00  0.00    -0.052 C  
HETATM   35  C   UNL     1      -6.803   7.642  67.081  1.00  0.00    -0.068 A  
HETATM   36  C   UNL     1      -8.147   6.325  63.261  1.00  0.00    -0.053 C  
ENDBRANCH  27  28
ENDBRANCH  19  27
ENDBRANCH  12  14
TORSDOF 3
ENDMDL
MODEL      132
REMARK 921   NORMALIZED FREE ENERGY PREDICTED BY IDOCK:   -3.66 KCAL/MOL
REMARK 922        TOTAL FREE ENERGY PREDICTED BY IDOCK:   -5.18 KCAL/MOL
REMARK 923 INTER-LIGAND FREE ENERGY PREDICTED BY IDOCK:   -5.77 KCAL/MOL
REMARK 924 INTRA-LIGAND FREE ENERGY PREDICTED BY IDOCK:    0.59 KCAL/MOL
REMARK 927      BINDING AFFINITY PREDICTED BY RF-SCORE:    0.00 PKD
ROOT
HETATM    1  C   UNL     1      -6.955   7.257  70.198  1.00  0.00    -0.060 C  
HETATM    2  S   UNL     1      -7.777   8.900  70.239  1.00  0.00    -0.104 SA 
HETATM    3  C   UNL     1      -9.438   8.220  70.707  1.00  0.00    -0.161 C  
HETATM    4  C   UNL     1     -10.166   9.217  71.615  1.00  0.00    -0.372 C  
HETATM    5  CA  UNL     1      -9.145   6.835  71.339  1.00  0.00    -0.142 C  
HETATM    6  C   UNL     1     -10.267   8.101  69.412  1.00  0.00    -0.211 C  
HETATM    7  N   UNL     1      -7.968   6.281  70.639  1.00  0.00    -0.110 N  
HETATM    8  C   UNL     1      -8.821   6.841  72.846  1.00  0.00    -0.124 C  
HETATM    9  OXT UNL     1      -9.513   7.352  73.714  1.00  0.00    -0.241 OA 
HETATM   10  O   UNL     1      -7.705   6.132  73.164  1.00  0.00    -0.097 OA 
HETATM   11  C   UNL     1      -8.112   5.723  69.392  1.00  0.00    -0.101 C  
HETATM   12  CA  UNL     1      -6.910   6.535  68.830  1.00  0.00    -0.069 C  
HETATM   13  O   UNL     1      -8.999   5.010  68.979  1.00  0.00    -0.094 OA 
ENDROOT
BRANCH  12  14
HETATM   14  N   UNL     1      -7.159   7.387  67.641  1.00  0.00    -0.082 N  
HETATM   15  C   UNL     1      -8.209   7.131  66.787  1.00  0.00    -0.114 C  
HETATM   16  H   UNL     1      -6.542   8.177  67.452  1.00  0.00     0.000 HD 
HETATM   17  O   UNL     1      -8.950   6.163  66.943  1.00  0.00    -0.115 OA 
HETATM   18  C   UNL     1      -8.363   8.085  65.619  1.00  0.00    -0.146 C  
HETATM   19  C   UNL     1      -8.781   9.446  66.143  1.00  0.00    -0.147 C  
HETATM   20  C   UNL     1      -7.173   8.083  64.641  1.00  0.00    -0.079 A  
HETATM   21  C   UNL     1      -6.451   6.899  64.402  1.00  0.00    -0.036 A  
HETATM   22  O   UNL     1      -8.016  10.322  66.532  1.00  0.00    -0.113 OA 
HETATM   23  C   UNL     1      -5.891   9.131  62.838  1.00  0.00    -0.089 A  
HETATM   24  C   UNL     1      -5.454   6.842  63.422  1.00  0.00    -0.032 A  
HETATM   25  C   UNL     1      -6.857   9.199  63.845  1.00  0.00    -0.089 A  
HETATM   26  C   UNL     1      -5.186   7.952  62.629  1.00  0.00    -0.055 A  
BRANCH  19  27
HETATM   27  O   UNL     1     -10.170   9.537  66.155  1.00  0.00    -0.273 OA 
BRANCH  27  28
HETATM   28  C   UNL     1     -10.657  10.727  65.601  1.00  0.00    -0.129 A  
HETATM   29  C   UNL     1     -11.372  12.993  65.847  1.00  0.00    -0.344 A  
HETATM   30  C   UNL     1     -10.968  11.808  66.425  1.00  0.00    -0.341 A  
HETATM   31  C   UNL     1     -11.403  13.140  64.467  1.00  0.00    -0.383 A  
HETATM   32  C   UNL     1     -11.052  12.084  63.633  1.00  0.00    -0.525 A  
HETATM   33  C   UNL     1     -11.796  14.528  64.083  1.00  0.00    -0.290 C  
HETATM   34  C   UNL     1     -12.080  15.213  65.433  1.00  0.00     0.145 C  
HETATM   35  C   UNL     1     -10.680  10.861  64.209  1.00  0.00    -0.241 A  
HETATM   36  C   UNL     1     -11.785  14.228  66.570  1.00  0.00    -0.409 C  
ENDBRANCH  27  28
ENDBRANCH  19  27
ENDBRANCH  12  14
TORSDOF 3
ENDMDL
MODEL      133
REMARK 921   NORMALIZED FREE ENERGY PREDICTED BY IDOCK:   -3.66 KCAL/MOL
REMARK 922        TOTAL FREE ENERGY PREDICTED BY IDOCK:   -5.18 KCAL/MOL
REMARK 923 INTER-LIGAND FREE ENERGY PREDICTED BY IDOCK:   -5.22 KCAL/MOL
REMARK 924 INTRA-LIGAND FREE ENERGY PREDICTED BY IDOCK:    0.05 KCAL/MOL
REMARK 927      BINDING AFFINITY PREDICTED BY RF-SCORE:    0.00 PKD
ROOT
HETATM    1  C   UNL     1      -9.938  14.352  66.115  1.00  0.00    -0.311 C  
HETATM    2  S   UNL     1      -9.451  12.595  65.880  1.00  0.00    -0.009 SA 
HETATM    3  C   UNL     1     -11.110  11.918  66.358  1.00  0.00    -0.309 C  
HETATM    4  C   UNL     1     -11.403  10.651  65.549  1.00  0.00     0.689 C  
HETATM    5  CA  UNL     1     -12.102  13.090  66.144  1.00  0.00    -0.409 C  
HETATM    6  C   UNL     1     -11.025  11.498  67.840  1.00  0.00    -0.287 C  
HETATM    7  N   UNL     1     -11.373  14.336  66.453  1.00  0.00    -0.334 N  
HETATM    8  C   UNL     1     -12.672  13.234  64.718  1.00  0.00    -0.274 C  
HETATM    9  OXT UNL     1     -13.219  12.343  64.085  1.00  0.00    -0.761 OA 
HETATM   10  O   UNL     1     -12.592  14.500  64.228  1.00  0.00    -0.681 OA 
HETATM   11  C   UNL     1     -11.166  14.702  67.761  1.00  0.00    -0.308 C  
HETATM   12  CA  UNL     1      -9.656  14.973  67.503  1.00  0.00    -0.203 C  
HETATM   13  O   UNL     1     -11.928  14.628  68.698  1.00  0.00    -0.315 OA 
ENDROOT
BRANCH  12  14
HETATM   14  N   UNL     1      -8.679  14.245  68.351  1.00  0.00    -0.178 N  
HETATM   15  C   UNL     1      -7.359  14.126  67.976  1.00  0.00    -0.140 C  
HETATM   16  H   UNL     1      -8.990  13.824  69.226  1.00  0.00     0.000 HD 
HETATM   17  O   UNL     1      -6.946  14.572  66.908  1.00  0.00     0.055 OA 
HETATM   18  C   UNL     1      -6.461  13.372  68.937  1.00  0.00    -0.103 C  
HETATM   19  C   UNL     1      -6.299  14.186  70.207  1.00  0.00    -0.121 C  
HETATM   20  C   UNL     1      -6.850  11.895  69.136  1.00  0.00    -0.099 A  
HETATM   21  C   UNL     1      -7.407  11.157  68.075  1.00  0.00    -0.088 A  
HETATM   22  O   UNL     1      -7.058  14.158  71.169  1.00  0.00     0.896 OA 
HETATM   23  C   UNL     1      -6.731   9.811  70.415  1.00  0.00    -0.123 A  
HETATM   24  C   UNL     1      -7.644   9.783  68.193  1.00  0.00    -0.082 A  
HETATM   25  C   UNL     1      -6.533  11.190  70.311  1.00  0.00    -0.039 A  
HETATM   26  C   UNL     1      -7.290   9.107  69.356  1.00  0.00    -0.076 A  
BRANCH  19  27
HETATM   27  O   UNL     1      -5.177  15.003  70.098  1.00  0.00    -0.100 OA 
BRANCH  27  28
HETATM   28  C   UNL     1      -5.487  16.349  69.865  1.00  0.00    -0.166 A  
HETATM   29  C   UNL     1      -5.636  18.609  70.624  1.00  0.00    -0.181 A  
HETATM   30  C   UNL     1      -5.400  17.278  70.900  1.00  0.00    -0.158 A  
HETATM   31  C   UNL     1      -5.886  19.035  69.327  1.00  0.00    -0.251 A  
HETATM   32  C   UNL     1      -5.931  18.125  68.277  1.00  0.00    -0.175 A  
HETATM   33  C   UNL     1      -6.031  20.520  69.268  1.00  0.00    -0.383 C  
HETATM   34  C   UNL     1      -5.909  20.957  70.740  1.00  0.00     0.313 C  
HETATM   35  C   UNL     1      -5.734  16.764  68.552  1.00  0.00    -0.126 A  
HETATM   36  C   UNL     1      -5.631  19.725  71.610  1.00  0.00    -0.389 C  
ENDBRANCH  27  28
ENDBRANCH  19  27
ENDBRANCH  12  14
TORSDOF 3
ENDMDL
MODEL      134
REMARK 921   NORMALIZED FREE ENERGY PREDICTED BY IDOCK:   -3.62 KCAL/MOL
REMARK 922        TOTAL FREE ENERGY PREDICTED BY IDOCK:   -5.13 KCAL/MOL
REMARK 923 INTER-LIGAND FREE ENERGY PREDICTED BY IDOCK:   -4.00 KCAL/MOL
REMARK 924 INTRA-LIGAND FREE ENERGY PREDICTED BY IDOCK:   -1.14 KCAL/MOL
REMARK 927      BINDING AFFINITY PREDICTED BY RF-SCORE:    0.00 PKD
ROOT
HETATM    1  C   UNL     1      -8.514   9.662  64.439  1.00  0.00    -0.181 C  
HETATM    2  S   UNL     1      -6.975  10.145  65.321  1.00  0.00    -0.133 SA 
HETATM    3  C   UNL     1      -6.650   8.444  65.987  1.00  0.00    -0.053 C  
HETATM    4  C   UNL     1      -5.140   8.199  66.064  1.00  0.00    -0.024 C  
HETATM    5  CA  UNL     1      -7.434   7.487  65.054  1.00  0.00    -0.084 C  
HETATM    6  C   UNL     1      -7.186   8.408  67.434  1.00  0.00    -0.088 C  
HETATM    7  N   UNL     1      -8.649   8.205  64.619  1.00  0.00    -0.018 N  
HETATM    8  C   UNL     1      -6.690   7.033  63.782  1.00  0.00    -0.044 C  
HETATM    9  OXT UNL     1      -5.579   6.525  63.759  1.00  0.00    -0.028 OA 
HETATM   10  O   UNL     1      -7.426   7.166  62.646  1.00  0.00    -0.083 OA 
HETATM   11  C   UNL     1      -9.722   8.314  65.469  1.00  0.00     0.571 C  
HETATM   12  CA  UNL     1      -9.843   9.843  65.209  1.00  0.00    -0.303 C  
HETATM   13  O   UNL     1     -10.186   7.480  66.213  1.00  0.00    -0.043 OA 
ENDROOT
BRANCH  12  14
HETATM   14  N   UNL     1      -9.789  10.741  66.390  1.00  0.00    -0.201 N  
HETATM   15  C   UNL     1     -10.935  11.287  66.923  1.00  0.00    -0.290 C  
HETATM   16  H   UNL     1      -8.887  10.958  66.814  1.00  0.00     0.000 HD 
HETATM   17  O   UNL     1     -12.040  11.097  66.420  1.00  0.00     0.386 OA 
HETATM   18  C   UNL     1     -10.745  12.175  68.138  1.00  0.00    -0.238 C  
HETATM   19  C   UNL     1     -10.294  11.323  69.309  1.00  0.00    -0.070 C  
HETATM   20  C   UNL     1      -9.907  13.439  67.870  1.00  0.00    -0.237 A  
HETATM   21  C   UNL     1      -9.965  14.080  66.618  1.00  0.00    -0.280 A  
HETATM   22  O   UNL     1      -9.132  11.024  69.562  1.00  0.00     0.098 OA 
HETATM   23  C   UNL     1      -8.568  15.323  68.678  1.00  0.00    -0.173 A  
HETATM   24  C   UNL     1      -9.317  15.300  66.396  1.00  0.00    -0.328 A  
HETATM   25  C   UNL     1      -9.180  14.084  68.887  1.00  0.00     0.039 A  
HETATM   26  C   UNL     1      -8.633  15.929  67.430  1.00  0.00    -0.189 A  
BRANCH  19  27
HETATM   27  O   UNL     1     -11.404  10.895  70.031  1.00  0.00    -0.288 OA 
BRANCH  27  28
HETATM   28  C   UNL     1     -11.371   9.532  70.352  1.00  0.00    -0.264 A  
HETATM   29  C   UNL     1     -10.985   7.260  69.727  1.00  0.00    -0.235 A  
HETATM   30  C   UNL     1     -11.088   8.587  69.368  1.00  0.00     0.086 A  
HETATM   31  C   UNL     1     -11.088   6.870  71.056  1.00  0.00    -0.305 A  
HETATM   32  C   UNL     1     -11.326   7.808  72.054  1.00  0.00    -0.332 A  
HETATM   33  C   UNL     1     -10.866   5.401  71.203  1.00  0.00    -0.188 C  
HETATM   34  C   UNL     1     -10.680   4.913  69.754  1.00  0.00     0.346 C  
HETATM   35  C   UNL     1     -11.475   9.156  71.696  1.00  0.00    -0.451 A  
HETATM   36  C   UNL     1     -10.734   6.117  68.806  1.00  0.00    -0.370 C  
ENDBRANCH  27  28
ENDBRANCH  19  27
ENDBRANCH  12  14
TORSDOF 3
ENDMDL
MODEL      135
REMARK 921   NORMALIZED FREE ENERGY PREDICTED BY IDOCK:   -3.61 KCAL/MOL
REMARK 922        TOTAL FREE ENERGY PREDICTED BY IDOCK:   -5.12 KCAL/MOL
REMARK 923 INTER-LIGAND FREE ENERGY PREDICTED BY IDOCK:   -4.63 KCAL/MOL
REMARK 924 INTRA-LIGAND FREE ENERGY PREDICTED BY IDOCK:   -0.49 KCAL/MOL
REMARK 927      BINDING AFFINITY PREDICTED BY RF-SCORE:    0.00 PKD
ROOT
HETATM    1  C   UNL     1     -11.243   7.487  70.082  1.00  0.00    -0.196 C  
HETATM    2  S   UNL     1     -10.628   5.767  69.876  1.00  0.00    -0.335 SA 
HETATM    3  C   UNL     1      -9.394   5.887  71.256  1.00  0.00    -0.156 C  
HETATM    4  C   UNL     1      -9.264   4.529  71.951  1.00  0.00    -0.178 C  
HETATM    5  CA  UNL     1      -9.900   7.048  72.150  1.00  0.00    -0.154 C  
HETATM    6  C   UNL     1      -8.024   6.202  70.621  1.00  0.00    -0.111 C  
HETATM    7  N   UNL     1     -10.542   8.034  71.258  1.00  0.00    -0.207 N  
HETATM    8  C   UNL     1     -10.933   6.663  73.228  1.00  0.00    -0.207 C  
HETATM    9  OXT UNL     1     -10.791   5.774  74.054  1.00  0.00    -0.191 OA 
HETATM   10  O   UNL     1     -12.025   7.474  73.247  1.00  0.00     0.150 OA 
HETATM   11  C   UNL     1      -9.768   8.893  70.516  1.00  0.00    -0.203 C  
HETATM   12  CA  UNL     1     -10.565   8.577  69.218  1.00  0.00    -0.181 C  
HETATM   13  O   UNL     1      -8.763   9.481  70.844  1.00  0.00    -0.243 OA 
ENDROOT
BRANCH  12  14
HETATM   14  N   UNL     1      -9.794   8.087  68.048  1.00  0.00    -0.161 N  
HETATM   15  C   UNL     1     -10.428   7.700  66.888  1.00  0.00    -0.318 C  
HETATM   16  H   UNL     1      -8.777   8.037  68.103  1.00  0.00     0.000 HD 
HETATM   17  O   UNL     1     -11.652   7.696  66.789  1.00  0.00     1.166 OA 
HETATM   18  C   UNL     1      -9.525   7.235  65.761  1.00  0.00     0.249 C  
HETATM   19  C   UNL     1      -8.732   8.419  65.241  1.00  0.00    -0.113 C  
HETATM   20  C   UNL     1      -8.705   5.974  66.091  1.00  0.00    -0.146 A  
HETATM   21  C   UNL     1      -9.237   4.978  66.931  1.00  0.00    -0.120 A  
HETATM   22  O   UNL     1      -7.665   8.813  65.699  1.00  0.00    -0.088 OA 
HETATM   23  C   UNL     1      -6.829   4.469  65.633  1.00  0.00    -0.057 A  
HETATM   24  C   UNL     1      -8.566   3.767  67.136  1.00  0.00    -0.112 A  
HETATM   25  C   UNL     1      -7.479   5.694  65.461  1.00  0.00    -0.074 A  
HETATM   26  C   UNL     1      -7.371   3.506  66.474  1.00  0.00    -0.075 A  
BRANCH  19  27
HETATM   27  O   UNL     1      -9.419   9.016  64.189  1.00  0.00     0.369 OA 
BRANCH  27  28
HETATM   28  C   UNL     1      -9.774  10.348  64.439  1.00  0.00    -0.333 A  
HETATM   29  C   UNL     1      -9.569  12.345  65.733  1.00  0.00    -0.164 A  
HETATM   30  C   UNL     1      -9.265  11.012  65.554  1.00  0.00    -0.235 A  
HETATM   31  C   UNL     1     -10.310  13.041  64.788  1.00  0.00    -0.356 A  
HETATM   32  C   UNL     1     -10.787  12.403  63.649  1.00  0.00    -0.509 A  
HETATM   33  C   UNL     1     -10.442  14.480  65.163  1.00  0.00    -0.439 C  
HETATM   34  C   UNL     1      -9.733  14.568  66.528  1.00  0.00    -0.301 C  
HETATM   35  C   UNL     1     -10.520  11.037  63.476  1.00  0.00    -0.365 A  
HETATM   36  C   UNL     1      -9.152  13.195  66.882  1.00  0.00    -0.231 C  
ENDBRANCH  27  28
ENDBRANCH  19  27
ENDBRANCH  12  14
TORSDOF 3
ENDMDL
MODEL      136
REMARK 921   NORMALIZED FREE ENERGY PREDICTED BY IDOCK:   -3.50 KCAL/MOL
REMARK 922        TOTAL FREE ENERGY PREDICTED BY IDOCK:   -5.00 KCAL/MOL
REMARK 923 INTER-LIGAND FREE ENERGY PREDICTED BY IDOCK:   -4.49 KCAL/MOL
REMARK 924 INTRA-LIGAND FREE ENERGY PREDICTED BY IDOCK:   -0.50 KCAL/MOL
REMARK 927      BINDING AFFINITY PREDICTED BY RF-SCORE:    0.00 PKD
ROOT
HETATM    1  C   UNL     1     -10.264  11.385  65.659  1.00  0.00    -0.251 C  
HETATM    2  S   UNL     1     -11.375  10.669  66.936  1.00  0.00     0.404 SA 
HETATM    3  C   UNL     1     -10.659  11.665  68.327  1.00  0.00    -0.205 C  
HETATM    4  C   UNL     1     -11.759  12.001  69.340  1.00  0.00    -0.402 C  
HETATM    5  CA  UNL     1      -9.985  12.884  67.647  1.00  0.00    -0.218 C  
HETATM    6  C   UNL     1      -9.635  10.769  69.054  1.00  0.00    -0.193 C  
HETATM    7  N   UNL     1      -9.468  12.421  66.344  1.00  0.00    -0.241 N  
HETATM    8  C   UNL     1     -10.903  14.092  67.373  1.00  0.00    -0.282 C  
HETATM    9  OXT UNL     1     -11.605  14.646  68.205  1.00  0.00    -0.296 OA 
HETATM   10  O   UNL     1     -10.807  14.569  66.103  1.00  0.00    -0.305 OA 
HETATM   11  C   UNL     1      -8.302  11.697  66.286  1.00  0.00    -0.027 C  
HETATM   12  CA  UNL     1      -8.950  10.621  65.370  1.00  0.00    -0.189 C  
HETATM   13  O   UNL     1      -7.278  11.861  66.909  1.00  0.00    -0.138 OA 
ENDROOT
BRANCH  12  14
HETATM   14  N   UNL     1      -8.907   9.212  65.836  1.00  0.00    -0.163 N  
HETATM   15  C   UNL     1      -7.741   8.653  66.309  1.00  0.00    -0.098 C  
HETATM   16  H   UNL     1      -9.756   8.648  65.806  1.00  0.00     0.000 HD 
HETATM   17  O   UNL     1      -6.681   9.275  66.319  1.00  0.00    -0.072 OA 
HETATM   18  C   UNL     1      -7.834   7.211  66.770  1.00  0.00    -0.103 C  
HETATM   19  C   UNL     1      -8.681   7.146  68.027  1.00  0.00    -0.127 C  
HETATM   20  C   UNL     1      -8.214   6.217  65.656  1.00  0.00    -0.141 A  
HETATM   21  C   UNL     1      -7.788   6.434  64.332  1.00  0.00    -0.115 A  
HETATM   22  O   UNL     1      -9.903   7.052  68.054  1.00  0.00    -0.134 OA 
HETATM   23  C   UNL     1      -9.040   4.025  64.943  1.00  0.00    -0.140 A  
HETATM   24  C   UNL     1      -8.008   5.479  63.334  1.00  0.00    -0.101 A  
HETATM   25  C   UNL     1      -8.857   4.997  65.931  1.00  0.00    -0.134 A  
HETATM   26  C   UNL     1      -8.618   4.269  63.643  1.00  0.00    -0.110 A  
BRANCH  19  27
HETATM   27  O   UNL     1      -7.863   7.253  69.148  1.00  0.00    -0.112 OA 
BRANCH  27  28
HETATM   28  C   UNL     1      -7.858   6.102  69.947  1.00  0.00    -0.109 A  
HETATM   29  C   UNL     1      -6.872   4.024  70.588  1.00  0.00    -0.033 A  
HETATM   30  C   UNL     1      -6.902   5.109  69.738  1.00  0.00    -0.052 A  
HETATM   31  C   UNL     1      -7.727   3.948  71.680  1.00  0.00    -0.061 A  
HETATM   32  C   UNL     1      -8.654   4.954  71.925  1.00  0.00    -0.132 A  
HETATM   33  C   UNL     1      -7.454   2.725  72.492  1.00  0.00    -0.048 C  
HETATM   34  C   UNL     1      -6.345   2.004  71.703  1.00  0.00    -0.015 C  
HETATM   35  C   UNL     1      -8.724   6.042  71.044  1.00  0.00    -0.132 A  
HETATM   36  C   UNL     1      -5.955   2.854  70.488  1.00  0.00    -0.018 C  
ENDBRANCH  27  28
ENDBRANCH  19  27
ENDBRANCH  12  14
TORSDOF 3
ENDMDL
MODEL      137
REMARK 921   NORMALIZED FREE ENERGY PREDICTED BY IDOCK:   -3.45 KCAL/MOL
REMARK 922        TOTAL FREE ENERGY PREDICTED BY IDOCK:   -4.94 KCAL/MOL
REMARK 923 INTER-LIGAND FREE ENERGY PREDICTED BY IDOCK:   -4.34 KCAL/MOL
REMARK 924 INTRA-LIGAND FREE ENERGY PREDICTED BY IDOCK:   -0.60 KCAL/MOL
REMARK 927      BINDING AFFINITY PREDICTED BY RF-SCORE:    0.00 PKD
ROOT
HETATM    1  C   UNL     1      -6.597  10.304  66.918  1.00  0.00    -0.076 C  
HETATM    2  S   UNL     1      -6.860  10.334  68.737  1.00  0.00    -0.060 SA 
HETATM    3  C   UNL     1      -8.014   8.882  68.741  1.00  0.00    -0.102 C  
HETATM    4  C   UNL     1      -7.827   8.078  70.031  1.00  0.00    -0.104 C  
HETATM    5  CA  UNL     1      -7.707   8.117  67.428  1.00  0.00    -0.102 C  
HETATM    6  C   UNL     1      -9.452   9.439  68.762  1.00  0.00    -0.150 C  
HETATM    7  N   UNL     1      -7.328   9.125  66.418  1.00  0.00    -0.091 N  
HETATM    8  C   UNL     1      -6.559   7.090  67.504  1.00  0.00    -0.055 C  
HETATM    9  OXT UNL     1      -6.471   6.191  68.326  1.00  0.00    -0.044 OA 
HETATM   10  O   UNL     1      -5.656   7.212  66.494  1.00  0.00    -0.022 OA 
HETATM   11  C   UNL     1      -8.301   9.873  65.798  1.00  0.00    -0.128 C  
HETATM   12  CA  UNL     1      -7.529  11.197  66.065  1.00  0.00     0.036 C  
HETATM   13  O   UNL     1      -9.385   9.519  65.395  1.00  0.00    -0.229 OA 
ENDROOT
BRANCH  12  14
HETATM   14  N   UNL     1      -8.247  12.268  66.799  1.00  0.00    -0.365 N  
HETATM   15  C   UNL     1      -9.447  12.765  66.342  1.00  0.00    -0.229 C  
HETATM   16  H   UNL     1      -7.845  12.644  67.658  1.00  0.00     0.000 HD 
HETATM   17  O   UNL     1      -9.948  12.382  65.287  1.00  0.00    -0.263 OA 
HETATM   18  C   UNL     1     -10.087  13.846  67.192  1.00  0.00    -0.252 C  
HETATM   19  C   UNL     1     -10.540  13.239  68.507  1.00  0.00    -0.256 C  
HETATM   20  C   UNL     1      -9.251  15.135  67.306  1.00  0.00    -0.208 A  
HETATM   21  C   UNL     1      -8.454  15.563  66.228  1.00  0.00    -0.120 A  
HETATM   22  O   UNL     1      -9.842  13.109  69.506  1.00  0.00     0.686 OA 
HETATM   23  C   UNL     1      -8.736  17.253  68.420  1.00  0.00    -0.261 A  
HETATM   24  C   UNL     1      -7.793  16.797  66.259  1.00  0.00    -0.334 A  
HETATM   25  C   UNL     1      -9.362  16.004  68.406  1.00  0.00    -0.207 A  
HETATM   26  C   UNL     1      -7.948  17.648  67.347  1.00  0.00    -0.217 A  
BRANCH  19  27
HETATM   27  O   UNL     1     -11.861  12.813  68.393  1.00  0.00    -0.314 OA 
BRANCH  27  28
HETATM   28  C   UNL     1     -12.345  12.182  69.546  1.00  0.00     0.030 A  
HETATM   29  C   UNL     1     -12.892  10.195  70.754  1.00  0.00    -0.388 A  
HETATM   30  C   UNL     1     -12.487  10.796  69.580  1.00  0.00    -0.166 A  
HETATM   31  C   UNL     1     -13.088  10.942  71.907  1.00  0.00    -0.537 A  
HETATM   32  C   UNL     1     -12.906  12.320  71.899  1.00  0.00    -0.318 A  
HETATM   33  C   UNL     1     -13.446  10.065  73.061  1.00  0.00     1.210 C  
HETATM   34  C   UNL     1     -13.518   8.657  72.440  1.00  0.00    -0.384 C  
HETATM   35  C   UNL     1     -12.535  12.948  70.701  1.00  0.00    -0.333 A  
HETATM   36  C   UNL     1     -13.138   8.741  70.957  1.00  0.00     0.018 C  
ENDBRANCH  27  28
ENDBRANCH  19  27
ENDBRANCH  12  14
TORSDOF 3
ENDMDL
MODEL      138
REMARK 921   NORMALIZED FREE ENERGY PREDICTED BY IDOCK:   -3.33 KCAL/MOL
REMARK 922        TOTAL FREE ENERGY PREDICTED BY IDOCK:   -4.79 KCAL/MOL
REMARK 923 INTER-LIGAND FREE ENERGY PREDICTED BY IDOCK:   -6.04 KCAL/MOL
REMARK 924 INTRA-LIGAND FREE ENERGY PREDICTED BY IDOCK:    1.25 KCAL/MOL
REMARK 927      BINDING AFFINITY PREDICTED BY RF-SCORE:    0.00 PKD
ROOT
HETATM    1  C   UNL     1     -10.347  12.060  66.715  1.00  0.00    -0.207 C  
HETATM    2  S   UNL     1      -8.522  11.914  66.548  1.00  0.00    -0.034 SA 
HETATM    3  C   UNL     1      -8.280  11.177  68.232  1.00  0.00    -0.134 C  
HETATM    4  C   UNL     1      -7.117  10.180  68.198  1.00  0.00    -0.079 C  
HETATM    5  CA  UNL     1      -9.658  10.579  68.615  1.00  0.00    -0.171 C  
HETATM    6  C   UNL     1      -7.864  12.322  69.179  1.00  0.00     0.318 C  
HETATM    7  N   UNL     1     -10.689  11.448  68.012  1.00  0.00    -0.189 N  
HETATM    8  C   UNL     1      -9.925   9.142  68.123  1.00  0.00    -0.176 C  
HETATM    9  OXT UNL     1      -9.192   8.184  68.316  1.00  0.00    -0.135 OA 
HETATM   10  O   UNL     1     -11.128   8.995  67.506  1.00  0.00    -0.042 OA 
HETATM   11  C   UNL     1     -11.004  12.648  68.603  1.00  0.00    -0.256 C  
HETATM   12  CA  UNL     1     -10.892  13.406  67.249  1.00  0.00    -0.269 C  
HETATM   13  O   UNL     1     -11.128  12.903  69.779  1.00  0.00    -0.015 OA 
ENDROOT
BRANCH  12  14
HETATM   14  N   UNL     1      -9.952  14.553  67.187  1.00  0.00    -0.249 N  
HETATM   15  C   UNL     1      -9.464  15.138  68.334  1.00  0.00    -0.208 C  
HETATM   16  H   UNL     1      -9.663  14.916  66.278  1.00  0.00     0.000 HD 
HETATM   17  O   UNL     1      -9.819  14.771  69.451  1.00  0.00    -0.168 OA 
HETATM   18  C   UNL     1      -8.499  16.291  68.133  1.00  0.00    -0.174 C  
HETATM   19  C   UNL     1      -7.208  15.760  67.541  1.00  0.00    -0.184 C  
HETATM   20  C   UNL     1      -9.113  17.508  67.413  1.00  0.00    -0.237 A  
HETATM   21  C   UNL     1     -10.468  17.838  67.603  1.00  0.00    -0.393 A  
HETATM   22  O   UNL     1      -6.989  15.598  66.346  1.00  0.00     0.205 OA 
HETATM   23  C   UNL     1      -8.862  19.603  66.173  1.00  0.00    -0.367 A  
HETATM   24  C   UNL     1     -11.011  19.011  67.067  1.00  0.00    -0.303 A  
HETATM   25  C   UNL     1      -8.330  18.411  66.673  1.00  0.00    -0.280 A  
HETATM   26  C   UNL     1     -10.204  19.901  66.367  1.00  0.00    -0.617 A  
BRANCH  19  27
HETATM   27  O   UNL     1      -6.319  15.445  68.565  1.00  0.00    -0.092 OA 
BRANCH  27  28
HETATM   28  C   UNL     1      -5.933  16.552  69.331  1.00  0.00    -0.173 A  
HETATM   29  C   UNL     1      -5.678  18.913  69.587  1.00  0.00    -0.249 A  
HETATM   30  C   UNL     1      -5.989  17.835  68.786  1.00  0.00    -0.187 A  
HETATM   31  C   UNL     1      -5.382  18.742  70.932  1.00  0.00    -0.251 A  
HETATM   32  C   UNL     1      -5.366  17.473  71.499  1.00  0.00     0.224 A  
HETATM   33  C   UNL     1      -5.156  20.056  71.604  1.00  0.00    -0.395 C  
HETATM   34  C   UNL     1      -5.282  21.077  70.458  1.00  0.00    -0.201 C  
HETATM   35  C   UNL     1      -5.640  16.364  70.686  1.00  0.00    -0.041 A  
HETATM   36  C   UNL     1      -5.641  20.340  69.163  1.00  0.00    -0.311 C  
ENDBRANCH  27  28
ENDBRANCH  19  27
ENDBRANCH  12  14
TORSDOF 3
ENDMDL
MODEL      139
REMARK 921   NORMALIZED FREE ENERGY PREDICTED BY IDOCK:   -3.25 KCAL/MOL
REMARK 922        TOTAL FREE ENERGY PREDICTED BY IDOCK:   -4.69 KCAL/MOL
REMARK 923 INTER-LIGAND FREE ENERGY PREDICTED BY IDOCK:   -5.57 KCAL/MOL
REMARK 924 INTRA-LIGAND FREE ENERGY PREDICTED BY IDOCK:    0.87 KCAL/MOL
REMARK 927      BINDING AFFINITY PREDICTED BY RF-SCORE:    0.00 PKD
ROOT
HETATM    1  C   UNL     1     -10.266   8.379  66.086  1.00  0.00     0.232 C  
HETATM    2  S   UNL     1     -10.012   9.721  64.856  1.00  0.00     0.226 SA 
HETATM    3  C   UNL     1      -8.165   9.553  64.837  1.00  0.00    -0.140 C  
HETATM    4  C   UNL     1      -7.633   9.860  63.433  1.00  0.00    -0.139 C  
HETATM    5  CA  UNL     1      -7.883   8.120  65.357  1.00  0.00    -0.115 C  
HETATM    6  C   UNL     1      -7.595  10.633  65.780  1.00  0.00    -0.120 C  
HETATM    7  N   UNL     1      -8.933   7.805  66.347  1.00  0.00    -0.156 N  
HETATM    8  C   UNL     1      -7.906   7.004  64.294  1.00  0.00    -0.111 C  
HETATM    9  OXT UNL     1      -7.262   7.007  63.255  1.00  0.00    -0.063 OA 
HETATM   10  O   UNL     1      -8.662   5.931  64.650  1.00  0.00    -0.032 OA 
HETATM   11  C   UNL     1      -8.854   8.322  67.617  1.00  0.00    -0.136 C  
HETATM   12  CA  UNL     1     -10.333   8.801  67.573  1.00  0.00    -0.268 C  
HETATM   13  O   UNL     1      -7.881   8.445  68.326  1.00  0.00    -0.107 OA 
ENDROOT
BRANCH  12  14
HETATM   14  N   UNL     1     -10.591  10.241  67.825  1.00  0.00    -0.230 N  
HETATM   15  C   UNL     1      -9.691  11.016  68.521  1.00  0.00    -0.189 C  
HETATM   16  H   UNL     1     -11.451  10.665  67.475  1.00  0.00     0.000 HD 
HETATM   17  O   UNL     1      -8.666  10.542  69.005  1.00  0.00    -0.146 OA 
HETATM   18  C   UNL     1     -10.065  12.475  68.696  1.00  0.00    -0.139 C  
HETATM   19  C   UNL     1     -10.012  13.166  67.347  1.00  0.00    -0.229 C  
HETATM   20  C   UNL     1     -11.352  12.702  69.513  1.00  0.00    -0.227 A  
HETATM   21  C   UNL     1     -11.692  11.829  70.563  1.00  0.00    -0.146 A  
HETATM   22  O   UNL     1     -10.930  13.208  66.535  1.00  0.00    -0.281 OA 
HETATM   23  C   UNL     1     -13.209  14.135  70.213  1.00  0.00     0.237 A  
HETATM   24  C   UNL     1     -12.782  12.091  71.400  1.00  0.00    -0.380 A  
HETATM   25  C   UNL     1     -12.146  13.851  69.351  1.00  0.00    -0.384 A  
HETATM   26  C   UNL     1     -13.529  13.252  71.236  1.00  0.00    -0.048 A  
BRANCH  19  27
HETATM   27  O   UNL     1      -8.746  13.711  67.150  1.00  0.00    -0.210 OA 
BRANCH  27  28
HETATM   28  C   UNL     1      -8.739  15.111  67.126  1.00  0.00    -0.216 A  
HETATM   29  C   UNL     1      -7.879  17.197  67.910  1.00  0.00    -0.196 A  
HETATM   30  C   UNL     1      -7.925  15.822  68.008  1.00  0.00    -0.141 A  
HETATM   31  C   UNL     1      -8.571  17.865  66.910  1.00  0.00    -0.259 A  
HETATM   32  C   UNL     1      -9.350  17.165  65.996  1.00  0.00    -0.156 A  
HETATM   33  C   UNL     1      -8.305  19.334  66.962  1.00  0.00    -0.300 C  
HETATM   34  C   UNL     1      -7.398  19.496  68.195  1.00  0.00    -0.334 C  
HETATM   35  C   UNL     1      -9.439  15.770  66.110  1.00  0.00    -0.375 A  
HETATM   36  C   UNL     1      -7.106  18.114  68.792  1.00  0.00    -0.287 C  
ENDBRANCH  27  28
ENDBRANCH  19  27
ENDBRANCH  12  14
TORSDOF 3
ENDMDL
MODEL      140
REMARK 921   NORMALIZED FREE ENERGY PREDICTED BY IDOCK:   -3.22 KCAL/MOL
REMARK 922        TOTAL FREE ENERGY PREDICTED BY IDOCK:   -4.67 KCAL/MOL
REMARK 923 INTER-LIGAND FREE ENERGY PREDICTED BY IDOCK:   -3.71 KCAL/MOL
REMARK 924 INTRA-LIGAND FREE ENERGY PREDICTED BY IDOCK:   -0.96 KCAL/MOL
REMARK 927      BINDING AFFINITY PREDICTED BY RF-SCORE:    0.00 PKD
ROOT
HETATM    1  C   UNL     1      -8.814   7.791  69.610  1.00  0.00    -0.139 C  
HETATM    2  S   UNL     1      -8.907   9.446  70.404  1.00  0.00    -0.241 SA 
HETATM    3  C   UNL     1     -10.713   9.675  70.053  1.00  0.00    -0.259 C  
HETATM    4  C   UNL     1     -11.365  10.465  71.193  1.00  0.00    -0.102 C  
HETATM    5  CA  UNL     1     -11.267   8.244  69.833  1.00  0.00    -0.028 C  
HETATM    6  C   UNL     1     -10.828  10.540  68.781  1.00  0.00    -0.269 C  
HETATM    7  N   UNL     1     -10.191   7.455  69.203  1.00  0.00    -0.191 N  
HETATM    8  C   UNL     1     -11.702   7.490  71.107  1.00  0.00    -0.291 C  
HETATM    9  OXT UNL     1     -12.480   7.917  71.947  1.00  0.00    -0.304 OA 
HETATM   10  O   UNL     1     -11.201   6.229  71.188  1.00  0.00    -0.284 OA 
HETATM   11  C   UNL     1      -9.930   7.600  67.861  1.00  0.00    -0.169 C  
HETATM   12  CA  UNL     1      -8.404   7.756  68.118  1.00  0.00    -0.124 C  
HETATM   13  O   UNL     1     -10.714   7.717  66.947  1.00  0.00    -0.345 OA 
ENDROOT
BRANCH  12  14
HETATM   14  N   UNL     1      -7.748   8.983  67.600  1.00  0.00    -0.096 N  
HETATM   15  C   UNL     1      -6.471   8.945  67.087  1.00  0.00    -0.061 C  
HETATM   16  H   UNL     1      -8.252   9.869  67.624  1.00  0.00     0.000 HD 
HETATM   17  O   UNL     1      -5.804   7.913  67.081  1.00  0.00    -0.039 OA 
HETATM   18  C   UNL     1      -5.921  10.263  66.576  1.00  0.00    -0.065 C  
HETATM   19  C   UNL     1      -6.689  10.671  65.333  1.00  0.00    -0.019 C  
HETATM   20  C   UNL     1      -5.778  11.350  67.659  1.00  0.00    -0.050 A  
HETATM   21  C   UNL     1      -5.454  10.996  68.982  1.00  0.00    -0.040 A  
HETATM   22  O   UNL     1      -7.738  11.305  65.324  1.00  0.00     0.299 OA 
HETATM   23  C   UNL     1      -5.509  13.695  68.306  1.00  0.00    -0.107 A  
HETATM   24  C   UNL     1      -5.189  11.972  69.949  1.00  0.00    -0.081 A  
HETATM   25  C   UNL     1      -5.814  12.721  67.351  1.00  0.00    -0.094 A  
HETATM   26  C   UNL     1      -5.200  13.320  69.607  1.00  0.00    -0.086 A  
BRANCH  19  27
HETATM   27  O   UNL     1      -6.042  10.181  64.202  1.00  0.00    -0.124 OA 
BRANCH  27  28
HETATM   28  C   UNL     1      -6.453   8.892  63.839  1.00  0.00    -0.087 A  
HETATM   29  C   UNL     1      -5.981   6.570  63.533  1.00  0.00    -0.030 A  
HETATM   30  C   UNL     1      -5.534   7.843  63.818  1.00  0.00    -0.048 A  
HETATM   31  C   UNL     1      -7.331   6.315  63.339  1.00  0.00    -0.064 A  
HETATM   32  C   UNL     1      -8.264   7.343  63.402  1.00  0.00     0.071 A  
HETATM   33  C   UNL     1      -7.577   4.858  63.123  1.00  0.00    -0.063 C  
HETATM   34  C   UNL     1      -6.164   4.244  63.137  1.00  0.00    -0.018 C  
HETATM   35  C   UNL     1      -7.817   8.649  63.649  1.00  0.00    -0.148 A  
HETATM   36  C   UNL     1      -5.138   5.347  63.424  1.00  0.00    -0.009 C  
ENDBRANCH  27  28
ENDBRANCH  19  27
ENDBRANCH  12  14
TORSDOF 3
ENDMDL
MODEL      141
REMARK 921   NORMALIZED FREE ENERGY PREDICTED BY IDOCK:   -3.15 KCAL/MOL
REMARK 922        TOTAL FREE ENERGY PREDICTED BY IDOCK:   -4.58 KCAL/MOL
REMARK 923 INTER-LIGAND FREE ENERGY PREDICTED BY IDOCK:   -5.03 KCAL/MOL
REMARK 924 INTRA-LIGAND FREE ENERGY PREDICTED BY IDOCK:    0.44 KCAL/MOL
REMARK 927      BINDING AFFINITY PREDICTED BY RF-SCORE:    0.00 PKD
ROOT
HETATM    1  C   UNL     1     -11.788  11.622  64.740  1.00  0.00     0.008 C  
HETATM    2  S   UNL     1     -11.838  12.249  66.467  1.00  0.00    -0.203 SA 
HETATM    3  C   UNL     1     -10.612  13.608  66.164  1.00  0.00    -0.291 C  
HETATM    4  C   UNL     1     -10.963  14.822  67.030  1.00  0.00    -0.324 C  
HETATM    5  CA  UNL     1     -10.644  13.849  64.634  1.00  0.00    -0.412 C  
HETATM    6  C   UNL     1      -9.236  13.099  66.640  1.00  0.00    -0.220 C  
HETATM    7  N   UNL     1     -10.910  12.544  63.996  1.00  0.00    -0.373 N  
HETATM    8  C   UNL     1     -11.722  14.832  64.132  1.00  0.00    -0.147 C  
HETATM    9  OXT UNL     1     -11.890  15.967  64.552  1.00  0.00    -0.270 OA 
HETATM   10  O   UNL     1     -12.447  14.354  63.086  1.00  0.00    -0.482 OA 
HETATM   11  C   UNL     1      -9.896  11.625  63.867  1.00  0.00    -0.281 C  
HETATM   12  CA  UNL     1     -10.784  10.484  64.441  1.00  0.00     0.319 C  
HETATM   13  O   UNL     1      -8.739  11.812  63.566  1.00  0.00     0.374 OA 
ENDROOT
BRANCH  12  14
HETATM   14  N   UNL     1     -10.269   9.750  65.624  1.00  0.00    -0.218 N  
HETATM   15  C   UNL     1      -8.922   9.514  65.786  1.00  0.00    -0.179 C  
HETATM   16  H   UNL     1     -10.924   9.414  66.330  1.00  0.00     0.000 HD 
HETATM   17  O   UNL     1      -8.098   9.854  64.941  1.00  0.00    -0.131 OA 
HETATM   18  C   UNL     1      -8.524   8.768  67.045  1.00  0.00    -0.109 C  
HETATM   19  C   UNL     1      -8.779   9.656  68.249  1.00  0.00    -0.120 C  
HETATM   20  C   UNL     1      -9.093   7.339  67.137  1.00  0.00    -0.144 A  
HETATM   21  C   UNL     1      -9.275   6.569  65.973  1.00  0.00    -0.077 A  
HETATM   22  O   UNL     1      -9.844   9.749  68.848  1.00  0.00    -0.162 OA 
HETATM   23  C   UNL     1      -9.656   5.346  68.443  1.00  0.00    -0.166 A  
HETATM   24  C   UNL     1      -9.663   5.227  66.044  1.00  0.00    -0.159 A  
HETATM   25  C   UNL     1      -9.308   6.698  68.371  1.00  0.00    -0.123 A  
HETATM   26  C   UNL     1      -9.837   4.611  67.279  1.00  0.00    -0.218 A  
BRANCH  19  27
HETATM   27  O   UNL     1      -7.630  10.383  68.545  1.00  0.00    -0.088 OA 
BRANCH  27  28
HETATM   28  C   UNL     1      -7.073  10.066  69.790  1.00  0.00    -0.119 A  
HETATM   29  C   UNL     1      -7.129   8.838  71.838  1.00  0.00    -0.057 A  
HETATM   30  C   UNL     1      -7.736   9.193  70.652  1.00  0.00    -0.152 A  
HETATM   31  C   UNL     1      -5.849   9.279  72.145  1.00  0.00    -0.014 A  
HETATM   32  C   UNL     1      -5.159  10.114  71.274  1.00  0.00    -0.073 A  
HETATM   33  C   UNL     1      -5.378   8.702  73.439  1.00  0.00    -0.075 C  
HETATM   34  C   UNL     1      -6.587   7.888  73.937  1.00  0.00    -0.115 C  
HETATM   35  C   UNL     1      -5.782  10.516  70.084  1.00  0.00    -0.071 A  
HETATM   36  C   UNL     1      -7.706   7.958  72.892  1.00  0.00    -0.158 C  
ENDBRANCH  27  28
ENDBRANCH  19  27
ENDBRANCH  12  14
TORSDOF 3
ENDMDL
MODEL      142
REMARK 921   NORMALIZED FREE ENERGY PREDICTED BY IDOCK:   -2.93 KCAL/MOL
REMARK 922        TOTAL FREE ENERGY PREDICTED BY IDOCK:   -4.32 KCAL/MOL
REMARK 923 INTER-LIGAND FREE ENERGY PREDICTED BY IDOCK:   -6.37 KCAL/MOL
REMARK 924 INTRA-LIGAND FREE ENERGY PREDICTED BY IDOCK:    2.05 KCAL/MOL
REMARK 927      BINDING AFFINITY PREDICTED BY RF-SCORE:    0.00 PKD
ROOT
HETATM    1  C   UNL     1      -8.733  17.389  69.194  1.00  0.00     0.063 C  
HETATM    2  S   UNL     1      -7.072  16.647  68.931  1.00  0.00    -0.214 SA 
HETATM    3  C   UNL     1      -6.642  17.753  67.506  1.00  0.00    -0.164 C  
HETATM    4  C   UNL     1      -5.139  18.050  67.517  1.00  0.00    -0.140 C  
HETATM    5  CA  UNL     1      -7.566  18.988  67.659  1.00  0.00    -0.237 C  
HETATM    6  C   UNL     1      -6.937  16.969  66.211  1.00  0.00    -0.205 C  
HETATM    7  N   UNL     1      -8.836  18.510  68.241  1.00  0.00    -0.302 N  
HETATM    8  C   UNL     1      -7.038  20.112  68.574  1.00  0.00    -0.229 C  
HETATM    9  OXT UNL     1      -5.944  20.648  68.471  1.00  0.00    -0.296 OA 
HETATM   10  O   UNL     1      -7.948  20.540  69.489  1.00  0.00     0.696 OA 
HETATM   11  C   UNL     1      -9.758  17.873  67.445  1.00  0.00    -0.288 C  
HETATM   12  CA  UNL     1      -9.921  16.713  68.468  1.00  0.00    -0.261 C  
HETATM   13  O   UNL     1     -10.094  18.140  66.314  1.00  0.00    -0.358 OA 
ENDROOT
BRANCH  12  14
HETATM   14  N   UNL     1      -9.677  15.333  67.978  1.00  0.00    -0.210 N  
HETATM   15  C   UNL     1      -9.860  14.242  68.799  1.00  0.00    -0.189 C  
HETATM   16  H   UNL     1      -9.368  15.190  67.017  1.00  0.00     0.000 HD 
HETATM   17  O   UNL     1     -10.183  14.365  69.978  1.00  0.00     0.266 OA 
HETATM   18  C   UNL     1      -9.593  12.887  68.172  1.00  0.00    -0.223 C  
HETATM   19  C   UNL     1     -10.654  12.607  67.126  1.00  0.00    -0.236 C  
HETATM   20  C   UNL     1      -8.135  12.679  67.718  1.00  0.00    -0.166 A  
HETATM   21  C   UNL     1      -7.076  13.269  68.433  1.00  0.00    -0.107 A  
HETATM   22  O   UNL     1     -10.606  12.964  65.954  1.00  0.00    -0.263 OA 
HETATM   23  C   UNL     1      -6.463  11.474  66.397  1.00  0.00     0.032 A  
HETATM   24  C   UNL     1      -5.742  12.986  68.118  1.00  0.00    -0.093 A  
HETATM   25  C   UNL     1      -7.795  11.788  66.685  1.00  0.00    -0.043 A  
HETATM   26  C   UNL     1      -5.437  12.076  67.113  1.00  0.00    -0.121 A  
BRANCH  19  27
HETATM   27  O   UNL     1     -11.714  11.917  67.708  1.00  0.00    -0.439 OA 
BRANCH  27  28
HETATM   28  C   UNL     1     -12.058  12.391  68.980  1.00  0.00    -0.136 A  
HETATM   29  C   UNL     1     -13.008  14.075  70.382  1.00  0.00    -0.124 A  
HETATM   30  C   UNL     1     -12.607  13.664  69.128  1.00  0.00     0.344 A  
HETATM   31  C   UNL     1     -12.936  13.218  71.471  1.00  0.00    -0.426 A  
HETATM   32  C   UNL     1     -12.432  11.930  71.329  1.00  0.00    -0.319 A  
HETATM   33  C   UNL     1     -13.497  13.859  72.698  1.00  0.00    -0.652 C  
HETATM   34  C   UNL     1     -13.865  15.279  72.230  1.00  0.00    -0.632 C  
HETATM   35  C   UNL     1     -11.982  11.514  70.067  1.00  0.00    -0.435 A  
HETATM   36  C   UNL     1     -13.570  15.409  70.731  1.00  0.00    -0.263 C  
ENDBRANCH  27  28
ENDBRANCH  19  27
ENDBRANCH  12  14
TORSDOF 3
ENDMDL
MODEL      143
REMARK 921   NORMALIZED FREE ENERGY PREDICTED BY IDOCK:   -2.88 KCAL/MOL
REMARK 922        TOTAL FREE ENERGY PREDICTED BY IDOCK:   -4.26 KCAL/MOL
REMARK 923 INTER-LIGAND FREE ENERGY PREDICTED BY IDOCK:   -4.89 KCAL/MOL
REMARK 924 INTRA-LIGAND FREE ENERGY PREDICTED BY IDOCK:    0.63 KCAL/MOL
REMARK 927      BINDING AFFINITY PREDICTED BY RF-SCORE:    0.00 PKD
ROOT
HETATM    1  C   UNL     1     -10.305   9.582  66.495  1.00  0.00    -0.193 C  
HETATM    2  S   UNL     1      -8.477   9.557  66.295  1.00  0.00    -0.116 SA 
HETATM    3  C   UNL     1      -8.169   8.664  67.892  1.00  0.00    -0.115 C  
HETATM    4  C   UNL     1      -6.954   7.743  67.742  1.00  0.00    -0.081 C  
HETATM    5  CA  UNL     1      -9.506   7.954  68.223  1.00  0.00    -0.144 C  
HETATM    6  C   UNL     1      -7.802   9.726  68.948  1.00  0.00    -0.087 C  
HETATM    7  N   UNL     1     -10.592   8.821  67.724  1.00  0.00    -0.224 N  
HETATM    8  C   UNL     1      -9.702   6.563  67.587  1.00  0.00    -0.123 C  
HETATM    9  OXT UNL     1      -8.915   5.632  67.672  1.00  0.00    -0.110 OA 
HETATM   10  O   UNL     1     -10.905   6.413  66.969  1.00  0.00    -0.325 OA 
HETATM   11  C   UNL     1     -10.964   9.934  68.439  1.00  0.00    -0.187 C  
HETATM   12  CA  UNL     1     -10.914  10.833  67.171  1.00  0.00    -0.260 C  
HETATM   13  O   UNL     1     -11.083  10.059  69.637  1.00  0.00    -0.242 OA 
ENDROOT
BRANCH  12  14
HETATM   14  N   UNL     1     -10.040  12.031  67.219  1.00  0.00    -0.194 N  
HETATM   15  C   UNL     1      -9.878  12.749  68.383  1.00  0.00    -0.196 C  
HETATM   16  H   UNL     1      -9.550  12.329  66.375  1.00  0.00     0.000 HD 
HETATM   17  O   UNL     1     -10.483  12.461  69.412  1.00  0.00     0.108 OA 
HETATM   18  C   UNL     1      -8.945  13.943  68.303  1.00  0.00    -0.187 C  
HETATM   19  C   UNL     1      -7.525  13.450  68.102  1.00  0.00    -0.133 C  
HETATM   20  C   UNL     1      -9.413  15.045  67.334  1.00  0.00    -0.202 A  
HETATM   21  C   UNL     1     -10.786  15.297  67.153  1.00  0.00    -0.322 A  
HETATM   22  O   UNL     1      -7.010  13.195  67.019  1.00  0.00    -0.019 OA 
HETATM   23  C   UNL     1      -8.954  17.031  65.979  1.00  0.00    -0.168 A  
HETATM   24  C   UNL     1     -11.230  16.377  66.382  1.00  0.00     0.341 A  
HETATM   25  C   UNL     1      -8.511  15.929  66.715  1.00  0.00    -0.297 A  
HETATM   26  C   UNL     1     -10.314  17.254  65.809  1.00  0.00    -0.245 A  
BRANCH  19  27
HETATM   27  O   UNL     1      -6.906  13.290  69.339  1.00  0.00    -0.075 OA 
BRANCH  27  28
HETATM   28  C   UNL     1      -6.372  14.477  69.854  1.00  0.00    -0.157 A  
HETATM   29  C   UNL     1      -6.231  16.862  69.858  1.00  0.00    -0.139 A  
HETATM   30  C   UNL     1      -6.709  15.704  69.283  1.00  0.00    -0.158 A  
HETATM   31  C   UNL     1      -5.486  16.822  71.029  1.00  0.00     0.055 A  
HETATM   32  C   UNL     1      -5.180  15.609  71.634  1.00  0.00     0.030 A  
HETATM   33  C   UNL     1      -5.150  18.199  71.498  1.00  0.00    -0.070 C  
HETATM   34  C   UNL     1      -5.735  19.110  70.404  1.00  0.00    -0.242 C  
HETATM   35  C   UNL     1      -5.625  14.421  71.036  1.00  0.00    -0.181 A  
HETATM   36  C   UNL     1      -6.451  18.247  69.359  1.00  0.00    -0.239 C  
ENDBRANCH  27  28
ENDBRANCH  19  27
ENDBRANCH  12  14
TORSDOF 3
ENDMDL
MODEL      144
REMARK 921   NORMALIZED FREE ENERGY PREDICTED BY IDOCK:   -2.74 KCAL/MOL
REMARK 922        TOTAL FREE ENERGY PREDICTED BY IDOCK:   -4.10 KCAL/MOL
REMARK 923 INTER-LIGAND FREE ENERGY PREDICTED BY IDOCK:   -4.33 KCAL/MOL
REMARK 924 INTRA-LIGAND FREE ENERGY PREDICTED BY IDOCK:    0.23 KCAL/MOL
REMARK 927      BINDING AFFINITY PREDICTED BY RF-SCORE:    0.00 PKD
ROOT
HETATM    1  C   UNL     1      -7.757  10.242  70.779  1.00  0.00     1.039 C  
HETATM    2  S   UNL     1      -9.163   9.057  70.765  1.00  0.00    -0.262 SA 
HETATM    3  C   UNL     1      -8.086   7.554  70.628  1.00  0.00    -0.109 C  
HETATM    4  C   UNL     1      -8.728   6.388  71.386  1.00  0.00    -0.131 C  
HETATM    5  CA  UNL     1      -6.697   8.003  71.149  1.00  0.00    -0.042 C  
HETATM    6  C   UNL     1      -8.043   7.154  69.139  1.00  0.00    -0.121 C  
HETATM    7  N   UNL     1      -6.532   9.422  70.775  1.00  0.00    -0.077 N  
HETATM    8  C   UNL     1      -6.488   7.903  72.673  1.00  0.00    -0.070 C  
HETATM    9  OXT UNL     1      -6.678   6.901  73.346  1.00  0.00    -0.067 OA 
HETATM   10  O   UNL     1      -5.973   9.034  73.226  1.00  0.00    -0.227 OA 
HETATM   11  C   UNL     1      -6.198   9.757  69.485  1.00  0.00    -0.044 C  
HETATM   12  CA  UNL     1      -7.326  10.825  69.412  1.00  0.00    -0.128 C  
HETATM   13  O   UNL     1      -5.409   9.217  68.743  1.00  0.00    -0.037 OA 
ENDROOT
BRANCH  12  14
HETATM   14  N   UNL     1      -8.315  10.697  68.313  1.00  0.00    -0.117 N  
HETATM   15  C   UNL     1      -7.917  10.665  66.996  1.00  0.00    -0.121 C  
HETATM   16  H   UNL     1      -9.309  10.633  68.538  1.00  0.00     0.000 HD 
HETATM   17  O   UNL     1      -6.739  10.788  66.671  1.00  0.00    -0.102 OA 
HETATM   18  C   UNL     1      -9.025  10.515  65.970  1.00  0.00    -0.185 C  
HETATM   19  C   UNL     1      -9.631   9.129  66.094  1.00  0.00    -0.266 C  
HETATM   20  C   UNL     1     -10.029  11.683  65.952  1.00  0.00    -0.264 A  
HETATM   21  C   UNL     1      -9.601  12.993  66.239  1.00  0.00    -0.243 A  
HETATM   22  O   UNL     1     -10.535   8.817  66.860  1.00  0.00    -0.285 OA 
HETATM   23  C   UNL     1     -12.204  12.618  65.329  1.00  0.00    -0.532 A  
HETATM   24  C   UNL     1     -10.465  14.085  66.098  1.00  0.00    -0.297 A  
HETATM   25  C   UNL     1     -11.354  11.523  65.509  1.00  0.00    -0.151 A  
HETATM   26  C   UNL     1     -11.760  13.900  65.627  1.00  0.00    -0.362 A  
BRANCH  19  27
HETATM   27  O   UNL     1      -8.975   8.254  65.233  1.00  0.00    -0.095 OA 
BRANCH  27  28
HETATM   28  C   UNL     1      -9.128   6.907  65.583  1.00  0.00     0.136 A  
HETATM   29  C   UNL     1      -8.322   4.658  65.594  1.00  0.00    -0.116 A  
HETATM   30  C   UNL     1      -8.188   5.964  65.170  1.00  0.00    -0.141 A  
HETATM   31  C   UNL     1      -9.330   4.294  66.476  1.00  0.00    -0.174 A  
HETATM   32  C   UNL     1     -10.247   5.234  66.932  1.00  0.00    -0.279 A  
HETATM   33  C   UNL     1      -9.223   2.852  66.848  1.00  0.00    -0.161 C  
HETATM   34  C   UNL     1      -8.036   2.346  66.007  1.00  0.00    -0.085 C  
HETATM   35  C   UNL     1     -10.147   6.556  66.475  1.00  0.00    -0.144 A  
HETATM   36  C   UNL     1      -7.442   3.517  65.216  1.00  0.00    -0.077 C  
ENDBRANCH  27  28
ENDBRANCH  19  27
ENDBRANCH  12  14
TORSDOF 3
ENDMDL
MODEL      145
REMARK 921   NORMALIZED FREE ENERGY PREDICTED BY IDOCK:   -2.71 KCAL/MOL
REMARK 922        TOTAL FREE ENERGY PREDICTED BY IDOCK:   -4.06 KCAL/MOL
REMARK 923 INTER-LIGAND FREE ENERGY PREDICTED BY IDOCK:   -3.26 KCAL/MOL
REMARK 924 INTRA-LIGAND FREE ENERGY PREDICTED BY IDOCK:   -0.80 KCAL/MOL
REMARK 927      BINDING AFFINITY PREDICTED BY RF-SCORE:    0.00 PKD
ROOT
HETATM    1  C   UNL     1     -10.603   8.635  68.103  1.00  0.00    -0.133 C  
HETATM    2  S   UNL     1      -8.795   8.755  67.794  1.00  0.00    -0.136 SA 
HETATM    3  C   UNL     1      -8.330   7.688  69.238  1.00  0.00    -0.134 C  
HETATM    4  C   UNL     1      -7.077   6.875  68.897  1.00  0.00    -0.089 C  
HETATM    5  CA  UNL     1      -9.599   6.855  69.551  1.00  0.00    -0.148 C  
HETATM    6  C   UNL     1      -7.954   8.628  70.402  1.00  0.00    -0.101 C  
HETATM    7  N   UNL     1     -10.764   7.706  69.236  1.00  0.00    -0.200 N  
HETATM    8  C   UNL     1      -9.757   5.547  68.751  1.00  0.00    -0.143 C  
HETATM    9  OXT UNL     1      -8.914   4.667  68.665  1.00  0.00    -0.101 OA 
HETATM   10  O   UNL     1     -10.988   5.399  68.191  1.00  0.00    -0.005 OA 
HETATM   11  C   UNL     1     -11.149   8.692  70.113  1.00  0.00    -0.192 C  
HETATM   12  CA  UNL     1     -11.236   9.747  68.973  1.00  0.00    -0.038 C  
HETATM   13  O   UNL     1     -11.195   8.655  71.321  1.00  0.00    -0.249 OA 
ENDROOT
BRANCH  12  14
HETATM   14  N   UNL     1     -10.431  10.984  69.127  1.00  0.00    -0.269 N  
HETATM   15  C   UNL     1     -10.266  11.862  68.079  1.00  0.00    -0.192 C  
HETATM   16  H   UNL     1      -9.991  11.187  70.025  1.00  0.00     0.000 HD 
HETATM   17  O   UNL     1     -10.733  11.639  66.965  1.00  0.00    -0.229 OA 
HETATM   18  C   UNL     1      -9.434  13.097  68.371  1.00  0.00    -0.166 C  
HETATM   19  C   UNL     1     -10.190  13.986  69.341  1.00  0.00     0.199 C  
HETATM   20  C   UNL     1      -7.970  12.796  68.744  1.00  0.00     0.069 A  
HETATM   21  C   UNL     1      -7.300  11.699  68.169  1.00  0.00    -0.092 A  
HETATM   22  O   UNL     1     -10.160  13.890  70.562  1.00  0.00     1.794 OA 
HETATM   23  C   UNL     1      -5.834  13.480  69.726  1.00  0.00    -0.117 A  
HETATM   24  C   UNL     1      -5.935  11.486  68.391  1.00  0.00    -0.045 A  
HETATM   25  C   UNL     1      -7.206  13.670  69.538  1.00  0.00     0.238 A  
HETATM   26  C   UNL     1      -5.199  12.385  69.154  1.00  0.00    -0.067 A  
BRANCH  19  27
HETATM   27  O   UNL     1     -10.958  14.905  68.630  1.00  0.00    -0.240 OA 
BRANCH  27  28
HETATM   28  C   UNL     1     -10.275  16.090  68.330  1.00  0.00    -0.236 A  
HETATM   29  C   UNL     1      -8.670  17.291  67.031  1.00  0.00    -0.248 A  
HETATM   30  C   UNL     1      -9.272  16.095  67.362  1.00  0.00    -0.213 A  
HETATM   31  C   UNL     1      -9.097  18.485  67.595  1.00  0.00    -0.293 A  
HETATM   32  C   UNL     1     -10.127  18.500  68.529  1.00  0.00    -0.414 A  
HETATM   33  C   UNL     1      -8.350  19.646  67.027  1.00  0.00    -0.328 C  
HETATM   34  C   UNL     1      -7.334  18.992  66.071  1.00  0.00    -0.292 C  
HETATM   35  C   UNL     1     -10.719  17.285  68.905  1.00  0.00    -0.197 A  
HETATM   36  C   UNL     1      -7.557  17.475  66.059  1.00  0.00    -0.256 C  
ENDBRANCH  27  28
ENDBRANCH  19  27
ENDBRANCH  12  14
TORSDOF 3
ENDMDL
MODEL      146
REMARK 921   NORMALIZED FREE ENERGY PREDICTED BY IDOCK:   -2.69 KCAL/MOL
REMARK 922        TOTAL FREE ENERGY PREDICTED BY IDOCK:   -4.04 KCAL/MOL
REMARK 923 INTER-LIGAND FREE ENERGY PREDICTED BY IDOCK:   -5.89 KCAL/MOL
REMARK 924 INTRA-LIGAND FREE ENERGY PREDICTED BY IDOCK:    1.85 KCAL/MOL
REMARK 927      BINDING AFFINITY PREDICTED BY RF-SCORE:    0.00 PKD
ROOT
HETATM    1  C   UNL     1      -9.910   4.514  66.716  1.00  0.00    -0.221 C  
HETATM    2  S   UNL     1     -10.129   6.299  66.336  1.00  0.00     0.034 SA 
HETATM    3  C   UNL     1      -8.393   6.533  65.728  1.00  0.00    -0.143 C  
HETATM    4  C   UNL     1      -8.377   7.569  64.599  1.00  0.00     0.014 C  
HETATM    5  CA  UNL     1      -7.907   5.114  65.337  1.00  0.00    -0.089 C  
HETATM    6  C   UNL     1      -7.573   7.124  66.893  1.00  0.00    -0.101 C  
HETATM    7  N   UNL     1      -8.549   4.165  66.267  1.00  0.00    -0.112 N  
HETATM    8  C   UNL     1      -8.251   4.658  63.905  1.00  0.00    -0.111 C  
HETATM    9  OXT UNL     1      -7.997   5.282  62.886  1.00  0.00    -0.075 OA 
HETATM   10  O   UNL     1      -8.808   3.418  63.850  1.00  0.00    -0.093 OA 
HETATM   11  C   UNL     1      -8.063   4.020  67.544  1.00  0.00    -0.091 C  
HETATM   12  CA  UNL     1      -9.485   4.156  68.160  1.00  0.00    -0.158 C  
HETATM   13  O   UNL     1      -6.912   3.983  67.916  1.00  0.00    -0.053 OA 
ENDROOT
BRANCH  12  14
HETATM   14  N   UNL     1      -9.688   5.219  69.175  1.00  0.00    -0.154 N  
HETATM   15  C   UNL     1      -8.639   5.993  69.618  1.00  0.00    -0.126 C  
HETATM   16  H   UNL     1     -10.623   5.380  69.553  1.00  0.00     0.000 HD 
HETATM   17  O   UNL     1      -7.488   5.806  69.232  1.00  0.00    -0.079 OA 
HETATM   18  C   UNL     1      -8.983   7.055  70.645  1.00  0.00    -0.154 C  
HETATM   19  C   UNL     1      -9.835   8.124  69.986  1.00  0.00    -0.182 C  
HETATM   20  C   UNL     1      -9.525   6.495  71.974  1.00  0.00    -0.151 A  
HETATM   21  C   UNL     1      -9.062   5.260  72.467  1.00  0.00    -0.144 A  
HETATM   22  O   UNL     1     -11.054   8.087  69.871  1.00  0.00    -0.215 OA 
HETATM   23  C   UNL     1     -10.715   6.800  74.091  1.00  0.00     0.149 A  
HETATM   24  C   UNL     1      -9.439   4.797  73.732  1.00  0.00    -0.128 A  
HETATM   25  C   UNL     1     -10.371   7.243  72.811  1.00  0.00    -0.282 A  
HETATM   26  C   UNL     1     -10.251   5.574  74.550  1.00  0.00    -0.291 A  
BRANCH  19  27
HETATM   27  O   UNL     1      -9.016   9.136  69.493  1.00  0.00    -0.139 OA 
BRANCH  27  28
HETATM   28  C   UNL     1      -9.689  10.049  68.672  1.00  0.00    -0.159 A  
HETATM   29  C   UNL     1     -10.171  10.931  66.505  1.00  0.00    -0.282 A  
HETATM   30  C   UNL     1      -9.438  10.076  67.301  1.00  0.00    -0.179 A  
HETATM   31  C   UNL     1     -11.193  11.704  67.040  1.00  0.00    -0.376 A  
HETATM   32  C   UNL     1     -11.484  11.653  68.398  1.00  0.00    -0.360 A  
HETATM   33  C   UNL     1     -11.889  12.485  65.975  1.00  0.00    -0.478 C  
HETATM   34  C   UNL     1     -11.100  12.143  64.698  1.00  0.00    -0.366 C  
HETATM   35  C   UNL     1     -10.718  10.819  69.225  1.00  0.00    -0.268 A  
HETATM   36  C   UNL     1     -10.007  11.123  65.038  1.00  0.00    -0.325 C  
ENDBRANCH  27  28
ENDBRANCH  19  27
ENDBRANCH  12  14
TORSDOF 3
ENDMDL
MODEL      147
REMARK 921   NORMALIZED FREE ENERGY PREDICTED BY IDOCK:   -2.52 KCAL/MOL
REMARK 922        TOTAL FREE ENERGY PREDICTED BY IDOCK:   -3.84 KCAL/MOL
REMARK 923 INTER-LIGAND FREE ENERGY PREDICTED BY IDOCK:   -4.88 KCAL/MOL
REMARK 924 INTRA-LIGAND FREE ENERGY PREDICTED BY IDOCK:    1.03 KCAL/MOL
REMARK 927      BINDING AFFINITY PREDICTED BY RF-SCORE:    0.00 PKD
ROOT
HETATM    1  C   UNL     1      -6.421   7.884  65.186  1.00  0.00    -0.044 C  
HETATM    2  S   UNL     1      -6.862   6.984  66.727  1.00  0.00    -0.070 SA 
HETATM    3  C   UNL     1      -8.545   6.485  66.127  1.00  0.00    -0.145 C  
HETATM    4  C   UNL     1      -8.909   5.110  66.695  1.00  0.00    -0.112 C  
HETATM    5  CA  UNL     1      -8.465   6.569  64.582  1.00  0.00     0.101 C  
HETATM    6  C   UNL     1      -9.557   7.494  66.708  1.00  0.00    -0.265 C  
HETATM    7  N   UNL     1      -7.545   7.676  64.255  1.00  0.00    -0.101 N  
HETATM    8  C   UNL     1      -7.936   5.307  63.869  1.00  0.00    -0.105 C  
HETATM    9  OXT UNL     1      -8.373   4.177  64.021  1.00  0.00    -0.091 OA 
HETATM   10  O   UNL     1      -6.962   5.568  62.956  1.00  0.00    -0.035 OA 
HETATM   11  C   UNL     1      -7.980   8.976  64.339  1.00  0.00    -0.133 C  
HETATM   12  CA  UNL     1      -6.725   9.401  65.155  1.00  0.00    -0.080 C  
HETATM   13  O   UNL     1      -9.046   9.441  64.006  1.00  0.00    -0.202 OA 
ENDROOT
BRANCH  12  14
HETATM   14  N   UNL     1      -6.955  10.041  66.474  1.00  0.00    -0.092 N  
HETATM   15  C   UNL     1      -8.053  10.842  66.697  1.00  0.00    -0.142 C  
HETATM   16  H   UNL     1      -6.288   9.886  67.230  1.00  0.00     0.000 HD 
HETATM   17  O   UNL     1      -8.859  11.100  65.806  1.00  0.00    -0.193 OA 
HETATM   18  C   UNL     1      -8.181  11.423  68.092  1.00  0.00    -0.143 C  
HETATM   19  C   UNL     1      -8.474  10.301  69.071  1.00  0.00    -0.150 C  
HETATM   20  C   UNL     1      -7.033  12.371  68.487  1.00  0.00    -0.092 A  
HETATM   21  C   UNL     1      -6.411  13.179  67.516  1.00  0.00    -0.154 A  
HETATM   22  O   UNL     1      -7.630   9.606  69.626  1.00  0.00    -0.088 OA 
HETATM   23  C   UNL     1      -5.745  13.569  70.190  1.00  0.00    -0.140 A  
HETATM   24  C   UNL     1      -5.460  14.141  67.874  1.00  0.00    -0.083 A  
HETATM   25  C   UNL     1      -6.664  12.580  69.828  1.00  0.00     0.146 A  
HETATM   26  C   UNL     1      -5.140  14.348  69.212  1.00  0.00    -0.079 A  
BRANCH  19  27
HETATM   27  O   UNL     1      -9.851  10.153  69.213  1.00  0.00    -0.197 OA 
BRANCH  27  28
HETATM   28  C   UNL     1     -10.213   9.146  70.116  1.00  0.00    -0.205 A  
HETATM   29  C   UNL     1      -9.728   7.103  71.255  1.00  0.00    -0.170 A  
HETATM   30  C   UNL     1      -9.385   8.040  70.304  1.00  0.00    -0.159 A  
HETATM   31  C   UNL     1     -10.840   7.285  72.067  1.00  0.00    -0.264 A  
HETATM   32  C   UNL     1     -11.650   8.405  71.921  1.00  0.00    -0.395 A  
HETATM   33  C   UNL     1     -10.961   6.182  73.067  1.00  0.00    -0.278 C  
HETATM   34  C   UNL     1      -9.796   5.239  72.711  1.00  0.00    -0.183 C  
HETATM   35  C   UNL     1     -11.335   9.344  70.929  1.00  0.00    -0.386 A  
HETATM   36  C   UNL     1      -8.989   5.846  71.557  1.00  0.00    -0.147 C  
ENDBRANCH  27  28
ENDBRANCH  19  27
ENDBRANCH  12  14
TORSDOF 3
ENDMDL
MODEL      148
REMARK 921   NORMALIZED FREE ENERGY PREDICTED BY IDOCK:   -2.52 KCAL/MOL
REMARK 922        TOTAL FREE ENERGY PREDICTED BY IDOCK:   -3.84 KCAL/MOL
REMARK 923 INTER-LIGAND FREE ENERGY PREDICTED BY IDOCK:   -4.70 KCAL/MOL
REMARK 924 INTRA-LIGAND FREE ENERGY PREDICTED BY IDOCK:    0.87 KCAL/MOL
REMARK 927      BINDING AFFINITY PREDICTED BY RF-SCORE:    0.00 PKD
ROOT
HETATM    1  C   UNL     1      -7.088  10.678  67.587  1.00  0.00    -0.084 C  
HETATM    2  S   UNL     1      -7.255  10.848  69.410  1.00  0.00    -0.105 SA 
HETATM    3  C   UNL     1      -8.850   9.905  69.498  1.00  0.00    -0.197 C  
HETATM    4  C   UNL     1      -8.914   9.121  70.813  1.00  0.00    -0.296 C  
HETATM    5  CA  UNL     1      -8.884   9.046  68.208  1.00  0.00    -0.134 C  
HETATM    6  C   UNL     1      -9.994  10.939  69.534  1.00  0.00    -0.010 C  
HETATM    7  N   UNL     1      -8.209   9.826  67.151  1.00  0.00    -0.120 N  
HETATM    8  C   UNL     1      -8.176   7.680  68.293  1.00  0.00    -0.125 C  
HETATM    9  OXT UNL     1      -8.384   6.830  69.146  1.00  0.00    -0.122 OA 
HETATM   10  O   UNL     1      -7.327   7.443  67.257  1.00  0.00    -0.093 OA 
HETATM   11  C   UNL     1      -8.873  10.855  66.528  1.00  0.00    -0.163 C  
HETATM   12  CA  UNL     1      -7.671  11.822  66.725  1.00  0.00    -0.086 C  
HETATM   13  O   UNL     1     -10.027  10.902  66.166  1.00  0.00    -0.216 OA 
ENDROOT
BRANCH  12  14
HETATM   14  N   UNL     1      -7.933  13.098  67.436  1.00  0.00    -0.211 N  
HETATM   15  C   UNL     1      -8.541  14.158  66.800  1.00  0.00    -0.069 C  
HETATM   16  H   UNL     1      -7.657  13.193  68.414  1.00  0.00     0.000 HD 
HETATM   17  O   UNL     1      -8.847  14.111  65.612  1.00  0.00     0.619 OA 
HETATM   18  C   UNL     1      -8.766  15.399  67.643  1.00  0.00    -0.174 C  
HETATM   19  C   UNL     1      -9.810  15.097  68.702  1.00  0.00    -0.218 C  
HETATM   20  C   UNL     1      -7.470  16.058  68.152  1.00  0.00    -0.132 A  
HETATM   21  C   UNL     1      -6.300  16.024  67.370  1.00  0.00    -0.206 A  
HETATM   22  O   UNL     1      -9.582  14.603  69.801  1.00  0.00     0.147 OA 
HETATM   23  C   UNL     1      -6.305  17.574  69.681  1.00  0.00    -0.191 A  
HETATM   24  C   UNL     1      -5.152  16.728  67.751  1.00  0.00    -0.129 A  
HETATM   25  C   UNL     1      -7.438  16.837  69.322  1.00  0.00    -0.134 A  
HETATM   26  C   UNL     1      -5.161  17.516  68.897  1.00  0.00    -0.153 A  
BRANCH  19  27
HETATM   27  O   UNL     1     -11.073  15.426  68.220  1.00  0.00    -0.281 OA 
BRANCH  27  28
HETATM   28  C   UNL     1     -11.556  14.529  67.260  1.00  0.00    -0.385 A  
HETATM   29  C   UNL     1     -12.061  13.989  64.988  1.00  0.00    -0.427 A  
HETATM   30  C   UNL     1     -11.656  14.917  65.924  1.00  0.00    -0.228 A  
HETATM   31  C   UNL     1     -12.299  12.670  65.348  1.00  0.00    -0.499 A  
HETATM   32  C   UNL     1     -12.160  12.258  66.668  1.00  0.00    -0.074 A  
HETATM   33  C   UNL     1     -12.648  11.843  64.155  1.00  0.00    -0.328 C  
HETATM   34  C   UNL     1     -12.666  12.860  62.998  1.00  0.00     0.309 C  
HETATM   35  C   UNL     1     -11.790  13.202  67.637  1.00  0.00    -0.405 A  
HETATM   36  C   UNL     1     -12.265  14.239  63.534  1.00  0.00     0.219 C  
ENDBRANCH  27  28
ENDBRANCH  19  27
ENDBRANCH  12  14
TORSDOF 3
ENDMDL
MODEL      149
REMARK 921   NORMALIZED FREE ENERGY PREDICTED BY IDOCK:   -2.20 KCAL/MOL
REMARK 922        TOTAL FREE ENERGY PREDICTED BY IDOCK:   -3.46 KCAL/MOL
REMARK 923 INTER-LIGAND FREE ENERGY PREDICTED BY IDOCK:   -7.19 KCAL/MOL
REMARK 924 INTRA-LIGAND FREE ENERGY PREDICTED BY IDOCK:    3.73 KCAL/MOL
REMARK 927      BINDING AFFINITY PREDICTED BY RF-SCORE:    0.00 PKD
ROOT
HETATM    1  C   UNL     1     -10.482  11.222  65.832  1.00  0.00    -0.259 C  
HETATM    2  S   UNL     1      -9.120  12.451  65.945  1.00  0.00     0.210 SA 
HETATM    3  C   UNL     1      -7.938  11.282  66.768  1.00  0.00    -0.159 C  
HETATM    4  C   UNL     1      -6.507  11.589  66.312  1.00  0.00     0.112 C  
HETATM    5  CA  UNL     1      -8.459   9.866  66.417  1.00  0.00    -0.124 C  
HETATM    6  C   UNL     1      -7.997  11.560  68.284  1.00  0.00    -0.142 C  
HETATM    7  N   UNL     1      -9.931   9.953  66.341  1.00  0.00    -0.230 N  
HETATM    8  C   UNL     1      -7.965   9.281  65.078  1.00  0.00    -0.118 C  
HETATM    9  OXT UNL     1      -6.795   9.192  64.738  1.00  0.00    -0.083 OA 
HETATM   10  O   UNL     1      -8.963   8.775  64.306  1.00  0.00    -0.013 OA 
HETATM   11  C   UNL     1     -10.677   9.982  67.495  1.00  0.00    -0.281 C  
HETATM   12  CA  UNL     1     -11.501  11.203  66.996  1.00  0.00    -0.026 C  
HETATM   13  O   UNL     1     -10.523   9.344  68.511  1.00  0.00    -0.200 OA 
ENDROOT
BRANCH  12  14
HETATM   14  N   UNL     1     -11.519  12.411  67.859  1.00  0.00    -0.305 N  
HETATM   15  C   UNL     1     -10.621  12.563  68.892  1.00  0.00    -0.118 C  
HETATM   16  H   UNL     1     -12.209  13.142  67.684  1.00  0.00     0.000 HD 
HETATM   17  O   UNL     1      -9.803  11.690  69.174  1.00  0.00    -0.019 OA 
HETATM   18  C   UNL     1     -10.734  13.849  69.687  1.00  0.00     0.123 C  
HETATM   19  C   UNL     1     -10.319  15.014  68.808  1.00  0.00    -0.240 C  
HETATM   20  C   UNL     1     -12.074  14.016  70.428  1.00  0.00    -0.426 A  
HETATM   21  C   UNL     1     -12.750  12.891  70.938  1.00  0.00    -0.291 A  
HETATM   22  O   UNL     1     -11.059  15.625  68.046  1.00  0.00    -0.313 OA 
HETATM   23  C   UNL     1     -13.717  15.421  71.577  1.00  0.00    -0.601 A  
HETATM   24  C   UNL     1     -13.897  13.030  71.727  1.00  0.00    -0.022 A  
HETATM   25  C   UNL     1     -12.596  15.280  70.755  1.00  0.00    -0.474 A  
HETATM   26  C   UNL     1     -14.370  14.295  72.061  1.00  0.00    -0.629 A  
BRANCH  19  27
HETATM   27  O   UNL     1      -8.958  15.258  68.968  1.00  0.00    -0.197 OA 
BRANCH  27  28
HETATM   28  C   UNL     1      -8.481  16.305  68.169  1.00  0.00    -0.174 A  
HETATM   29  C   UNL     1      -7.984  18.620  67.856  1.00  0.00    -0.278 A  
HETATM   30  C   UNL     1      -8.531  17.619  68.631  1.00  0.00    -0.266 A  
HETATM   31  C   UNL     1      -7.329  18.326  66.668  1.00  0.00    -0.251 A  
HETATM   32  C   UNL     1      -7.233  17.014  66.217  1.00  0.00    -0.269 A  
HETATM   33  C   UNL     1      -6.757  19.559  66.050  1.00  0.00    -0.251 C  
HETATM   34  C   UNL     1      -7.216  20.686  66.994  1.00  0.00    -0.372 C  
HETATM   35  C   UNL     1      -7.822  15.992  66.975  1.00  0.00    -0.263 A  
HETATM   36  C   UNL     1      -7.988  20.076  68.170  1.00  0.00    -0.243 C  
ENDBRANCH  27  28
ENDBRANCH  19  27
ENDBRANCH  12  14
TORSDOF 3
ENDMDL
MODEL      150
REMARK 921   NORMALIZED FREE ENERGY PREDICTED BY IDOCK:   -2.05 KCAL/MOL
REMARK 922        TOTAL FREE ENERGY PREDICTED BY IDOCK:   -3.28 KCAL/MOL
REMARK 923 INTER-LIGAND FREE ENERGY PREDICTED BY IDOCK:   -3.39 KCAL/MOL
REMARK 924 INTRA-LIGAND FREE ENERGY PREDICTED BY IDOCK:    0.10 KCAL/MOL
REMARK 927      BINDING AFFINITY PREDICTED BY RF-SCORE:    0.00 PKD
ROOT
HETATM    1  C   UNL     1      -9.634  11.129  69.063  1.00  0.00    -0.083 C  
HETATM    2  S   UNL     1      -9.654  10.553  67.317  1.00  0.00    -0.165 SA 
HETATM    3  C   UNL     1      -7.809  10.405  67.191  1.00  0.00    -0.110 C  
HETATM    4  C   UNL     1      -7.447   9.235  66.271  1.00  0.00    -0.096 C  
HETATM    5  CA  UNL     1      -7.313  10.280  68.654  1.00  0.00    -0.083 C  
HETATM    6  C   UNL     1      -7.290  11.690  66.513  1.00  0.00     0.044 C  
HETATM    7  N   UNL     1      -8.223  11.086  69.491  1.00  0.00     0.110 N  
HETATM    8  C   UNL     1      -7.297   8.853  69.238  1.00  0.00    -0.070 C  
HETATM    9  OXT UNL     1      -6.755   7.887  68.722  1.00  0.00    -0.054 OA 
HETATM   10  O   UNL     1      -7.884   8.760  70.461  1.00  0.00    -0.080 OA 
HETATM   11  C   UNL     1      -8.093  12.454  69.525  1.00  0.00     1.181 C  
HETATM   12  CA  UNL     1      -9.617  12.659  69.290  1.00  0.00     0.816 C  
HETATM   13  O   UNL     1      -7.082  13.117  69.557  1.00  0.00     0.078 OA 
ENDROOT
BRANCH  12  14
HETATM   14  N   UNL     1     -10.021  13.490  68.128  1.00  0.00    -0.234 N  
HETATM   15  C   UNL     1     -11.180  14.234  68.153  1.00  0.00    -0.275 C  
HETATM   16  H   UNL     1      -9.431  13.510  67.297  1.00  0.00     0.000 HD 
HETATM   17  O   UNL     1     -11.949  14.205  69.110  1.00  0.00    -0.324 OA 
HETATM   18  C   UNL     1     -11.471  15.051  66.909  1.00  0.00    -0.266 C  
HETATM   19  C   UNL     1     -10.448  16.166  66.798  1.00  0.00    -0.294 C  
HETATM   20  C   UNL     1     -11.681  14.209  65.636  1.00  0.00    -0.357 A  
HETATM   21  C   UNL     1     -12.279  12.938  65.715  1.00  0.00    -0.498 A  
HETATM   22  O   UNL     1      -9.348  16.069  66.265  1.00  0.00    -0.267 OA 
HETATM   23  C   UNL     1     -11.790  14.018  63.198  1.00  0.00     0.820 A  
HETATM   24  C   UNL     1     -12.600  12.214  64.561  1.00  0.00    -0.323 A  
HETATM   25  C   UNL     1     -11.432  14.723  64.351  1.00  0.00    -0.261 A  
HETATM   26  C   UNL     1     -12.372  12.761  63.303  1.00  0.00    -0.437 A  
BRANCH  19  27
HETATM   27  O   UNL     1     -10.931  17.308  67.431  1.00  0.00    -0.216 OA 
BRANCH  27  28
HETATM   28  C   UNL     1      -9.940  18.262  67.695  1.00  0.00    -0.338 A  
HETATM   29  C   UNL     1      -7.651  18.942  67.663  1.00  0.00    -0.250 A  
HETATM   30  C   UNL     1      -8.598  17.960  67.468  1.00  0.00    -0.239 A  
HETATM   31  C   UNL     1      -8.023  20.234  68.009  1.00  0.00    -0.172 A  
HETATM   32  C   UNL     1      -9.362  20.561  68.194  1.00  0.00    -0.048 A  
HETATM   33  C   UNL     1      -6.834  21.134  68.087  1.00  0.00     0.064 C  
HETATM   34  C   UNL     1      -5.647  20.193  67.809  1.00  0.00    -0.211 C  
HETATM   35  C   UNL     1     -10.331  19.560  68.040  1.00  0.00    -0.564 A  
HETATM   36  C   UNL     1      -6.178  18.785  67.514  1.00  0.00    -0.183 C  
ENDBRANCH  27  28
ENDBRANCH  19  27
ENDBRANCH  12  14
TORSDOF 3
ENDMDL
MODEL      151
REMARK 921   NORMALIZED FREE ENERGY PREDICTED BY IDOCK:   -2.03 KCAL/MOL
REMARK 922        TOTAL FREE ENERGY PREDICTED BY IDOCK:   -3.26 KCAL/MOL
REMARK 923 INTER-LIGAND FREE ENERGY PREDICTED BY IDOCK:   -2.33 KCAL/MOL
REMARK 924 INTRA-LIGAND FREE ENERGY PREDICTED BY IDOCK:   -0.94 KCAL/MOL
REMARK 927      BINDING AFFINITY PREDICTED BY RF-SCORE:    0.00 PKD
ROOT
HETATM    1  C   UNL     1     -10.724  12.720  67.700  1.00  0.00    -0.219 C  
HETATM    2  S   UNL     1     -10.204  12.956  65.953  1.00  0.00    -0.292 SA 
HETATM    3  C   UNL     1      -8.964  11.577  65.983  1.00  0.00    -0.176 C  
HETATM    4  C   UNL     1      -8.907  10.904  64.607  1.00  0.00    -0.096 C  
HETATM    5  CA  UNL     1      -9.404  10.663  67.154  1.00  0.00    -0.155 C  
HETATM    6  C   UNL     1      -7.580  12.210  66.232  1.00  0.00     0.604 C  
HETATM    7  N   UNL     1      -9.993  11.537  68.188  1.00  0.00    -0.186 N  
HETATM    8  C   UNL     1     -10.455   9.589  66.809  1.00  0.00    -0.193 C  
HETATM    9  OXT UNL     1     -10.361   8.778  65.900  1.00  0.00     0.095 OA 
HETATM   10  O   UNL     1     -11.501   9.554  67.678  1.00  0.00     0.225 OA 
HETATM   11  C   UNL     1      -9.174  12.266  69.016  1.00  0.00     0.420 C  
HETATM   12  CA  UNL     1      -9.989  13.568  68.765  1.00  0.00    -0.070 C  
HETATM   13  O   UNL     1      -8.138  11.932  69.543  1.00  0.00     0.498 OA 
ENDROOT
BRANCH  12  14
HETATM   14  N   UNL     1      -9.248  14.748  68.254  1.00  0.00    -0.181 N  
HETATM   15  C   UNL     1      -8.691  15.668  69.114  1.00  0.00    -0.251 C  
HETATM   16  H   UNL     1      -9.149  14.880  67.247  1.00  0.00     0.000 HD 
HETATM   17  O   UNL     1      -8.824  15.580  70.332  1.00  0.00     0.541 OA 
HETATM   18  C   UNL     1      -7.947  16.819  68.464  1.00  0.00    -0.235 C  
HETATM   19  C   UNL     1      -6.689  16.286  67.804  1.00  0.00    -0.142 C  
HETATM   20  C   UNL     1      -8.830  17.725  67.586  1.00  0.00    -0.248 A  
HETATM   21  C   UNL     1     -10.177  17.950  67.925  1.00  0.00    -0.375 A  
HETATM   22  O   UNL     1      -6.624  15.831  66.667  1.00  0.00    -0.136 OA 
HETATM   23  C   UNL     1      -9.072  19.422  65.839  1.00  0.00    -0.024 A  
HETATM   24  C   UNL     1     -10.958  18.872  67.219  1.00  0.00    -0.314 A  
HETATM   25  C   UNL     1      -8.303  18.472  66.517  1.00  0.00    -0.297 A  
HETATM   26  C   UNL     1     -10.401  19.620  66.188  1.00  0.00    -0.627 A  
BRANCH  19  27
HETATM   27  O   UNL     1      -5.626  16.353  68.700  1.00  0.00    -0.104 OA 
BRANCH  27  28
HETATM   28  C   UNL     1      -5.432  15.171  69.426  1.00  0.00    -0.092 A  
HETATM   29  C   UNL     1      -5.296  14.011  71.509  1.00  0.00    -0.205 A  
HETATM   30  C   UNL     1      -5.411  15.199  70.819  1.00  0.00    -0.121 A  
HETATM   31  C   UNL     1      -5.273  12.796  70.838  1.00  0.00    -0.160 A  
HETATM   32  C   UNL     1      -5.338  12.750  69.451  1.00  0.00    -0.076 A  
HETATM   33  C   UNL     1      -5.222  11.653  71.798  1.00  0.00     0.150 C  
HETATM   34  C   UNL     1      -5.142  12.338  73.176  1.00  0.00     0.424 C  
HETATM   35  C   UNL     1      -5.413  13.954  68.736  1.00  0.00    -0.082 A  
HETATM   36  C   UNL     1      -5.212  13.858  72.988  1.00  0.00    -0.224 C  
ENDBRANCH  27  28
ENDBRANCH  19  27
ENDBRANCH  12  14
TORSDOF 3
ENDMDL
MODEL      152
REMARK 921   NORMALIZED FREE ENERGY PREDICTED BY IDOCK:   -1.87 KCAL/MOL
REMARK 922        TOTAL FREE ENERGY PREDICTED BY IDOCK:   -3.08 KCAL/MOL
REMARK 923 INTER-LIGAND FREE ENERGY PREDICTED BY IDOCK:   -4.57 KCAL/MOL
REMARK 924 INTRA-LIGAND FREE ENERGY PREDICTED BY IDOCK:    1.49 KCAL/MOL
REMARK 927      BINDING AFFINITY PREDICTED BY RF-SCORE:    0.00 PKD
ROOT
HETATM    1  C   UNL     1      -5.818   7.394  69.885  1.00  0.00    -0.024 C  
HETATM    2  S   UNL     1      -6.867   8.824  69.400  1.00  0.00    -0.049 SA 
HETATM    3  C   UNL     1      -8.354   8.239  70.342  1.00  0.00    -0.120 C  
HETATM    4  C   UNL     1      -9.129   9.444  70.884  1.00  0.00    -0.220 C  
HETATM    5  CA  UNL     1      -7.797   7.268  71.415  1.00  0.00    -0.096 C  
HETATM    6  C   UNL     1      -9.280   7.521  69.339  1.00  0.00    -0.149 C  
HETATM    7  N   UNL     1      -6.627   6.592  70.821  1.00  0.00    -0.052 N  
HETATM    8  C   UNL     1      -7.331   7.920  72.732  1.00  0.00    -0.101 C  
HETATM    9  OXT UNL     1      -8.002   8.673  73.422  1.00  0.00    -0.405 OA 
HETATM   10  O   UNL     1      -6.096   7.514  73.131  1.00  0.00    -0.057 OA 
HETATM   11  C   UNL     1      -6.808   5.562  69.930  1.00  0.00    -0.060 C  
HETATM   12  CA  UNL     1      -5.801   6.184  68.921  1.00  0.00    -0.020 C  
HETATM   13  O   UNL     1      -7.615   4.661  69.969  1.00  0.00    -0.053 OA 
ENDROOT
BRANCH  12  14
HETATM   14  N   UNL     1      -6.291   6.448  67.545  1.00  0.00    -0.035 N  
HETATM   15  C   UNL     1      -7.541   6.035  67.141  1.00  0.00    -0.092 C  
HETATM   16  H   UNL     1      -5.690   6.943  66.885  1.00  0.00     0.000 HD 
HETATM   17  O   UNL     1      -8.282   5.392  67.881  1.00  0.00    -0.100 OA 
HETATM   18  C   UNL     1      -7.927   6.380  65.716  1.00  0.00    -0.117 C  
HETATM   19  C   UNL     1      -8.099   7.883  65.599  1.00  0.00    -0.130 C  
HETATM   20  C   UNL     1      -7.034   5.725  64.645  1.00  0.00    -0.052 A  
HETATM   21  C   UNL     1      -6.483   4.448  64.862  1.00  0.00    -0.035 A  
HETATM   22  O   UNL     1      -7.200   8.683  65.365  1.00  0.00    -0.081 OA 
HETATM   23  C   UNL     1      -6.194   5.606  62.349  1.00  0.00    -0.022 A  
HETATM   24  C   UNL     1      -5.781   3.780  63.853  1.00  0.00    -0.014 A  
HETATM   25  C   UNL     1      -6.859   6.291  63.369  1.00  0.00    -0.045 A  
HETATM   26  C   UNL     1      -5.652   4.351  62.592  1.00  0.00    -0.010 A  
BRANCH  19  27
HETATM   27  O   UNL     1      -9.427   8.222  65.839  1.00  0.00    -0.163 OA 
BRANCH  27  28
HETATM   28  C   UNL     1      -9.655   9.603  65.871  1.00  0.00    -0.257 A  
HETATM   29  C   UNL     1      -9.474  11.713  66.975  1.00  0.00    -0.191 A  
HETATM   30  C   UNL     1      -9.311  10.344  67.001  1.00  0.00    -0.176 A  
HETATM   31  C   UNL     1      -9.904  12.360  65.825  1.00  0.00    -0.253 A  
HETATM   32  C   UNL     1     -10.207  11.637  64.676  1.00  0.00    -0.327 A  
HETATM   33  C   UNL     1      -9.928  13.840  66.017  1.00  0.00    -0.319 C  
HETATM   34  C   UNL     1      -9.517  14.023  67.490  1.00  0.00    -0.221 C  
HETATM   35  C   UNL     1     -10.086  10.241  64.703  1.00  0.00    -0.317 A  
HETATM   36  C   UNL     1      -9.203  12.652  68.100  1.00  0.00    -0.209 C  
ENDBRANCH  27  28
ENDBRANCH  19  27
ENDBRANCH  12  14
TORSDOF 3
ENDMDL
MODEL      153
REMARK 921   NORMALIZED FREE ENERGY PREDICTED BY IDOCK:   -1.86 KCAL/MOL
REMARK 922        TOTAL FREE ENERGY PREDICTED BY IDOCK:   -3.07 KCAL/MOL
REMARK 923 INTER-LIGAND FREE ENERGY PREDICTED BY IDOCK:   -3.80 KCAL/MOL
REMARK 924 INTRA-LIGAND FREE ENERGY PREDICTED BY IDOCK:    0.73 KCAL/MOL
REMARK 927      BINDING AFFINITY PREDICTED BY RF-SCORE:    0.00 PKD
ROOT
HETATM    1  C   UNL     1      -9.384   5.240  64.951  1.00  0.00     0.166 C  
HETATM    2  S   UNL     1      -7.667   5.829  65.240  1.00  0.00    -0.099 SA 
HETATM    3  C   UNL     1      -6.965   4.127  65.465  1.00  0.00    -0.062 C  
HETATM    4  C   UNL     1      -5.534   4.083  64.921  1.00  0.00    -0.013 C  
HETATM    5  CA  UNL     1      -7.973   3.178  64.768  1.00  0.00    -0.086 C  
HETATM    6  C   UNL     1      -6.878   3.864  66.983  1.00  0.00    -0.051 C  
HETATM    7  N   UNL     1      -9.315   3.767  64.945  1.00  0.00    -0.146 N  
HETATM    8  C   UNL     1      -7.760   2.968  63.256  1.00  0.00    -0.064 C  
HETATM    9  OXT UNL     1      -6.711   2.621  62.733  1.00  0.00    -0.025 OA 
HETATM   10  O   UNL     1      -8.895   3.121  62.522  1.00  0.00    -0.081 OA 
HETATM   11  C   UNL     1      -9.968   3.637  66.147  1.00  0.00     0.111 C  
HETATM   12  CA  UNL     1     -10.308   5.154  66.189  1.00  0.00    -0.236 C  
HETATM   13  O   UNL     1     -10.027   2.673  66.876  1.00  0.00     0.480 OA 
ENDROOT
BRANCH  12  14
HETATM   14  N   UNL     1      -9.865   5.920  67.380  1.00  0.00    -0.122 N  
HETATM   15  C   UNL     1      -9.718   7.288  67.334  1.00  0.00    -0.150 C  
HETATM   16  H   UNL     1      -9.665   5.424  68.249  1.00  0.00     0.000 HD 
HETATM   17  O   UNL     1      -9.898   7.926  66.300  1.00  0.00    -0.182 OA 
HETATM   18  C   UNL     1      -9.274   7.953  68.624  1.00  0.00    -0.142 C  
HETATM   19  C   UNL     1     -10.390   7.845  69.646  1.00  0.00    -0.216 C  
HETATM   20  C   UNL     1      -7.879   7.517  69.110  1.00  0.00    -0.119 A  
HETATM   21  C   UNL     1      -6.871   7.194  68.182  1.00  0.00    -0.074 A  
HETATM   22  O   UNL     1     -10.570   6.896  70.401  1.00  0.00    -0.208 OA 
HETATM   23  C   UNL     1      -6.194   7.340  70.877  1.00  0.00    -0.036 A  
HETATM   24  C   UNL     1      -5.562   6.925  68.597  1.00  0.00    -0.018 A  
HETATM   25  C   UNL     1      -7.510   7.568  70.466  1.00  0.00    -0.080 A  
HETATM   26  C   UNL     1      -5.220   7.015  69.942  1.00  0.00    -0.015 A  
BRANCH  19  27
HETATM   27  O   UNL     1     -11.205   8.971  69.569  1.00  0.00    -0.098 OA 
BRANCH  27  28
HETATM   28  C   UNL     1     -10.674   9.991  68.770  1.00  0.00    -0.223 A  
HETATM   29  C   UNL     1     -10.918  11.604  67.026  1.00  0.00    -0.338 A  
HETATM   30  C   UNL     1     -11.437  10.549  67.746  1.00  0.00    -0.143 A  
HETATM   31  C   UNL     1      -9.687  12.155  67.354  1.00  0.00    -0.180 A  
HETATM   32  C   UNL     1      -8.935  11.638  68.402  1.00  0.00    -0.176 A  
HETATM   33  C   UNL     1      -9.376  13.330  66.486  1.00  0.00    -0.221 C  
HETATM   34  C   UNL     1     -10.567  13.388  65.511  1.00  0.00    -0.294 C  
HETATM   35  C   UNL     1      -9.433  10.538  69.115  1.00  0.00    -0.205 A  
HETATM   36  C   UNL     1     -11.571  12.288  65.875  1.00  0.00    -0.450 C  
ENDBRANCH  27  28
ENDBRANCH  19  27
ENDBRANCH  12  14
TORSDOF 3
ENDMDL
MODEL      154
REMARK 921   NORMALIZED FREE ENERGY PREDICTED BY IDOCK:   -1.85 KCAL/MOL
REMARK 922        TOTAL FREE ENERGY PREDICTED BY IDOCK:   -3.05 KCAL/MOL
REMARK 923 INTER-LIGAND FREE ENERGY PREDICTED BY IDOCK:   -4.18 KCAL/MOL
REMARK 924 INTRA-LIGAND FREE ENERGY PREDICTED BY IDOCK:    1.13 KCAL/MOL
REMARK 927      BINDING AFFINITY PREDICTED BY RF-SCORE:    0.00 PKD
ROOT
HETATM    1  C   UNL     1      -6.655   4.021  66.609  1.00  0.00    -0.046 C  
HETATM    2  S   UNL     1      -8.446   4.433  66.660  1.00  0.00    -0.104 SA 
HETATM    3  C   UNL     1      -8.599   4.644  64.824  1.00  0.00    -0.142 C  
HETATM    4  C   UNL     1      -9.988   4.186  64.366  1.00  0.00    -0.155 C  
HETATM    5  CA  UNL     1      -7.407   3.856  64.225  1.00  0.00    -0.066 C  
HETATM    6  C   UNL     1      -8.502   6.154  64.525  1.00  0.00     0.051 C  
HETATM    7  N   UNL     1      -6.288   3.970  65.181  1.00  0.00    -0.027 N  
HETATM    8  C   UNL     1      -7.650   2.353  63.982  1.00  0.00    -0.064 C  
HETATM    9  OXT UNL     1      -8.584   1.884  63.348  1.00  0.00    -0.082 OA 
HETATM   10  O   UNL     1      -6.663   1.557  64.474  1.00  0.00    -0.021 OA 
HETATM   11  C   UNL     1      -5.546   5.126  65.234  1.00  0.00    -0.014 C  
HETATM   12  CA  UNL     1      -5.665   5.197  66.783  1.00  0.00    -0.018 C  
HETATM   13  O   UNL     1      -5.156   5.817  64.321  1.00  0.00    -0.009 OA 
ENDROOT
BRANCH  12  14
HETATM   14  N   UNL     1      -6.232   6.438  67.367  1.00  0.00    -0.031 N  
HETATM   15  C   UNL     1      -6.800   6.441  68.621  1.00  0.00    -0.074 C  
HETATM   16  H   UNL     1      -6.201   7.304  66.830  1.00  0.00     0.000 HD 
HETATM   17  O   UNL     1      -6.907   5.414  69.288  1.00  0.00    -0.050 OA 
HETATM   18  C   UNL     1      -7.328   7.776  69.109  1.00  0.00    -0.088 C  
HETATM   19  C   UNL     1      -6.160   8.713  69.350  1.00  0.00    -0.041 C  
HETATM   20  C   UNL     1      -8.478   8.348  68.257  1.00  0.00    -0.135 A  
HETATM   21  C   UNL     1      -9.403   7.486  67.640  1.00  0.00    -0.151 A  
HETATM   22  O   UNL     1      -5.636   9.427  68.502  1.00  0.00    -0.040 OA 
HETATM   23  C   UNL     1      -9.884  10.225  67.556  1.00  0.00    -0.204 A  
HETATM   24  C   UNL     1     -10.528   7.985  66.974  1.00  0.00    -0.410 A  
HETATM   25  C   UNL     1      -8.739   9.728  68.185  1.00  0.00    -0.119 A  
HETATM   26  C   UNL     1     -10.778   9.353  66.947  1.00  0.00    -0.174 A  
BRANCH  19  27
HETATM   27  O   UNL     1      -5.744   8.610  70.674  1.00  0.00    -0.027 OA 
BRANCH  27  28
HETATM   28  C   UNL     1      -6.778   8.285  71.561  1.00  0.00    -0.063 A  
HETATM   29  C   UNL     1      -9.100   8.240  72.117  1.00  0.00    -0.279 A  
HETATM   30  C   UNL     1      -8.093   8.640  71.265  1.00  0.00    -0.182 A  
HETATM   31  C   UNL     1      -8.828   7.437  73.216  1.00  0.00    -0.201 A  
HETATM   32  C   UNL     1      -7.527   7.037  73.498  1.00  0.00    -0.086 A  
HETATM   33  C   UNL     1     -10.083   7.073  73.939  1.00  0.00    -0.386 C  
HETATM   34  C   UNL     1     -11.180   7.832  73.169  1.00  0.00    -0.277 C  
HETATM   35  C   UNL     1      -6.488   7.472  72.663  1.00  0.00    -0.059 A  
HETATM   36  C   UNL     1     -10.547   8.566  71.982  1.00  0.00    -0.408 C  
ENDBRANCH  27  28
ENDBRANCH  19  27
ENDBRANCH  12  14
TORSDOF 3
ENDMDL
MODEL      155
REMARK 921   NORMALIZED FREE ENERGY PREDICTED BY IDOCK:   -1.74 KCAL/MOL
REMARK 922        TOTAL FREE ENERGY PREDICTED BY IDOCK:   -2.93 KCAL/MOL
REMARK 923 INTER-LIGAND FREE ENERGY PREDICTED BY IDOCK:   -4.83 KCAL/MOL
REMARK 924 INTRA-LIGAND FREE ENERGY PREDICTED BY IDOCK:    1.90 KCAL/MOL
REMARK 927      BINDING AFFINITY PREDICTED BY RF-SCORE:    0.00 PKD
ROOT
HETATM    1  C   UNL     1     -11.620  11.669  65.354  1.00  0.00    -0.026 C  
HETATM    2  S   UNL     1     -11.205  11.462  67.133  1.00  0.00    -0.257 SA 
HETATM    3  C   UNL     1      -9.967  12.843  67.155  1.00  0.00    -0.240 C  
HETATM    4  C   UNL     1      -9.993  13.537  68.521  1.00  0.00    -0.202 C  
HETATM    5  CA  UNL     1     -10.337  13.737  65.945  1.00  0.00    -0.309 C  
HETATM    6  C   UNL     1      -8.569  12.209  66.999  1.00  0.00    -0.191 C  
HETATM    7  N   UNL     1     -10.862  12.846  64.892  1.00  0.00    -0.295 N  
HETATM    8  C   UNL     1     -11.408  14.814  66.210  1.00  0.00    -0.334 C  
HETATM    9  OXT UNL     1     -11.370  15.640  67.110  1.00  0.00    -0.229 OA 
HETATM   10  O   UNL     1     -12.400  14.833  65.280  1.00  0.00    -0.253 OA 
HETATM   11  C   UNL     1      -9.995  12.105  64.126  1.00  0.00    -0.252 C  
HETATM   12  CA  UNL     1     -10.821  10.806  64.348  1.00  0.00     0.101 C  
HETATM   13  O   UNL     1      -8.929  12.434  63.657  1.00  0.00     0.533 OA 
ENDROOT
BRANCH  12  14
HETATM   14  N   UNL     1     -10.111   9.636  64.922  1.00  0.00    -0.261 N  
HETATM   15  C   UNL     1      -8.754   9.670  65.154  1.00  0.00    -0.166 C  
HETATM   16  H   UNL     1     -10.637   8.792  65.148  1.00  0.00     0.000 HD 
HETATM   17  O   UNL     1      -8.068  10.643  64.854  1.00  0.00    -0.127 OA 
HETATM   18  C   UNL     1      -8.152   8.415  65.758  1.00  0.00    -0.117 C  
HETATM   19  C   UNL     1      -8.656   8.259  67.181  1.00  0.00    -0.123 C  
HETATM   20  C   UNL     1      -8.273   7.165  64.866  1.00  0.00    -0.073 A  
HETATM   21  C   UNL     1      -8.221   7.284  63.464  1.00  0.00     0.086 A  
HETATM   22  O   UNL     1      -9.700   7.705  67.506  1.00  0.00    -0.143 OA 
HETATM   23  C   UNL     1      -8.220   4.735  64.580  1.00  0.00    -0.115 A  
HETATM   24  C   UNL     1      -8.196   6.153  62.641  1.00  0.00    -0.065 A  
HETATM   25  C   UNL     1      -8.288   5.864  65.400  1.00  0.00    -0.149 A  
HETATM   26  C   UNL     1      -8.178   4.879  63.199  1.00  0.00    -0.101 A  
BRANCH  19  27
HETATM   27  O   UNL     1      -7.772   8.878  68.060  1.00  0.00    -0.098 OA 
BRANCH  27  28
HETATM   28  C   UNL     1      -7.796   8.335  69.351  1.00  0.00    -0.104 A  
HETATM   29  C   UNL     1      -8.803   8.152  71.509  1.00  0.00    -0.195 A  
HETATM   30  C   UNL     1      -8.753   8.759  70.272  1.00  0.00    -0.170 A  
HETATM   31  C   UNL     1      -7.967   7.087  71.816  1.00  0.00    -0.099 A  
HETATM   32  C   UNL     1      -7.039   6.624  70.891  1.00  0.00    -0.069 A  
HETATM   33  C   UNL     1      -8.260   6.550  73.178  1.00  0.00    -0.114 C  
HETATM   34  C   UNL     1      -9.359   7.488  73.712  1.00  0.00    -0.331 C  
HETATM   35  C   UNL     1      -6.949   7.260  69.645  1.00  0.00    -0.054 A  
HETATM   36  C   UNL     1      -9.724   8.506  72.625  1.00  0.00    -0.285 C  
ENDBRANCH  27  28
ENDBRANCH  19  27
ENDBRANCH  12  14
TORSDOF 3
ENDMDL
MODEL      156
REMARK 921   NORMALIZED FREE ENERGY PREDICTED BY IDOCK:   -1.72 KCAL/MOL
REMARK 922        TOTAL FREE ENERGY PREDICTED BY IDOCK:   -2.90 KCAL/MOL
REMARK 923 INTER-LIGAND FREE ENERGY PREDICTED BY IDOCK:   -1.74 KCAL/MOL
REMARK 924 INTRA-LIGAND FREE ENERGY PREDICTED BY IDOCK:   -1.16 KCAL/MOL
REMARK 927      BINDING AFFINITY PREDICTED BY RF-SCORE:    0.00 PKD
ROOT
HETATM    1  C   UNL     1      -7.717   9.677  71.015  1.00  0.00     0.266 C  
HETATM    2  S   UNL     1      -9.352   9.572  70.181  1.00  0.00    -0.254 SA 
HETATM    3  C   UNL     1      -8.942   8.019  69.253  1.00  0.00    -0.148 C  
HETATM    4  C   UNL     1     -10.201   7.159  69.104  1.00  0.00    -0.196 C  
HETATM    5  CA  UNL     1      -7.780   7.368  70.046  1.00  0.00    -0.095 C  
HETATM    6  C   UNL     1      -8.509   8.434  67.832  1.00  0.00    -0.131 C  
HETATM    7  N   UNL     1      -6.975   8.467  70.615  1.00  0.00    -0.038 N  
HETATM    8  C   UNL     1      -8.197   6.452  71.215  1.00  0.00    -0.122 C  
HETATM    9  OXT UNL     1      -8.979   5.517  71.133  1.00  0.00    -0.138 OA 
HETATM   10  O   UNL     1      -7.540   6.720  72.375  1.00  0.00    -0.091 OA 
HETATM   11  C   UNL     1      -6.094   9.155  69.817  1.00  0.00    -0.038 C  
HETATM   12  CA  UNL     1      -6.632  10.528  70.313  1.00  0.00    -0.137 C  
HETATM   13  O   UNL     1      -5.350   8.725  68.965  1.00  0.00    -0.035 OA 
ENDROOT
BRANCH  12  14
HETATM   14  N   UNL     1      -7.121  11.479  69.284  1.00  0.00    -0.231 N  
HETATM   15  C   UNL     1      -7.648  12.702  69.637  1.00  0.00     0.961 C  
HETATM   16  H   UNL     1      -7.067  11.223  68.298  1.00  0.00     0.000 HD 
HETATM   17  O   UNL     1      -7.781  13.036  70.811  1.00  0.00     3.325 OA 
HETATM   18  C   UNL     1      -8.098  13.587  68.490  1.00  0.00    -0.108 C  
HETATM   19  C   UNL     1      -6.879  14.044  67.710  1.00  0.00    -0.175 C  
HETATM   20  C   UNL     1      -9.246  12.996  67.650  1.00  0.00    -0.200 A  
HETATM   21  C   UNL     1     -10.230  12.192  68.255  1.00  0.00    -0.209 A  
HETATM   22  O   UNL     1      -6.350  13.424  66.794  1.00  0.00     0.331 OA 
HETATM   23  C   UNL     1     -10.584  12.948  65.601  1.00  0.00    -0.295 A  
HETATM   24  C   UNL     1     -11.351  11.756  67.540  1.00  0.00    -0.377 A  
HETATM   25  C   UNL     1      -9.444  13.349  66.303  1.00  0.00    -0.196 A  
HETATM   26  C   UNL     1     -11.536  12.148  66.219  1.00  0.00    -0.424 A  
BRANCH  19  27
HETATM   27  O   UNL     1      -6.426  15.258  68.220  1.00  0.00    -0.097 OA 
BRANCH  27  28
HETATM   28  C   UNL     1      -7.180  16.359  67.794  1.00  0.00    -0.138 A  
HETATM   29  C   UNL     1      -8.721  18.125  68.254  1.00  0.00    -0.294 A  
HETATM   30  C   UNL     1      -8.050  16.997  68.677  1.00  0.00    -0.254 A  
HETATM   31  C   UNL     1      -8.488  18.665  66.997  1.00  0.00    -0.275 A  
HETATM   32  C   UNL     1      -7.589  18.065  66.123  1.00  0.00    -0.285 A  
HETATM   33  C   UNL     1      -9.269  19.922  66.799  1.00  0.00    -0.480 C  
HETATM   34  C   UNL     1     -10.088  20.050  68.097  1.00  0.00    -0.547 C  
HETATM   35  C   UNL     1      -6.932  16.893  66.525  1.00  0.00    -0.262 A  
HETATM   36  C   UNL     1      -9.716  18.902  69.043  1.00  0.00    -0.356 C  
ENDBRANCH  27  28
ENDBRANCH  19  27
ENDBRANCH  12  14
TORSDOF 3
ENDMDL
MODEL      157
REMARK 921   NORMALIZED FREE ENERGY PREDICTED BY IDOCK:   -1.63 KCAL/MOL
REMARK 922        TOTAL FREE ENERGY PREDICTED BY IDOCK:   -2.79 KCAL/MOL
REMARK 923 INTER-LIGAND FREE ENERGY PREDICTED BY IDOCK:   -2.39 KCAL/MOL
REMARK 924 INTRA-LIGAND FREE ENERGY PREDICTED BY IDOCK:   -0.40 KCAL/MOL
REMARK 927      BINDING AFFINITY PREDICTED BY RF-SCORE:    0.00 PKD
ROOT
HETATM    1  C   UNL     1      -6.519   5.102  66.718  1.00  0.00    -0.041 C  
HETATM    2  S   UNL     1      -7.792   4.124  67.613  1.00  0.00    -0.087 SA 
HETATM    3  C   UNL     1      -8.811   3.791  66.100  1.00  0.00    -0.127 C  
HETATM    4  C   UNL     1      -9.458   2.407  66.207  1.00  0.00     0.169 C  
HETATM    5  CA  UNL     1      -7.839   3.983  64.908  1.00  0.00    -0.089 C  
HETATM    6  C   UNL     1      -9.957   4.824  66.083  1.00  0.00    -0.261 C  
HETATM    7  N   UNL     1      -6.887   5.043  65.291  1.00  0.00    -0.059 N  
HETATM    8  C   UNL     1      -7.012   2.743  64.512  1.00  0.00    -0.048 C  
HETATM    9  OXT UNL     1      -7.471   1.638  64.266  1.00  0.00    -0.055 OA 
HETATM   10  O   UNL     1      -5.684   3.001  64.369  1.00  0.00    -0.009 OA 
HETATM   11  C   UNL     1      -7.270   6.361  65.238  1.00  0.00    -0.070 C  
HETATM   12  CA  UNL     1      -6.726   6.634  66.669  1.00  0.00    -0.056 C  
HETATM   13  O   UNL     1      -7.933   6.923  64.396  1.00  0.00    -0.119 OA 
ENDROOT
BRANCH  12  14
HETATM   14  N   UNL     1      -7.676   7.190  67.665  1.00  0.00    -0.110 N  
HETATM   15  C   UNL     1      -7.273   7.482  68.949  1.00  0.00    -0.082 C  
HETATM   16  H   UNL     1      -8.645   7.359  67.394  1.00  0.00     0.000 HD 
HETATM   17  O   UNL     1      -6.131   7.251  69.339  1.00  0.00    -0.029 OA 
HETATM   18  C   UNL     1      -8.336   8.060  69.863  1.00  0.00    -0.121 C  
HETATM   19  C   UNL     1      -8.701   9.452  69.382  1.00  0.00    -0.157 C  
HETATM   20  C   UNL     1      -9.522   7.113  70.129  1.00  0.00    -0.161 A  
HETATM   21  C   UNL     1      -9.322   5.721  70.187  1.00  0.00    -0.184 A  
HETATM   22  O   UNL     1      -9.542   9.709  68.529  1.00  0.00    -0.143 OA 
HETATM   23  C   UNL     1     -11.821   6.731  70.878  1.00  0.00    -0.438 A  
HETATM   24  C   UNL     1     -10.356   4.855  70.557  1.00  0.00    -0.242 A  
HETATM   25  C   UNL     1     -10.799   7.593  70.468  1.00  0.00    -0.249 A  
HETATM   26  C   UNL     1     -11.600   5.360  70.919  1.00  0.00     0.808 A  
BRANCH  19  27
HETATM   27  O   UNL     1      -7.904  10.393  70.028  1.00  0.00    -0.125 OA 
BRANCH  27  28
HETATM   28  C   UNL     1      -7.557  11.482  69.217  1.00  0.00     0.079 A  
HETATM   29  C   UNL     1      -8.183  13.382  67.912  1.00  0.00    -0.162 A  
HETATM   30  C   UNL     1      -8.552  12.272  68.642  1.00  0.00     0.019 A  
HETATM   31  C   UNL     1      -6.850  13.756  67.806  1.00  0.00    -0.182 A  
HETATM   32  C   UNL     1      -5.852  13.002  68.412  1.00  0.00    -0.077 A  
HETATM   33  C   UNL     1      -6.708  15.027  67.036  1.00  0.00     0.475 C  
HETATM   34  C   UNL     1      -8.151  15.358  66.610  1.00  0.00    -0.133 C  
HETATM   35  C   UNL     1      -6.210  11.847  69.122  1.00  0.00    -0.085 A  
HETATM   36  C   UNL     1      -9.103  14.308  67.195  1.00  0.00    -0.237 C  
ENDBRANCH  27  28
ENDBRANCH  19  27
ENDBRANCH  12  14
TORSDOF 3
ENDMDL
MODEL      158
REMARK 921   NORMALIZED FREE ENERGY PREDICTED BY IDOCK:   -1.49 KCAL/MOL
REMARK 922        TOTAL FREE ENERGY PREDICTED BY IDOCK:   -2.62 KCAL/MOL
REMARK 923 INTER-LIGAND FREE ENERGY PREDICTED BY IDOCK:   -5.04 KCAL/MOL
REMARK 924 INTRA-LIGAND FREE ENERGY PREDICTED BY IDOCK:    2.41 KCAL/MOL
REMARK 927      BINDING AFFINITY PREDICTED BY RF-SCORE:    0.00 PKD
ROOT
HETATM    1  C   UNL     1      -6.750   5.159  71.851  1.00  0.00    -0.052 C  
HETATM    2  S   UNL     1      -8.074   6.405  72.120  1.00  0.00    -0.107 SA 
HETATM    3  C   UNL     1      -9.458   5.178  71.982  1.00  0.00    -0.149 C  
HETATM    4  C   UNL     1     -10.604   5.585  72.915  1.00  0.00    -0.268 C  
HETATM    5  CA  UNL     1      -8.811   3.802  72.282  1.00  0.00    -0.100 C  
HETATM    6  C   UNL     1     -10.002   5.260  70.540  1.00  0.00    -0.299 C  
HETATM    7  N   UNL     1      -7.429   3.853  71.766  1.00  0.00    -0.055 N  
HETATM    8  C   UNL     1      -8.732   3.409  73.770  1.00  0.00    -0.084 C  
HETATM    9  OXT UNL     1      -9.674   3.400  74.548  1.00  0.00    -0.103 OA 
HETATM   10  O   UNL     1      -7.501   2.974  74.151  1.00  0.00    -0.046 OA 
HETATM   11  C   UNL     1      -7.193   3.711  70.420  1.00  0.00    -0.041 C  
HETATM   12  CA  UNL     1      -6.266   4.960  70.395  1.00  0.00    -0.022 C  
HETATM   13  O   UNL     1      -7.718   2.954  69.635  1.00  0.00    -0.044 OA 
ENDROOT
BRANCH  12  14
HETATM   14  N   UNL     1      -6.612   6.047  69.445  1.00  0.00    -0.042 N  
HETATM   15  C   UNL     1      -7.748   5.982  68.670  1.00  0.00    -0.095 C  
HETATM   16  H   UNL     1      -5.997   6.857  69.365  1.00  0.00     0.000 HD 
HETATM   17  O   UNL     1      -8.494   5.006  68.694  1.00  0.00    -0.088 OA 
HETATM   18  C   UNL     1      -7.995   7.164  67.753  1.00  0.00    -0.114 C  
HETATM   19  C   UNL     1      -8.323   8.384  68.593  1.00  0.00    -0.120 C  
HETATM   20  C   UNL     1      -6.909   7.366  66.678  1.00  0.00    -0.062 A  
HETATM   21  C   UNL     1      -6.245   6.257  66.121  1.00  0.00    -0.037 A  
HETATM   22  O   UNL     1      -7.501   9.153  69.077  1.00  0.00    -0.072 OA 
HETATM   23  C   UNL     1      -5.788   8.769  65.015  1.00  0.00    -0.058 A  
HETATM   24  C   UNL     1      -5.353   6.407  65.053  1.00  0.00    -0.021 A  
HETATM   25  C   UNL     1      -6.647   8.624  66.108  1.00  0.00    -0.061 A  
HETATM   26  C   UNL     1      -5.139   7.660  64.489  1.00  0.00    -0.029 A  
BRANCH  19  27
HETATM   27  O   UNL     1      -9.701   8.474  68.768  1.00  0.00    -0.158 OA 
BRANCH  27  28
HETATM   28  C   UNL     1     -10.174   9.791  68.807  1.00  0.00    -0.194 A  
HETATM   29  C   UNL     1     -10.664  11.856  67.710  1.00  0.00    -0.243 A  
HETATM   30  C   UNL     1     -10.121  10.589  67.665  1.00  0.00    -0.211 A  
HETATM   31  C   UNL     1     -11.318  12.312  68.846  1.00  0.00    -0.337 A  
HETATM   32  C   UNL     1     -11.418  11.510  69.977  1.00  0.00    -0.304 A  
HETATM   33  C   UNL     1     -11.886  13.675  68.629  1.00  0.00    -0.409 C  
HETATM   34  C   UNL     1     -11.425  14.039  67.205  1.00  0.00    -0.373 C  
HETATM   35  C   UNL     1     -10.833  10.235  69.958  1.00  0.00    -0.364 A  
HETATM   36  C   UNL     1     -10.657  12.855  66.606  1.00  0.00    -0.273 C  
ENDBRANCH  27  28
ENDBRANCH  19  27
ENDBRANCH  12  14
TORSDOF 3
ENDMDL
MODEL      159
REMARK 921   NORMALIZED FREE ENERGY PREDICTED BY IDOCK:   -1.46 KCAL/MOL
REMARK 922        TOTAL FREE ENERGY PREDICTED BY IDOCK:   -2.60 KCAL/MOL
REMARK 923 INTER-LIGAND FREE ENERGY PREDICTED BY IDOCK:   -3.87 KCAL/MOL
REMARK 924 INTRA-LIGAND FREE ENERGY PREDICTED BY IDOCK:    1.27 KCAL/MOL
REMARK 927      BINDING AFFINITY PREDICTED BY RF-SCORE:    0.00 PKD
ROOT
HETATM    1  C   UNL     1      -5.349   8.109  65.572  1.00  0.00    -0.032 C  
HETATM    2  S   UNL     1      -5.895   7.247  67.101  1.00  0.00    -0.031 SA 
HETATM    3  C   UNL     1      -7.419   6.528  66.326  1.00  0.00    -0.081 C  
HETATM    4  C   UNL     1      -7.707   5.151  66.934  1.00  0.00    -0.092 C  
HETATM    5  CA  UNL     1      -7.141   6.538  64.802  1.00  0.00    -0.053 C  
HETATM    6  C   UNL     1      -8.602   7.443  66.704  1.00  0.00    -0.128 C  
HETATM    7  N   UNL     1      -6.308   7.724  64.521  1.00  0.00    -0.048 N  
HETATM    8  C   UNL     1      -6.390   5.310  64.249  1.00  0.00    -0.026 C  
HETATM    9  OXT UNL     1      -6.720   4.146  64.420  1.00  0.00    -0.042 OA 
HETATM   10  O   UNL     1      -5.335   5.632  63.453  1.00  0.00    -0.013 OA 
HETATM   11  C   UNL     1      -6.887   8.969  64.461  1.00  0.00    -0.081 C  
HETATM   12  CA  UNL     1      -5.806   9.577  65.400  1.00  0.00    -0.063 C  
HETATM   13  O   UNL     1      -7.943   9.290  63.964  1.00  0.00    -0.123 OA 
ENDROOT
BRANCH  12  14
HETATM   14  N   UNL     1      -6.279  10.255  66.633  1.00  0.00    -0.066 N  
HETATM   15  C   UNL     1      -7.470  10.946  66.655  1.00  0.00    -0.139 C  
HETATM   16  H   UNL     1      -5.711  10.210  67.479  1.00  0.00     0.000 HD 
HETATM   17  O   UNL     1      -8.165  11.073  65.650  1.00  0.00    -0.130 OA 
HETATM   18  C   UNL     1      -7.845  11.580  67.981  1.00  0.00    -0.126 C  
HETATM   19  C   UNL     1      -8.161  10.485  68.982  1.00  0.00    -0.145 C  
HETATM   20  C   UNL     1      -6.861  12.663  68.463  1.00  0.00    -0.090 A  
HETATM   21  C   UNL     1      -6.193  13.482  67.534  1.00  0.00    -0.073 A  
HETATM   22  O   UNL     1      -7.339   9.912  69.688  1.00  0.00    -0.084 OA 
HETATM   23  C   UNL     1      -5.946  14.075  70.241  1.00  0.00    -0.158 A  
HETATM   24  C   UNL     1      -5.399  14.556  67.952  1.00  0.00    -0.082 A  
HETATM   25  C   UNL     1      -6.705  12.978  69.825  1.00  0.00     0.158 A  
HETATM   26  C   UNL     1      -5.290  14.862  69.304  1.00  0.00    -0.090 A  
BRANCH  19  27
HETATM   27  O   UNL     1      -9.523  10.200  68.949  1.00  0.00    -0.163 OA 
BRANCH  27  28
HETATM   28  C   UNL     1     -10.294  11.219  68.376  1.00  0.00    -0.192 A  
HETATM   29  C   UNL     1     -10.778  13.539  68.076  1.00  0.00    -0.263 A  
HETATM   30  C   UNL     1     -10.058  12.551  68.714  1.00  0.00    -0.061 A  
HETATM   31  C   UNL     1     -11.674  13.228  67.062  1.00  0.00    -0.439 A  
HETATM   32  C   UNL     1     -11.886  11.907  66.684  1.00  0.00    -0.150 A  
HETATM   33  C   UNL     1     -12.272  14.464  66.475  1.00  0.00    -0.358 C  
HETATM   34  C   UNL     1     -11.670  15.598  67.325  1.00  0.00     0.182 C  
HETATM   35  C   UNL     1     -11.191  10.890  67.354  1.00  0.00    -0.345 A  
HETATM   36  C   UNL     1     -10.690  15.002  68.342  1.00  0.00    -0.245 C  
ENDBRANCH  27  28
ENDBRANCH  19  27
ENDBRANCH  12  14
TORSDOF 3
ENDMDL
MODEL      160
REMARK 921   NORMALIZED FREE ENERGY PREDICTED BY IDOCK:   -1.45 KCAL/MOL
REMARK 922        TOTAL FREE ENERGY PREDICTED BY IDOCK:   -2.58 KCAL/MOL
REMARK 923 INTER-LIGAND FREE ENERGY PREDICTED BY IDOCK:   -1.21 KCAL/MOL
REMARK 924 INTRA-LIGAND FREE ENERGY PREDICTED BY IDOCK:   -1.36 KCAL/MOL
REMARK 927      BINDING AFFINITY PREDICTED BY RF-SCORE:    0.00 PKD
ROOT
HETATM    1  C   UNL     1      -9.134   9.826  70.883  1.00  0.00     0.390 C  
HETATM    2  S   UNL     1     -10.428  10.131  69.614  1.00  0.00    -0.265 SA 
HETATM    3  C   UNL     1     -10.233   8.474  68.806  1.00  0.00    -0.200 C  
HETATM    4  C   UNL     1     -11.590   7.992  68.282  1.00  0.00     1.485 C  
HETATM    5  CA  UNL     1      -9.576   7.573  69.882  1.00  0.00    -0.160 C  
HETATM    6  C   UNL     1      -9.319   8.666  67.578  1.00  0.00    -0.162 C  
HETATM    7  N   UNL     1      -8.686   8.435  70.684  1.00  0.00    -0.138 N  
HETATM    8  C   UNL     1     -10.547   6.881  70.861  1.00  0.00    -0.218 C  
HETATM    9  OXT UNL     1     -11.506   6.197  70.536  1.00  0.00    -0.342 OA 
HETATM   10  O   UNL     1     -10.193   7.023  72.166  1.00  0.00    -0.185 OA 
HETATM   11  C   UNL     1      -7.458   8.802  70.188  1.00  0.00    -0.056 C  
HETATM   12  CA  UNL     1      -7.700  10.297  70.542  1.00  0.00     0.541 C  
HETATM   13  O   UNL     1      -6.659   8.132  69.574  1.00  0.00    -0.037 OA 
ENDROOT
BRANCH  12  14
HETATM   14  N   UNL     1      -7.590  11.284  69.439  1.00  0.00    -0.349 N  
HETATM   15  C   UNL     1      -6.367  11.617  68.899  1.00  0.00    -0.062 C  
HETATM   16  H   UNL     1      -8.434  11.725  69.074  1.00  0.00     0.000 HD 
HETATM   17  O   UNL     1      -5.317  11.152  69.336  1.00  0.00    -0.044 OA 
HETATM   18  C   UNL     1      -6.393  12.626  67.767  1.00  0.00    -0.130 C  
HETATM   19  C   UNL     1      -7.049  11.994  66.554  1.00  0.00     0.294 C  
HETATM   20  C   UNL     1      -6.930  14.012  68.171  1.00  0.00    -0.120 A  
HETATM   21  C   UNL     1      -6.701  14.515  69.465  1.00  0.00    -0.151 A  
HETATM   22  O   UNL     1      -8.254  11.973  66.331  1.00  0.00    -0.053 OA 
HETATM   23  C   UNL     1      -7.851  16.201  67.574  1.00  0.00    -0.169 A  
HETATM   24  C   UNL     1      -7.063  15.822  69.811  1.00  0.00    -0.077 A  
HETATM   25  C   UNL     1      -7.527  14.882  67.241  1.00  0.00    -0.193 A  
HETATM   26  C   UNL     1      -7.622  16.670  68.861  1.00  0.00    -0.240 A  
BRANCH  19  27
HETATM   27  O   UNL     1      -6.078  11.403  65.752  1.00  0.00    -0.002 OA 
BRANCH  27  28
HETATM   28  C   UNL     1      -6.280  10.032  65.548  1.00  0.00    -0.092 A  
HETATM   29  C   UNL     1      -6.130   7.774  66.312  1.00  0.00    -0.045 A  
HETATM   30  C   UNL     1      -5.849   9.111  66.502  1.00  0.00    -0.058 A  
HETATM   31  C   UNL     1      -6.890   7.351  65.230  1.00  0.00    -0.048 A  
HETATM   32  C   UNL     1      -7.364   8.264  64.295  1.00  0.00    -0.093 A  
HETATM   33  C   UNL     1      -7.125   5.877  65.282  1.00  0.00    -0.065 C  
HETATM   34  C   UNL     1      -6.333   5.426  66.523  1.00  0.00    -0.039 C  
HETATM   35  C   UNL     1      -7.050   9.622  64.454  1.00  0.00    -0.118 A  
HETATM   36  C   UNL     1      -5.711   6.654  67.199  1.00  0.00    -0.013 C  
ENDBRANCH  27  28
ENDBRANCH  19  27
ENDBRANCH  12  14
TORSDOF 3
ENDMDL
MODEL      161
REMARK 921   NORMALIZED FREE ENERGY PREDICTED BY IDOCK:   -1.34 KCAL/MOL
REMARK 922        TOTAL FREE ENERGY PREDICTED BY IDOCK:   -2.45 KCAL/MOL
REMARK 923 INTER-LIGAND FREE ENERGY PREDICTED BY IDOCK:   -1.94 KCAL/MOL
REMARK 924 INTRA-LIGAND FREE ENERGY PREDICTED BY IDOCK:   -0.51 KCAL/MOL
REMARK 927      BINDING AFFINITY PREDICTED BY RF-SCORE:    0.00 PKD
ROOT
HETATM    1  C   UNL     1      -9.542  13.755  68.635  1.00  0.00    -0.121 C  
HETATM    2  S   UNL     1      -8.670  13.852  67.019  1.00  0.00    -0.161 SA 
HETATM    3  C   UNL     1     -10.076  14.686  66.144  1.00  0.00    -0.300 C  
HETATM    4  C   UNL     1      -9.528  15.654  65.090  1.00  0.00     0.454 C  
HETATM    5  CA  UNL     1     -10.924  15.336  67.268  1.00  0.00    -0.327 C  
HETATM    6  C   UNL     1     -10.860  13.594  65.388  1.00  0.00    -0.302 C  
HETATM    7  N   UNL     1     -10.827  14.454  68.448  1.00  0.00    -0.241 N  
HETATM    8  C   UNL     1     -10.482  16.745  67.712  1.00  0.00    -0.335 C  
HETATM    9  OXT UNL     1     -10.311  17.697  66.965  1.00  0.00    -0.322 OA 
HETATM   10  O   UNL     1     -10.372  16.879  69.060  1.00  0.00    -0.297 OA 
HETATM   11  C   UNL     1     -11.570  13.300  68.504  1.00  0.00    -0.333 C  
HETATM   12  CA  UNL     1     -10.332  12.457  68.923  1.00  0.00    -0.049 C  
HETATM   13  O   UNL     1     -12.716  13.120  68.159  1.00  0.00     0.519 OA 
ENDROOT
BRANCH  12  14
HETATM   14  N   UNL     1      -9.985  11.288  68.077  1.00  0.00    -0.174 N  
HETATM   15  C   UNL     1      -8.886  10.506  68.356  1.00  0.00    -0.140 C  
HETATM   16  H   UNL     1     -10.570  11.059  67.273  1.00  0.00     0.000 HD 
HETATM   17  O   UNL     1      -8.122  10.769  69.282  1.00  0.00    -0.150 OA 
HETATM   18  C   UNL     1      -8.651   9.333  67.424  1.00  0.00    -0.122 C  
HETATM   19  C   UNL     1      -9.755   8.312  67.625  1.00  0.00    -0.159 C  
HETATM   20  C   UNL     1      -8.370   9.734  65.964  1.00  0.00    -0.123 A  
HETATM   21  C   UNL     1      -7.678  10.925  65.674  1.00  0.00     0.012 A  
HETATM   22  O   UNL     1     -10.841   8.321  67.057  1.00  0.00    -0.245 OA 
HETATM   23  C   UNL     1      -8.233   9.172  63.585  1.00  0.00    -0.174 A  
HETATM   24  C   UNL     1      -7.296  11.242  64.365  1.00  0.00     1.320 A  
HETATM   25  C   UNL     1      -8.651   8.876  64.886  1.00  0.00    -0.198 A  
HETATM   26  C   UNL     1      -7.558  10.358  63.324  1.00  0.00    -0.077 A  
BRANCH  19  27
HETATM   27  O   UNL     1      -9.364   7.383  68.585  1.00  0.00    -0.140 OA 
BRANCH  27  28
HETATM   28  C   UNL     1     -10.229   7.318  69.684  1.00  0.00    -0.211 A  
HETATM   29  C   UNL     1     -12.295   7.890  70.739  1.00  0.00     0.004 A  
HETATM   30  C   UNL     1     -11.426   8.033  69.678  1.00  0.00     0.321 A  
HETATM   31  C   UNL     1     -12.024   6.997  71.767  1.00  0.00    -0.361 A  
HETATM   32  C   UNL     1     -10.856   6.244  71.764  1.00  0.00    -0.294 A  
HETATM   33  C   UNL     1     -13.143   6.962  72.756  1.00  0.00     1.029 C  
HETATM   34  C   UNL     1     -14.126   8.025  72.232  1.00  0.00    -0.256 C  
HETATM   35  C   UNL     1      -9.945   6.412  70.711  1.00  0.00    -0.212 A  
HETATM   36  C   UNL     1     -13.588   8.606  70.919  1.00  0.00     0.229 C  
ENDBRANCH  27  28
ENDBRANCH  19  27
ENDBRANCH  12  14
TORSDOF 3
ENDMDL
MODEL      162
REMARK 921   NORMALIZED FREE ENERGY PREDICTED BY IDOCK:   -1.15 KCAL/MOL
REMARK 922        TOTAL FREE ENERGY PREDICTED BY IDOCK:   -2.22 KCAL/MOL
REMARK 923 INTER-LIGAND FREE ENERGY PREDICTED BY IDOCK:   -4.28 KCAL/MOL
REMARK 924 INTRA-LIGAND FREE ENERGY PREDICTED BY IDOCK:    2.05 KCAL/MOL
REMARK 927      BINDING AFFINITY PREDICTED BY RF-SCORE:    0.00 PKD
ROOT
HETATM    1  C   UNL     1      -5.848  12.164  67.717  1.00  0.00    -0.089 C  
HETATM    2  S   UNL     1      -7.399  12.589  66.827  1.00  0.00     0.462 SA 
HETATM    3  C   UNL     1      -8.258  13.242  68.336  1.00  0.00    -0.134 C  
HETATM    4  C   UNL     1      -9.182  14.400  67.944  1.00  0.00    -0.195 C  
HETATM    5  CA  UNL     1      -7.121  13.602  69.325  1.00  0.00     0.018 C  
HETATM    6  C   UNL     1      -9.158  12.111  68.877  1.00  0.00     0.230 C  
HETATM    7  N   UNL     1      -6.030  12.632  69.103  1.00  0.00    -0.080 N  
HETATM    8  C   UNL     1      -6.518  15.013  69.169  1.00  0.00    -0.116 C  
HETATM    9  OXT UNL     1      -7.157  16.054  69.156  1.00  0.00    -0.171 OA 
HETATM   10  O   UNL     1      -5.159  15.020  69.129  1.00  0.00    -0.094 OA 
HETATM   11  C   UNL     1      -6.127  11.362  69.619  1.00  0.00    -0.110 C  
HETATM   12  CA  UNL     1      -5.730  10.720  68.259  1.00  0.00    -0.043 C  
HETATM   13  O   UNL     1      -6.546  11.014  70.700  1.00  0.00    -0.287 OA 
ENDROOT
BRANCH  12  14
HETATM   14  N   UNL     1      -6.669   9.731  67.673  1.00  0.00    -0.069 N  
HETATM   15  C   UNL     1      -7.664   9.155  68.431  1.00  0.00    -0.094 C  
HETATM   16  H   UNL     1      -6.575   9.473  66.690  1.00  0.00     0.000 HD 
HETATM   17  O   UNL     1      -7.787   9.395  69.630  1.00  0.00    -0.086 OA 
HETATM   18  C   UNL     1      -8.566   8.173  67.709  1.00  0.00    -0.131 C  
HETATM   19  C   UNL     1      -9.411   8.926  66.699  1.00  0.00    -0.202 C  
HETATM   20  C   UNL     1      -7.838   6.926  67.172  1.00  0.00    -0.109 A  
HETATM   21  C   UNL     1      -6.741   6.387  67.871  1.00  0.00    -0.064 A  
HETATM   22  O   UNL     1      -9.074   9.193  65.551  1.00  0.00    -0.198 OA 
HETATM   23  C   UNL     1      -7.754   4.972  65.699  1.00  0.00    -0.087 A  
HETATM   24  C   UNL     1      -6.150   5.182  67.475  1.00  0.00    -0.030 A  
HETATM   25  C   UNL     1      -8.318   6.197  66.070  1.00  0.00    -0.136 A  
HETATM   26  C   UNL     1      -6.667   4.466  66.400  1.00  0.00    -0.050 A  
BRANCH  19  27
HETATM   27  O   UNL     1     -10.614   9.306  67.288  1.00  0.00    -0.264 OA 
BRANCH  27  28
HETATM   28  C   UNL     1     -10.991  10.621  66.988  1.00  0.00    -0.208 A  
HETATM   29  C   UNL     1     -11.101  12.454  65.461  1.00  0.00    -0.338 A  
HETATM   30  C   UNL     1     -10.650  11.186  65.760  1.00  0.00    -0.289 A  
HETATM   31  C   UNL     1     -11.940  13.137  66.331  1.00  0.00    -0.462 A  
HETATM   32  C   UNL     1     -12.325  12.567  67.539  1.00  0.00     0.442 A  
HETATM   33  C   UNL     1     -12.355  14.451  65.757  1.00  0.00    -0.345 C  
HETATM   34  C   UNL     1     -11.588  14.524  64.423  1.00  0.00    -0.325 C  
HETATM   35  C   UNL     1     -11.839  11.295  67.874  1.00  0.00    -0.209 A  
HETATM   36  C   UNL     1     -10.798  13.226  64.224  1.00  0.00    -0.414 C  
ENDBRANCH  27  28
ENDBRANCH  19  27
ENDBRANCH  12  14
TORSDOF 3
ENDMDL
MODEL      163
REMARK 921   NORMALIZED FREE ENERGY PREDICTED BY IDOCK:   -1.09 KCAL/MOL
REMARK 922        TOTAL FREE ENERGY PREDICTED BY IDOCK:   -2.16 KCAL/MOL
REMARK 923 INTER-LIGAND FREE ENERGY PREDICTED BY IDOCK:   -4.49 KCAL/MOL
REMARK 924 INTRA-LIGAND FREE ENERGY PREDICTED BY IDOCK:    2.33 KCAL/MOL
REMARK 927      BINDING AFFINITY PREDICTED BY RF-SCORE:    0.00 PKD
ROOT
HETATM    1  C   UNL     1      -9.884  17.016  68.808  1.00  0.00    -0.278 C  
HETATM    2  S   UNL     1      -8.420  15.905  68.840  1.00  0.00    -0.234 SA 
HETATM    3  C   UNL     1      -7.837  16.383  67.145  1.00  0.00    -0.189 C  
HETATM    4  C   UNL     1      -6.306  16.353  67.098  1.00  0.00    -0.215 C  
HETATM    5  CA  UNL     1      -8.485  17.764  66.869  1.00  0.00    -0.243 C  
HETATM    6  C   UNL     1      -8.339  15.303  66.165  1.00  0.00     0.406 C  
HETATM    7  N   UNL     1      -9.799  17.768  67.542  1.00  0.00    -0.295 N  
HETATM    8  C   UNL     1      -7.702  18.988  67.386  1.00  0.00    -0.234 C  
HETATM    9  OXT UNL     1      -6.528  19.226  67.144  1.00  0.00    -0.188 OA 
HETATM   10  O   UNL     1      -8.467  19.863  68.091  1.00  0.00    -0.309 OA 
HETATM   11  C   UNL     1     -10.863  17.113  66.971  1.00  0.00    -0.044 C  
HETATM   12  CA  UNL     1     -11.213  16.401  68.310  1.00  0.00    -0.300 C  
HETATM   13  O   UNL     1     -11.187  17.066  65.807  1.00  0.00     0.166 OA 
ENDROOT
BRANCH  12  14
HETATM   14  N   UNL     1     -11.274  14.918  68.297  1.00  0.00    -0.280 N  
HETATM   15  C   UNL     1     -10.653  14.170  69.272  1.00  0.00    -0.104 C  
HETATM   16  H   UNL     1     -11.786  14.444  67.552  1.00  0.00     0.000 HD 
HETATM   17  O   UNL     1      -9.984  14.691  70.161  1.00  0.00     0.273 OA 
HETATM   18  C   UNL     1     -10.805  12.666  69.153  1.00  0.00    -0.127 C  
HETATM   19  C   UNL     1     -12.251  12.291  69.420  1.00  0.00    -0.065 C  
HETATM   20  C   UNL     1     -10.185  12.068  67.876  1.00  0.00    -0.203 A  
HETATM   21  C   UNL     1      -9.025  12.636  67.315  1.00  0.00    -0.194 A  
HETATM   22  O   UNL     1     -13.144  12.272  68.581  1.00  0.00     1.587 OA 
HETATM   23  C   UNL     1      -9.971  10.241  66.261  1.00  0.00    -0.295 A  
HETATM   24  C   UNL     1      -8.371  12.032  66.236  1.00  0.00     0.141 A  
HETATM   25  C   UNL     1     -10.648  10.866  67.312  1.00  0.00    -0.296 A  
HETATM   26  C   UNL     1      -8.833  10.826  65.721  1.00  0.00    -0.201 A  
BRANCH  19  27
HETATM   27  O   UNL     1     -12.419  12.011  70.773  1.00  0.00    -0.348 OA 
BRANCH  27  28
HETATM   28  C   UNL     1     -12.413  10.641  71.064  1.00  0.00    -0.413 A  
HETATM   29  C   UNL     1     -11.276   8.685  71.829  1.00  0.00    -0.396 A  
HETATM   30  C   UNL     1     -11.236  10.016  71.474  1.00  0.00    -0.012 A  
HETATM   31  C   UNL     1     -12.476   7.987  71.850  1.00  0.00    -0.364 A  
HETATM   32  C   UNL     1     -13.665   8.610  71.487  1.00  0.00    -0.368 A  
HETATM   33  C   UNL     1     -12.277   6.591  72.339  1.00  0.00    -0.097 C  
HETATM   34  C   UNL     1     -10.755   6.493  72.552  1.00  0.00    -0.255 C  
HETATM   35  C   UNL     1     -13.631   9.953  71.084  1.00  0.00    -0.223 A  
HETATM   36  C   UNL     1     -10.114   7.851  72.244  1.00  0.00    -0.297 C  
ENDBRANCH  27  28
ENDBRANCH  19  27
ENDBRANCH  12  14
TORSDOF 3
ENDMDL
MODEL      164
REMARK 921   NORMALIZED FREE ENERGY PREDICTED BY IDOCK:   -1.03 KCAL/MOL
REMARK 922        TOTAL FREE ENERGY PREDICTED BY IDOCK:   -2.08 KCAL/MOL
REMARK 923 INTER-LIGAND FREE ENERGY PREDICTED BY IDOCK:   -3.04 KCAL/MOL
REMARK 924 INTRA-LIGAND FREE ENERGY PREDICTED BY IDOCK:    0.96 KCAL/MOL
REMARK 927      BINDING AFFINITY PREDICTED BY RF-SCORE:    0.00 PKD
ROOT
HETATM    1  C   UNL     1      -7.380   4.777  66.887  1.00  0.00    -0.082 C  
HETATM    2  S   UNL     1      -9.067   5.281  66.356  1.00  0.00    -0.142 SA 
HETATM    3  C   UNL     1      -8.561   5.672  64.615  1.00  0.00    -0.029 C  
HETATM    4  C   UNL     1      -9.708   5.337  63.657  1.00  0.00     0.950 C  
HETATM    5  CA  UNL     1      -7.249   4.879  64.387  1.00  0.00    -0.055 C  
HETATM    6  C   UNL     1      -8.336   7.196  64.533  1.00  0.00     0.085 C  
HETATM    7  N   UNL     1      -6.536   4.841  65.680  1.00  0.00    -0.039 N  
HETATM    8  C   UNL     1      -7.419   3.421  63.915  1.00  0.00    -0.066 C  
HETATM    9  OXT UNL     1      -8.079   3.066  62.950  1.00  0.00    -0.071 OA 
HETATM   10  O   UNL     1      -6.683   2.529  64.631  1.00  0.00    -0.036 OA 
HETATM   11  C   UNL     1      -5.838   5.944  66.111  1.00  0.00    -0.021 C  
HETATM   12  CA  UNL     1      -6.493   5.875  67.520  1.00  0.00    -0.047 C  
HETATM   13  O   UNL     1      -5.139   6.695  65.470  1.00  0.00    -0.017 OA 
ENDROOT
BRANCH  12  14
HETATM   14  N   UNL     1      -7.205   7.085  68.000  1.00  0.00    -0.092 N  
HETATM   15  C   UNL     1      -8.262   6.989  68.878  1.00  0.00    -0.122 C  
HETATM   16  H   UNL     1      -6.908   8.005  67.674  1.00  0.00     0.000 HD 
HETATM   17  O   UNL     1      -8.690   5.904  69.261  1.00  0.00    -0.117 OA 
HETATM   18  C   UNL     1      -8.894   8.301  69.303  1.00  0.00    -0.143 C  
HETATM   19  C   UNL     1      -7.909   9.069  70.165  1.00  0.00    -0.100 C  
HETATM   20  C   UNL     1      -9.533   9.096  68.149  1.00  0.00    -0.155 A  
HETATM   21  C   UNL     1     -10.133   8.423  67.068  1.00  0.00    -0.354 A  
HETATM   22  O   UNL     1      -7.039   9.824  69.745  1.00  0.00    -0.069 OA 
HETATM   23  C   UNL     1     -10.416  11.187  67.230  1.00  0.00    -0.263 A  
HETATM   24  C   UNL     1     -10.834   9.121  66.079  1.00  0.00     1.151 A  
HETATM   25  C   UNL     1      -9.680  10.494  68.196  1.00  0.00    -0.166 A  
HETATM   26  C   UNL     1     -10.990  10.500  66.169  1.00  0.00     0.068 A  
BRANCH  19  27
HETATM   27  O   UNL     1      -8.115   8.754  71.505  1.00  0.00    -0.160 OA 
BRANCH  27  28
HETATM   28  C   UNL     1      -9.467   8.716  71.868  1.00  0.00    -0.299 A  
HETATM   29  C   UNL     1     -11.725   9.423  71.545  1.00  0.00    -0.465 A  
HETATM   30  C   UNL     1     -10.390   9.537  71.221  1.00  0.00    -0.287 A  
HETATM   31  C   UNL     1     -12.162   8.462  72.446  1.00  0.00    -0.430 A  
HETATM   32  C   UNL     1     -11.257   7.607  73.066  1.00  0.00    -0.388 A  
HETATM   33  C   UNL     1     -13.649   8.482  72.575  1.00  0.00    -0.266 C  
HETATM   34  C   UNL     1     -14.077   9.654  71.671  1.00  0.00    -0.023 C  
HETATM   35  C   UNL     1      -9.892   7.740  72.776  1.00  0.00    -0.307 A  
HETATM   36  C   UNL     1     -12.837  10.244  70.991  1.00  0.00    -0.490 C  
ENDBRANCH  27  28
ENDBRANCH  19  27
ENDBRANCH  12  14
TORSDOF 3
ENDMDL
MODEL      165
REMARK 921   NORMALIZED FREE ENERGY PREDICTED BY IDOCK:   -1.01 KCAL/MOL
REMARK 922        TOTAL FREE ENERGY PREDICTED BY IDOCK:   -2.06 KCAL/MOL
REMARK 923 INTER-LIGAND FREE ENERGY PREDICTED BY IDOCK:   -0.68 KCAL/MOL
REMARK 924 INTRA-LIGAND FREE ENERGY PREDICTED BY IDOCK:   -1.38 KCAL/MOL
REMARK 927      BINDING AFFINITY PREDICTED BY RF-SCORE:    0.00 PKD
ROOT
HETATM    1  C   UNL     1      -8.559  12.877  69.469  1.00  0.00     1.562 C  
HETATM    2  S   UNL     1     -10.282  13.307  69.944  1.00  0.00     1.837 SA 
HETATM    3  C   UNL     1     -11.062  12.120  68.752  1.00  0.00    -0.250 C  
HETATM    4  C   UNL     1     -12.356  11.560  69.352  1.00  0.00    -0.157 C  
HETATM    5  CA  UNL     1      -9.962  11.072  68.446  1.00  0.00    -0.186 C  
HETATM    6  C   UNL     1     -11.459  12.923  67.496  1.00  0.00    -0.386 C  
HETATM    7  N   UNL     1      -8.666  11.778  68.493  1.00  0.00    -0.150 N  
HETATM    8  C   UNL     1      -9.873   9.887  69.429  1.00  0.00    -0.217 C  
HETATM    9  OXT UNL     1     -10.805   9.163  69.746  1.00  0.00    -0.228 OA 
HETATM   10  O   UNL     1      -8.610   9.643  69.872  1.00  0.00    -0.168 OA 
HETATM   11  C   UNL     1      -8.271  12.556  67.431  1.00  0.00    -0.183 C  
HETATM   12  CA  UNL     1      -7.904  13.743  68.367  1.00  0.00    -0.143 C  
HETATM   13  O   UNL     1      -8.386  12.335  66.247  1.00  0.00     0.068 OA 
ENDROOT
BRANCH  12  14
HETATM   14  N   UNL     1      -8.556  15.049  68.099  1.00  0.00    -0.152 N  
HETATM   15  C   UNL     1      -8.227  15.796  66.990  1.00  0.00    -0.228 C  
HETATM   16  H   UNL     1      -9.260  15.401  68.748  1.00  0.00     0.000 HD 
HETATM   17  O   UNL     1      -7.350  15.441  66.205  1.00  0.00     0.481 OA 
HETATM   18  C   UNL     1      -8.976  17.104  66.823  1.00  0.00    -0.263 C  
HETATM   19  C   UNL     1     -10.431  16.805  66.513  1.00  0.00    -0.258 C  
HETATM   20  C   UNL     1      -8.730  18.121  67.953  1.00  0.00    -0.266 A  
HETATM   21  C   UNL     1      -7.478  18.183  68.593  1.00  0.00    -0.300 A  
HETATM   22  O   UNL     1     -11.308  16.610  67.347  1.00  0.00     0.022 OA 
HETATM   23  C   UNL     1      -9.369  20.135  69.188  1.00  0.00     0.201 A  
HETATM   24  C   UNL     1      -7.190  19.184  69.528  1.00  0.00    -0.126 A  
HETATM   25  C   UNL     1      -9.671  19.111  68.286  1.00  0.00    -0.439 A  
HETATM   26  C   UNL     1      -8.129  20.170  69.812  1.00  0.00     0.779 A  
BRANCH  19  27
HETATM   27  O   UNL     1     -10.612  16.744  65.134  1.00  0.00    -0.663 OA 
BRANCH  27  28
HETATM   28  C   UNL     1     -11.100  15.509  64.688  1.00  0.00    -0.359 A  
HETATM   29  C   UNL     1     -10.728  13.243  64.031  1.00  0.00    -0.254 A  
HETATM   30  C   UNL     1     -10.217  14.472  64.393  1.00  0.00     0.532 A  
HETATM   31  C   UNL     1     -12.097  13.013  64.028  1.00  0.00    -0.519 A  
HETATM   32  C   UNL     1     -12.988  14.025  64.364  1.00  0.00     0.394 A  
HETATM   33  C   UNL     1     -12.402  11.593  63.680  1.00  0.00    -0.338 C  
HETATM   34  C   UNL     1     -11.017  10.983  63.391  1.00  0.00     0.044 C  
HETATM   35  C   UNL     1     -12.482  15.291  64.693  1.00  0.00     0.019 A  
HETATM   36  C   UNL     1      -9.938  12.043  63.641  1.00  0.00    -0.387 C  
ENDBRANCH  27  28
ENDBRANCH  19  27
ENDBRANCH  12  14
TORSDOF 3
ENDMDL
MODEL      166
REMARK 921   NORMALIZED FREE ENERGY PREDICTED BY IDOCK:   -0.71 KCAL/MOL
REMARK 922        TOTAL FREE ENERGY PREDICTED BY IDOCK:   -1.71 KCAL/MOL
REMARK 923 INTER-LIGAND FREE ENERGY PREDICTED BY IDOCK:   -3.49 KCAL/MOL
REMARK 924 INTRA-LIGAND FREE ENERGY PREDICTED BY IDOCK:    1.78 KCAL/MOL
REMARK 927      BINDING AFFINITY PREDICTED BY RF-SCORE:    0.00 PKD
ROOT
HETATM    1  C   UNL     1      -6.421   4.265  66.508  1.00  0.00    -0.037 C  
HETATM    2  S   UNL     1      -8.148   3.959  67.057  1.00  0.00    -0.096 SA 
HETATM    3  C   UNL     1      -8.898   4.359  65.409  1.00  0.00    -0.133 C  
HETATM    4  C   UNL     1     -10.133   3.482  65.177  1.00  0.00     0.038 C  
HETATM    5  CA  UNL     1      -7.748   4.174  64.386  1.00  0.00    -0.084 C  
HETATM    6  C   UNL     1      -9.388   5.820  65.469  1.00  0.00     0.077 C  
HETATM    7  N   UNL     1      -6.497   4.563  65.066  1.00  0.00    -0.035 N  
HETATM    8  C   UNL     1      -7.552   2.742  63.849  1.00  0.00    -0.067 C  
HETATM    9  OXT UNL     1      -8.426   2.052  63.346  1.00  0.00    -0.079 OA 
HETATM   10  O   UNL     1      -6.262   2.315  63.900  1.00  0.00    -0.013 OA 
HETATM   11  C   UNL     1      -6.189   5.892  65.228  1.00  0.00    -0.037 C  
HETATM   12  CA  UNL     1      -5.860   5.689  66.734  1.00  0.00    -0.018 C  
HETATM   13  O   UNL     1      -6.333   6.803  64.445  1.00  0.00    -0.034 OA 
ENDROOT
BRANCH  12  14
HETATM   14  N   UNL     1      -6.599   6.526  67.712  1.00  0.00    -0.059 N  
HETATM   15  C   UNL     1      -7.404   7.564  67.298  1.00  0.00    -0.098 C  
HETATM   16  H   UNL     1      -6.509   6.330  68.709  1.00  0.00     0.000 HD 
HETATM   17  O   UNL     1      -7.507   7.872  66.113  1.00  0.00    -0.076 OA 
HETATM   18  C   UNL     1      -8.116   8.332  68.395  1.00  0.00    -0.127 C  
HETATM   19  C   UNL     1      -9.158   7.433  69.033  1.00  0.00    -0.133 C  
HETATM   20  C   UNL     1      -7.171   9.056  69.372  1.00  0.00    -0.057 A  
HETATM   21  C   UNL     1      -5.947   9.583  68.919  1.00  0.00    -0.042 A  
HETATM   22  O   UNL     1      -8.952   6.650  69.954  1.00  0.00    -0.143 OA 
HETATM   23  C   UNL     1      -6.759  10.161  71.518  1.00  0.00     0.868 A  
HETATM   24  C   UNL     1      -5.137  10.359  69.757  1.00  0.00    -0.038 A  
HETATM   25  C   UNL     1      -7.547   9.352  70.695  1.00  0.00    -0.163 A  
HETATM   26  C   UNL     1      -5.551  10.662  71.049  1.00  0.00    -0.064 A  
BRANCH  19  27
HETATM   27  O   UNL     1     -10.379   7.600  68.385  1.00  0.00    -0.192 OA 
BRANCH  27  28
HETATM   28  C   UNL     1     -10.619   8.918  67.976  1.00  0.00    -0.168 A  
HETATM   29  C   UNL     1     -11.178  11.182  68.488  1.00  0.00    -0.318 A  
HETATM   30  C   UNL     1     -11.025   9.876  68.903  1.00  0.00    -0.214 A  
HETATM   31  C   UNL     1     -10.867  11.560  67.189  1.00  0.00    -0.314 A  
HETATM   32  C   UNL     1     -10.418  10.622  66.266  1.00  0.00    -0.268 A  
HETATM   33  C   UNL     1     -11.039  13.031  67.001  1.00  0.00    -0.311 C  
HETATM   34  C   UNL     1     -11.578  13.511  68.362  1.00  0.00    -0.378 C  
HETATM   35  C   UNL     1     -10.298   9.283  66.664  1.00  0.00    -0.292 A  
HETATM   36  C   UNL     1     -11.645  12.321  69.326  1.00  0.00    -0.383 C  
ENDBRANCH  27  28
ENDBRANCH  19  27
ENDBRANCH  12  14
TORSDOF 3
ENDMDL
MODEL      167
REMARK 921   NORMALIZED FREE ENERGY PREDICTED BY IDOCK:   -0.64 KCAL/MOL
REMARK 922        TOTAL FREE ENERGY PREDICTED BY IDOCK:   -1.63 KCAL/MOL
REMARK 923 INTER-LIGAND FREE ENERGY PREDICTED BY IDOCK:   -3.03 KCAL/MOL
REMARK 924 INTRA-LIGAND FREE ENERGY PREDICTED BY IDOCK:    1.41 KCAL/MOL
REMARK 927      BINDING AFFINITY PREDICTED BY RF-SCORE:    0.00 PKD
ROOT
HETATM    1  C   UNL     1     -12.141  13.392  68.222  1.00  0.00    -0.236 C  
HETATM    2  S   UNL     1     -10.693  12.674  67.346  1.00  0.00    -0.233 SA 
HETATM    3  C   UNL     1     -10.046  11.784  68.838  1.00  0.00    -0.071 C  
HETATM    4  C   UNL     1      -9.386  10.469  68.409  1.00  0.00    -0.158 C  
HETATM    5  CA  UNL     1     -11.265  11.639  69.784  1.00  0.00    -0.127 C  
HETATM    6  C   UNL     1      -8.938  12.663  69.453  1.00  0.00     1.277 C  
HETATM    7  N   UNL     1     -12.109  12.835  69.587  1.00  0.00    -0.264 N  
HETATM    8  C   UNL     1     -12.157  10.404  69.545  1.00  0.00    -0.054 C  
HETATM    9  OXT UNL     1     -11.762   9.249  69.493  1.00  0.00     0.217 OA 
HETATM   10  O   UNL     1     -13.483  10.698  69.476  1.00  0.00     0.431 OA 
HETATM   11  C   UNL     1     -11.753  14.028  70.168  1.00  0.00    -0.261 C  
HETATM   12  CA  UNL     1     -11.957  14.801  68.833  1.00  0.00    -0.263 C  
HETATM   13  O   UNL     1     -11.303  14.228  71.273  1.00  0.00     0.077 OA 
ENDROOT
BRANCH  12  14
HETATM   14  N   UNL     1     -10.806  15.584  68.317  1.00  0.00    -0.280 N  
HETATM   15  C   UNL     1      -9.965  16.262  69.170  1.00  0.00    -0.260 C  
HETATM   16  H   UNL     1     -10.636  15.620  67.312  1.00  0.00     0.000 HD 
HETATM   17  O   UNL     1     -10.156  16.290  70.383  1.00  0.00     0.243 OA 
HETATM   18  C   UNL     1      -8.818  17.010  68.517  1.00  0.00    -0.253 C  
HETATM   19  C   UNL     1      -7.842  16.007  67.932  1.00  0.00    -0.138 C  
HETATM   20  C   UNL     1      -9.262  18.141  67.571  1.00  0.00    -0.257 A  
HETATM   21  C   UNL     1     -10.429  18.879  67.842  1.00  0.00    -0.459 A  
HETATM   22  O   UNL     1      -7.923  15.508  66.815  1.00  0.00    -0.233 OA 
HETATM   23  C   UNL     1      -8.785  19.718  65.759  1.00  0.00     0.003 A  
HETATM   24  C   UNL     1     -10.778  19.994  67.071  1.00  0.00    -0.366 A  
HETATM   25  C   UNL     1      -8.459  18.580  66.503  1.00  0.00    -0.291 A  
HETATM   26  C   UNL     1      -9.948  20.423  66.042  1.00  0.00    -0.262 A  
BRANCH  19  27
HETATM   27  O   UNL     1      -6.860  15.707  68.872  1.00  0.00    -0.114 OA 
BRANCH  27  28
HETATM   28  C   UNL     1      -6.364  14.401  68.763  1.00  0.00    -0.086 A  
HETATM   29  C   UNL     1      -5.784  12.310  69.761  1.00  0.00    -0.112 A  
HETATM   30  C   UNL     1      -6.200  13.617  69.904  1.00  0.00    -0.118 A  
HETATM   31  C   UNL     1      -5.598  11.754  68.502  1.00  0.00    -0.048 A  
HETATM   32  C   UNL     1      -5.802  12.512  67.355  1.00  0.00    -0.137 A  
HETATM   33  C   UNL     1      -5.224  10.312  68.602  1.00  0.00    -0.038 C  
HETATM   34  C   UNL     1      -5.131  10.064  70.119  1.00  0.00    -0.037 C  
HETATM   35  C   UNL     1      -6.184  13.854  67.488  1.00  0.00    -0.016 A  
HETATM   36  C   UNL     1      -5.514  11.347  70.864  1.00  0.00    -0.106 C  
ENDBRANCH  27  28
ENDBRANCH  19  27
ENDBRANCH  12  14
TORSDOF 3
ENDMDL
MODEL      168
REMARK 921   NORMALIZED FREE ENERGY PREDICTED BY IDOCK:   -0.54 KCAL/MOL
REMARK 922        TOTAL FREE ENERGY PREDICTED BY IDOCK:   -1.51 KCAL/MOL
REMARK 923 INTER-LIGAND FREE ENERGY PREDICTED BY IDOCK:   -3.58 KCAL/MOL
REMARK 924 INTRA-LIGAND FREE ENERGY PREDICTED BY IDOCK:    2.07 KCAL/MOL
REMARK 927      BINDING AFFINITY PREDICTED BY RF-SCORE:    0.00 PKD
ROOT
HETATM    1  C   UNL     1      -7.712  13.975  66.992  1.00  0.00     0.181 C  
HETATM    2  S   UNL     1      -9.464  14.305  67.441  1.00  0.00    -0.218 SA 
HETATM    3  C   UNL     1      -9.049  15.587  68.715  1.00  0.00    -0.207 C  
HETATM    4  C   UNL     1     -10.138  16.664  68.738  1.00  0.00    -0.270 C  
HETATM    5  CA  UNL     1      -7.629  16.084  68.342  1.00  0.00    -0.145 C  
HETATM    6  C   UNL     1      -9.074  14.891  70.092  1.00  0.00     0.668 C  
HETATM    7  N   UNL     1      -6.904  14.932  67.770  1.00  0.00    -0.160 N  
HETATM    8  C   UNL     1      -7.568  17.224  67.306  1.00  0.00    -0.180 C  
HETATM    9  OXT UNL     1      -8.174  18.282  67.386  1.00  0.00    -0.233 OA 
HETATM   10  O   UNL     1      -6.689  16.991  66.294  1.00  0.00    -0.222 OA 
HETATM   11  C   UNL     1      -6.388  13.966  68.600  1.00  0.00    -0.090 C  
HETATM   12  CA  UNL     1      -7.005  12.823  67.745  1.00  0.00    -0.131 C  
HETATM   13  O   UNL     1      -5.827  14.103  69.664  1.00  0.00    -0.096 OA 
ENDROOT
BRANCH  12  14
HETATM   14  N   UNL     1      -7.898  11.860  68.437  1.00  0.00    -0.136 N  
HETATM   15  C   UNL     1      -8.512  10.837  67.750  1.00  0.00    -0.120 C  
HETATM   16  H   UNL     1      -8.060  11.958  69.439  1.00  0.00     0.000 HD 
HETATM   17  O   UNL     1      -8.389  10.707  66.534  1.00  0.00    -0.133 OA 
HETATM   18  C   UNL     1      -9.386   9.913  68.576  1.00  0.00    -0.143 C  
HETATM   19  C   UNL     1      -8.508   9.106  69.513  1.00  0.00    -0.128 C  
HETATM   20  C   UNL     1     -10.598  10.607  69.228  1.00  0.00    -0.263 A  
HETATM   21  C   UNL     1     -11.241  11.676  68.576  1.00  0.00    -0.312 A  
HETATM   22  O   UNL     1      -8.139   9.466  70.625  1.00  0.00    -0.167 OA 
HETATM   23  C   UNL     1     -12.396  10.645  70.889  1.00  0.00    -0.502 A  
HETATM   24  C   UNL     1     -12.420  12.232  69.086  1.00  0.00     0.337 A  
HETATM   25  C   UNL     1     -11.196  10.117  70.402  1.00  0.00    -0.402 A  
HETATM   26  C   UNL     1     -13.006  11.705  70.231  1.00  0.00     0.248 A  
BRANCH  19  27
HETATM   27  O   UNL     1      -8.148   7.908  68.901  1.00  0.00    -0.121 OA 
BRANCH  27  28
HETATM   28  C   UNL     1      -8.035   8.005  67.508  1.00  0.00    -0.122 A  
HETATM   29  C   UNL     1      -6.765   8.546  65.559  1.00  0.00    -0.059 A  
HETATM   30  C   UNL     1      -6.881   8.534  66.933  1.00  0.00    -0.069 A  
HETATM   31  C   UNL     1      -7.744   7.977  64.756  1.00  0.00    -0.120 A  
HETATM   32  C   UNL     1      -8.879   7.405  65.318  1.00  0.00     0.145 A  
HETATM   33  C   UNL     1      -7.360   8.042  63.314  1.00  0.00    -0.107 C  
HETATM   34  C   UNL     1      -6.023   8.806  63.327  1.00  0.00    -0.085 C  
HETATM   35  C   UNL     1      -9.029   7.425  66.712  1.00  0.00    -0.159 A  
HETATM   36  C   UNL     1      -5.630   9.110  64.777  1.00  0.00    -0.062 C  
ENDBRANCH  27  28
ENDBRANCH  19  27
ENDBRANCH  12  14
TORSDOF 3
ENDMDL
MODEL      169
REMARK 921   NORMALIZED FREE ENERGY PREDICTED BY IDOCK:   -0.41 KCAL/MOL
REMARK 922        TOTAL FREE ENERGY PREDICTED BY IDOCK:   -1.36 KCAL/MOL
REMARK 923 INTER-LIGAND FREE ENERGY PREDICTED BY IDOCK:   -4.71 KCAL/MOL
REMARK 924 INTRA-LIGAND FREE ENERGY PREDICTED BY IDOCK:    3.35 KCAL/MOL
REMARK 927      BINDING AFFINITY PREDICTED BY RF-SCORE:    0.00 PKD
ROOT
HETATM    1  C   UNL     1      -8.680  14.076  68.654  1.00  0.00    -0.103 C  
HETATM    2  S   UNL     1      -8.822  13.302  66.993  1.00  0.00    -0.183 SA 
HETATM    3  C   UNL     1     -10.178  14.431  66.422  1.00  0.00    -0.289 C  
HETATM    4  C   UNL     1     -10.034  14.693  64.919  1.00  0.00    -0.097 C  
HETATM    5  CA  UNL     1     -10.071  15.683  67.329  1.00  0.00    -0.255 C  
HETATM    6  C   UNL     1     -11.513  13.685  66.623  1.00  0.00    -0.365 C  
HETATM    7  N   UNL     1      -9.609  15.221  68.653  1.00  0.00    -0.199 N  
HETATM    8  C   UNL     1      -9.087  16.772  66.856  1.00  0.00    -0.229 C  
HETATM    9  OXT UNL     1      -9.084  17.285  65.746  1.00  0.00    -0.523 OA 
HETATM   10  O   UNL     1      -8.240  17.199  67.831  1.00  0.00    -0.195 OA 
HETATM   11  C   UNL     1     -10.495  14.624  69.518  1.00  0.00    -0.107 C  
HETATM   12  CA  UNL     1      -9.519  13.444  69.790  1.00  0.00     1.942 C  
HETATM   13  O   UNL     1     -11.643  14.926  69.752  1.00  0.00    -0.268 OA 
ENDROOT
BRANCH  12  14
HETATM   14  N   UNL     1     -10.022  12.071  69.536  1.00  0.00     0.066 N  
HETATM   15  C   UNL     1     -11.221  11.859  68.893  1.00  0.00    -0.254 C  
HETATM   16  H   UNL     1      -9.470  11.270  69.842  1.00  0.00     0.000 HD 
HETATM   17  O   UNL     1     -11.946  12.789  68.549  1.00  0.00    -0.308 OA 
HETATM   18  C   UNL     1     -11.614  10.409  68.680  1.00  0.00    -0.172 C  
HETATM   19  C   UNL     1     -10.666   9.782  67.676  1.00  0.00    -0.274 C  
HETATM   20  C   UNL     1     -11.827   9.616  69.983  1.00  0.00    -0.009 A  
HETATM   21  C   UNL     1     -12.344  10.253  71.127  1.00  0.00    -0.501 A  
HETATM   22  O   UNL     1      -9.586   9.268  67.945  1.00  0.00    -0.139 OA 
HETATM   23  C   UNL     1     -12.028   7.489  71.177  1.00  0.00    -0.334 A  
HETATM   24  C   UNL     1     -12.669   9.525  72.277  1.00  0.00    -0.388 A  
HETATM   25  C   UNL     1     -11.664   8.221  70.044  1.00  0.00     0.311 A  
HETATM   26  C   UNL     1     -12.528   8.142  72.296  1.00  0.00    -0.345 A  
BRANCH  19  27
HETATM   27  O   UNL     1     -11.189   9.914  66.392  1.00  0.00     0.334 OA 
BRANCH  27  28
HETATM   28  C   UNL     1     -10.221  10.197  65.421  1.00  0.00    -0.211 A  
HETATM   29  C   UNL     1      -8.087   9.783  64.432  1.00  0.00    -0.150 A  
HETATM   30  C   UNL     1      -8.991   9.542  65.445  1.00  0.00    -0.244 A  
HETATM   31  C   UNL     1      -8.414  10.608  63.364  1.00  0.00    -0.103 A  
HETATM   32  C   UNL     1      -9.654  11.233  63.305  1.00  0.00    -0.373 A  
HETATM   33  C   UNL     1      -7.309  10.652  62.361  1.00  0.00    -0.150 C  
HETATM   34  C   UNL     1      -6.205   9.787  62.997  1.00  0.00    -0.111 C  
HETATM   35  C   UNL     1     -10.567  11.029  64.350  1.00  0.00    -0.395 A  
HETATM   36  C   UNL     1      -6.717   9.209  64.321  1.00  0.00    -0.084 C  
ENDBRANCH  27  28
ENDBRANCH  19  27
ENDBRANCH  12  14
TORSDOF 3
ENDMDL
MODEL      170
REMARK 921   NORMALIZED FREE ENERGY PREDICTED BY IDOCK:    0.15 KCAL/MOL
REMARK 922        TOTAL FREE ENERGY PREDICTED BY IDOCK:   -0.70 KCAL/MOL
REMARK 923 INTER-LIGAND FREE ENERGY PREDICTED BY IDOCK:   -1.01 KCAL/MOL
REMARK 924 INTRA-LIGAND FREE ENERGY PREDICTED BY IDOCK:    0.31 KCAL/MOL
REMARK 927      BINDING AFFINITY PREDICTED BY RF-SCORE:    0.00 PKD
ROOT
HETATM    1  C   UNL     1      -6.364   4.661  65.368  1.00  0.00    -0.035 C  
HETATM    2  S   UNL     1      -7.984   4.356  66.182  1.00  0.00    -0.099 SA 
HETATM    3  C   UNL     1      -8.980   4.697  64.655  1.00  0.00    -0.151 C  
HETATM    4  C   UNL     1     -10.224   3.802  64.639  1.00  0.00    -0.185 C  
HETATM    5  CA  UNL     1      -7.996   4.492  63.476  1.00  0.00    -0.088 C  
HETATM    6  C   UNL     1      -9.476   6.155  64.746  1.00  0.00     1.085 C  
HETATM    7  N   UNL     1      -6.662   4.913  63.946  1.00  0.00    -0.041 N  
HETATM    8  C   UNL     1      -7.864   3.045  62.957  1.00  0.00    -0.068 C  
HETATM    9  OXT UNL     1      -8.794   2.332  62.614  1.00  0.00    -0.074 OA 
HETATM   10  O   UNL     1      -6.575   2.633  62.825  1.00  0.00    -0.024 OA 
HETATM   11  C   UNL     1      -6.352   6.250  64.021  1.00  0.00    -0.030 C  
HETATM   12  CA  UNL     1      -5.796   6.097  65.465  1.00  0.00    -0.025 C  
HETATM   13  O   UNL     1      -6.625   7.134  63.242  1.00  0.00    -0.050 OA 
ENDROOT
BRANCH  12  14
HETATM   14  N   UNL     1      -6.390   6.957  66.519  1.00  0.00    -0.048 N  
HETATM   15  C   UNL     1      -6.271   6.636  67.852  1.00  0.00    -0.036 C  
HETATM   16  H   UNL     1      -6.896   7.802  66.250  1.00  0.00     0.000 HD 
HETATM   17  O   UNL     1      -5.715   5.606  68.225  1.00  0.00    -0.011 OA 
HETATM   18  C   UNL     1      -6.909   7.606  68.829  1.00  0.00    -0.065 C  
HETATM   19  C   UNL     1      -6.137   8.912  68.806  1.00  0.00    -0.045 C  
HETATM   20  C   UNL     1      -8.437   7.731  68.685  1.00  0.00    -0.129 A  
HETATM   21  C   UNL     1      -9.209   6.620  68.298  1.00  0.00    -0.121 A  
HETATM   22  O   UNL     1      -6.333   9.838  68.027  1.00  0.00    -0.055 OA 
HETATM   23  C   UNL     1     -10.529   8.933  69.104  1.00  0.00    -0.236 A  
HETATM   24  C   UNL     1     -10.607   6.675  68.290  1.00  0.00    -0.291 A  
HETATM   25  C   UNL     1      -9.132   8.891  69.072  1.00  0.00    -0.137 A  
HETATM   26  C   UNL     1     -11.267   7.825  68.709  1.00  0.00     0.397 A  
BRANCH  19  27
HETATM   27  O   UNL     1      -5.141   8.884  69.778  1.00  0.00    -0.029 OA 
BRANCH  27  28
HETATM   28  C   UNL     1      -5.508   8.180  70.932  1.00  0.00    -0.029 A  
HETATM   29  C   UNL     1      -5.602   6.149  72.185  1.00  0.00    -0.031 A  
HETATM   30  C   UNL     1      -5.304   6.803  71.008  1.00  0.00    -0.023 A  
HETATM   31  C   UNL     1      -6.030   6.851  73.303  1.00  0.00    -0.057 A  
HETATM   32  C   UNL     1      -6.196   8.230  73.255  1.00  0.00    -0.106 A  
HETATM   33  C   UNL     1      -6.214   5.940  74.472  1.00  0.00    -0.069 C  
HETATM   34  C   UNL     1      -5.906   4.544  73.897  1.00  0.00    -0.020 C  
HETATM   35  C   UNL     1      -5.936   8.902  72.052  1.00  0.00    -0.076 A  
HETATM   36  C   UNL     1      -5.489   4.684  72.429  1.00  0.00    -0.007 C  
ENDBRANCH  27  28
ENDBRANCH  19  27
ENDBRANCH  12  14
TORSDOF 3
ENDMDL
MODEL      171
REMARK 921   NORMALIZED FREE ENERGY PREDICTED BY IDOCK:    0.20 KCAL/MOL
REMARK 922        TOTAL FREE ENERGY PREDICTED BY IDOCK:   -0.65 KCAL/MOL
REMARK 923 INTER-LIGAND FREE ENERGY PREDICTED BY IDOCK:   -5.84 KCAL/MOL
REMARK 924 INTRA-LIGAND FREE ENERGY PREDICTED BY IDOCK:    5.19 KCAL/MOL
REMARK 927      BINDING AFFINITY PREDICTED BY RF-SCORE:    0.00 PKD
ROOT
HETATM    1  C   UNL     1     -11.075  13.057  68.303  1.00  0.00    -0.263 C  
HETATM    2  S   UNL     1      -9.388  12.465  68.730  1.00  0.00     0.229 SA 
HETATM    3  C   UNL     1      -8.771  12.511  66.982  1.00  0.00    -0.205 C  
HETATM    4  C   UNL     1      -7.287  12.891  66.968  1.00  0.00     0.131 C  
HETATM    5  CA  UNL     1      -9.717  13.493  66.244  1.00  0.00    -0.277 C  
HETATM    6  C   UNL     1      -8.874  11.078  66.420  1.00  0.00    -0.182 C  
HETATM    7  N   UNL     1     -11.052  13.352  66.858  1.00  0.00    -0.287 N  
HETATM    8  C   UNL     1      -9.331  14.984  66.325  1.00  0.00    -0.307 C  
HETATM    9  OXT UNL     1      -8.238  15.445  66.031  1.00  0.00     0.232 OA 
HETATM   10  O   UNL     1     -10.364  15.793  66.680  1.00  0.00    -0.277 OA 
HETATM   11  C   UNL     1     -11.847  12.281  66.530  1.00  0.00    -0.306 C  
HETATM   12  CA  UNL     1     -12.144  11.972  68.026  1.00  0.00     0.043 C  
HETATM   13  O   UNL     1     -12.024  11.773  65.446  1.00  0.00    -0.294 OA 
ENDROOT
BRANCH  12  14
HETATM   14  N   UNL     1     -11.823  10.609  68.517  1.00  0.00    -0.471 N  
HETATM   15  C   UNL     1     -10.753  10.386  69.355  1.00  0.00    -0.244 C  
HETATM   16  H   UNL     1     -12.405   9.822  68.229  1.00  0.00     0.000 HD 
HETATM   17  O   UNL     1      -9.993  11.291  69.690  1.00  0.00     0.162 OA 
HETATM   18  C   UNL     1     -10.543   8.950  69.797  1.00  0.00    -0.230 C  
HETATM   19  C   UNL     1     -11.681   8.543  70.714  1.00  0.00    -0.205 C  
HETATM   20  C   UNL     1     -10.231   7.975  68.646  1.00  0.00    -0.225 A  
HETATM   21  C   UNL     1      -9.498   8.408  67.525  1.00  0.00    -0.182 A  
HETATM   22  O   UNL     1     -12.759   8.089  70.348  1.00  0.00     0.424 OA 
HETATM   23  C   UNL     1     -10.082   5.698  67.760  1.00  0.00    -0.209 A  
HETATM   24  C   UNL     1      -9.091   7.510  66.533  1.00  0.00    -0.201 A  
HETATM   25  C   UNL     1     -10.525   6.603  68.729  1.00  0.00    -0.241 A  
HETATM   26  C   UNL     1      -9.367   6.153  66.660  1.00  0.00    -0.161 A  
BRANCH  19  27
HETATM   27  O   UNL     1     -11.331   8.802  72.036  1.00  0.00    -0.339 OA 
BRANCH  27  28
HETATM   28  C   UNL     1     -10.636   7.750  72.646  1.00  0.00    -0.317 A  
HETATM   29  C   UNL     1     -10.303   5.413  73.007  1.00  0.00    -0.229 A  
HETATM   30  C   UNL     1     -11.052   6.433  72.459  1.00  0.00    -0.298 A  
HETATM   31  C   UNL     1      -9.115   5.678  73.675  1.00  0.00    -0.127 A  
HETATM   32  C   UNL     1      -8.665   6.984  73.830  1.00  0.00    -0.190 A  
HETATM   33  C   UNL     1      -8.449   4.414  74.109  1.00  0.00    -0.094 C  
HETATM   34  C   UNL     1      -9.437   3.315  73.676  1.00  0.00    -0.127 C  
HETATM   35  C   UNL     1      -9.439   8.034  73.314  1.00  0.00    -0.336 A  
HETATM   36  C   UNL     1     -10.621   3.959  72.946  1.00  0.00    -0.233 C  
ENDBRANCH  27  28
ENDBRANCH  19  27
ENDBRANCH  12  14
TORSDOF 3
ENDMDL
MODEL      172
REMARK 921   NORMALIZED FREE ENERGY PREDICTED BY IDOCK:    0.28 KCAL/MOL
REMARK 922        TOTAL FREE ENERGY PREDICTED BY IDOCK:   -0.55 KCAL/MOL
REMARK 923 INTER-LIGAND FREE ENERGY PREDICTED BY IDOCK:    0.52 KCAL/MOL
REMARK 924 INTRA-LIGAND FREE ENERGY PREDICTED BY IDOCK:   -1.06 KCAL/MOL
REMARK 927      BINDING AFFINITY PREDICTED BY RF-SCORE:    0.00 PKD
ROOT
HETATM    1  C   UNL     1      -8.992  10.352  64.122  1.00  0.00    -0.229 C  
HETATM    2  S   UNL     1     -10.125   9.894  65.495  1.00  0.00    -0.117 SA 
HETATM    3  C   UNL     1      -9.235  10.912  66.764  1.00  0.00    -0.158 C  
HETATM    4  C   UNL     1     -10.240  11.470  67.777  1.00  0.00    -0.200 C  
HETATM    5  CA  UNL     1      -8.448  11.973  65.953  1.00  0.00     0.389 C  
HETATM    6  C   UNL     1      -8.296   9.963  67.538  1.00  0.00    -0.114 C  
HETATM    7  N   UNL     1      -8.048  11.337  64.682  1.00  0.00     0.535 N  
HETATM    8  C   UNL     1      -9.224  13.257  65.599  1.00  0.00     0.414 C  
HETATM    9  OXT UNL     1      -9.817  13.965  66.399  1.00  0.00    -0.278 OA 
HETATM   10  O   UNL     1      -9.126  13.606  64.288  1.00  0.00     1.700 OA 
HETATM   11  C   UNL     1      -6.981  10.471  64.655  1.00  0.00     0.070 C  
HETATM   12  CA  UNL     1      -7.795   9.408  63.863  1.00  0.00    -0.129 C  
HETATM   13  O   UNL     1      -5.919  10.560  65.227  1.00  0.00    -0.127 OA 
ENDROOT
BRANCH  12  14
HETATM   14  N   UNL     1      -7.902   8.051  64.456  1.00  0.00    -0.132 N  
HETATM   15  C   UNL     1      -6.826   7.192  64.471  1.00  0.00    -0.050 C  
HETATM   16  H   UNL     1      -8.789   7.749  64.859  1.00  0.00     0.000 HD 
HETATM   17  O   UNL     1      -5.751   7.490  63.954  1.00  0.00    -0.040 OA 
HETATM   18  C   UNL     1      -7.062   5.842  65.121  1.00  0.00    -0.064 C  
HETATM   19  C   UNL     1      -7.260   6.037  66.612  1.00  0.00    -0.074 C  
HETATM   20  C   UNL     1      -8.124   4.980  64.413  1.00  0.00    -0.117 A  
HETATM   21  C   UNL     1      -8.282   5.049  63.016  1.00  0.00    -0.106 A  
HETATM   22  O   UNL     1      -8.328   6.292  67.158  1.00  0.00    -0.109 OA 
HETATM   23  C   UNL     1      -9.693   3.101  64.414  1.00  0.00    -0.154 A  
HETATM   24  C   UNL     1      -9.146   4.181  62.339  1.00  0.00    -0.113 A  
HETATM   25  C   UNL     1      -8.862   3.995  65.094  1.00  0.00    -0.127 A  
HETATM   26  C   UNL     1      -9.838   3.196  63.036  1.00  0.00    -0.099 A  
BRANCH  19  27
HETATM   27  O   UNL     1      -6.036   5.925  67.265  1.00  0.00    -0.017 OA 
BRANCH  27  28
HETATM   28  C   UNL     1      -6.067   6.375  68.591  1.00  0.00    -0.025 A  
HETATM   29  C   UNL     1      -6.301   8.143  70.179  1.00  0.00    -0.032 A  
HETATM   30  C   UNL     1      -6.195   7.736  68.866  1.00  0.00    -0.036 A  
HETATM   31  C   UNL     1      -6.351   7.217  71.212  1.00  0.00    -0.037 A  
HETATM   32  C   UNL     1      -6.269   5.855  70.948  1.00  0.00    -0.035 A  
HETATM   33  C   UNL     1      -6.544   7.892  72.530  1.00  0.00    -0.070 C  
HETATM   34  C   UNL     1      -6.534   9.391  72.176  1.00  0.00     0.302 C  
HETATM   35  C   UNL     1      -6.119   5.429  69.620  1.00  0.00    -0.021 A  
HETATM   36  C   UNL     1      -6.399   9.550  70.658  1.00  0.00    -0.086 C  
ENDBRANCH  27  28
ENDBRANCH  19  27
ENDBRANCH  12  14
TORSDOF 3
ENDMDL
MODEL      173
REMARK 921   NORMALIZED FREE ENERGY PREDICTED BY IDOCK:    0.47 KCAL/MOL
REMARK 922        TOTAL FREE ENERGY PREDICTED BY IDOCK:   -0.33 KCAL/MOL
REMARK 923 INTER-LIGAND FREE ENERGY PREDICTED BY IDOCK:   -0.05 KCAL/MOL
REMARK 924 INTRA-LIGAND FREE ENERGY PREDICTED BY IDOCK:   -0.28 KCAL/MOL
REMARK 927      BINDING AFFINITY PREDICTED BY RF-SCORE:    0.00 PKD
ROOT
HETATM    1  C   UNL     1      -9.847  14.028  68.660  1.00  0.00    -0.191 C  
HETATM    2  S   UNL     1      -9.629  14.397  66.872  1.00  0.00    -0.266 SA 
HETATM    3  C   UNL     1     -11.379  14.958  66.625  1.00  0.00    -0.326 C  
HETATM    4  C   UNL     1     -11.420  16.077  65.579  1.00  0.00     0.286 C  
HETATM    5  CA  UNL     1     -11.882  15.349  68.038  1.00  0.00    -0.110 C  
HETATM    6  C   UNL     1     -12.166  13.766  66.041  1.00  0.00    -0.495 C  
HETATM    7  N   UNL     1     -11.220  14.445  68.999  1.00  0.00    -0.251 N  
HETATM    8  C   UNL     1     -11.576  16.794  68.483  1.00  0.00     0.221 C  
HETATM    9  OXT UNL     1     -11.854  17.800  67.848  1.00  0.00     1.042 OA 
HETATM   10  O   UNL     1     -11.027  16.874  69.724  1.00  0.00    -0.231 OA 
HETATM   11  C   UNL     1     -11.674  13.157  69.153  1.00  0.00    -0.325 C  
HETATM   12  CA  UNL     1     -10.236  12.577  69.029  1.00  0.00     0.121 C  
HETATM   13  O   UNL     1     -12.815  12.756  69.189  1.00  0.00     0.714 OA 
ENDROOT
BRANCH  12  14
HETATM   14  N   UNL     1     -10.001  11.557  67.976  1.00  0.00    -0.183 N  
HETATM   15  C   UNL     1      -8.726  11.223  67.579  1.00  0.00    -0.138 C  
HETATM   16  H   UNL     1     -10.799  11.096  67.539  1.00  0.00     0.000 HD 
HETATM   17  O   UNL     1      -7.735  11.785  68.039  1.00  0.00    -0.108 OA 
HETATM   18  C   UNL     1      -8.622  10.156  66.506  1.00  0.00    -0.132 C  
HETATM   19  C   UNL     1      -9.071   8.827  67.085  1.00  0.00    -0.132 C  
HETATM   20  C   UNL     1      -9.262  10.549  65.161  1.00  0.00    -0.243 A  
HETATM   21  C   UNL     1      -9.243  11.889  64.729  1.00  0.00     0.257 A  
HETATM   22  O   UNL     1     -10.228   8.427  67.126  1.00  0.00    -0.235 OA 
HETATM   23  C   UNL     1     -10.164   9.941  62.969  1.00  0.00     1.340 A  
HETATM   24  C   UNL     1      -9.699  12.246  63.455  1.00  0.00     0.000 A  
HETATM   25  C   UNL     1      -9.748   9.589  64.256  1.00  0.00     0.381 A  
HETATM   26  C   UNL     1     -10.142  11.271  62.569  1.00  0.00     0.206 A  
BRANCH  19  27
HETATM   27  O   UNL     1      -7.971   8.147  67.601  1.00  0.00    -0.118 OA 
BRANCH  27  28
HETATM   28  C   UNL     1      -7.966   8.074  68.999  1.00  0.00    -0.114 A  
HETATM   29  C   UNL     1      -9.048   8.413  71.101  1.00  0.00    -0.217 A  
HETATM   30  C   UNL     1      -9.045   8.568  69.731  1.00  0.00    -0.153 A  
HETATM   31  C   UNL     1      -8.033   7.716  71.743  1.00  0.00    -0.102 A  
HETATM   32  C   UNL     1      -6.974   7.179  71.021  1.00  0.00    -0.061 A  
HETATM   33  C   UNL     1      -8.295   7.615  73.210  1.00  0.00    -0.193 C  
HETATM   34  C   UNL     1      -9.594   8.420  73.404  1.00  0.00     0.115 C  
HETATM   35  C   UNL     1      -6.938   7.366  69.631  1.00  0.00    -0.053 A  
HETATM   36  C   UNL     1     -10.089   8.915  72.040  1.00  0.00    -0.351 C  
ENDBRANCH  27  28
ENDBRANCH  19  27
ENDBRANCH  12  14
TORSDOF 3
ENDMDL
MODEL      174
REMARK 921   NORMALIZED FREE ENERGY PREDICTED BY IDOCK:    0.87 KCAL/MOL
REMARK 922        TOTAL FREE ENERGY PREDICTED BY IDOCK:    0.15 KCAL/MOL
REMARK 923 INTER-LIGAND FREE ENERGY PREDICTED BY IDOCK:   -2.78 KCAL/MOL
REMARK 924 INTRA-LIGAND FREE ENERGY PREDICTED BY IDOCK:    2.93 KCAL/MOL
REMARK 927      BINDING AFFINITY PREDICTED BY RF-SCORE:    0.00 PKD
ROOT
HETATM    1  C   UNL     1      -7.900  16.659  67.980  1.00  0.00    -0.170 C  
HETATM    2  S   UNL     1      -8.446  16.672  66.225  1.00  0.00    -0.291 SA 
HETATM    3  C   UNL     1     -10.103  17.421  66.594  1.00  0.00    -0.317 C  
HETATM    4  C   UNL     1     -10.527  18.332  65.438  1.00  0.00     0.262 C  
HETATM    5  CA  UNL     1      -9.933  18.121  67.966  1.00  0.00    -0.345 C  
HETATM    6  C   UNL     1     -11.125  16.267  66.656  1.00  0.00     0.104 C  
HETATM    7  N   UNL     1      -8.973  17.317  68.747  1.00  0.00    -0.261 N  
HETATM    8  C   UNL     1      -9.392  19.564  67.921  1.00  0.00    -0.333 C  
HETATM    9  OXT UNL     1      -9.861  20.472  67.250  1.00  0.00    -0.453 OA 
HETATM   10  O   UNL     1      -8.362  19.785  68.781  1.00  0.00    -0.281 OA 
HETATM   11  C   UNL     1      -9.385  16.153  69.351  1.00  0.00    -0.186 C  
HETATM   12  CA  UNL     1      -8.170  15.364  68.783  1.00  0.00    -0.172 C  
HETATM   13  O   UNL     1     -10.421  15.928  69.934  1.00  0.00    -0.290 OA 
ENDROOT
BRANCH  12  14
HETATM   14  N   UNL     1      -8.461  14.152  67.977  1.00  0.00    -0.160 N  
HETATM   15  C   UNL     1      -8.474  12.901  68.550  1.00  0.00    -0.045 C  
HETATM   16  H   UNL     1      -8.655  14.248  66.979  1.00  0.00     0.000 HD 
HETATM   17  O   UNL     1      -8.198  12.727  69.735  1.00  0.00     1.442 OA 
HETATM   18  C   UNL     1      -8.800  11.747  67.621  1.00  0.00    -0.162 C  
HETATM   19  C   UNL     1     -10.252  11.852  67.192  1.00  0.00    -0.208 C  
HETATM   20  C   UNL     1      -7.781  11.546  66.483  1.00  0.00    -0.052 A  
HETATM   21  C   UNL     1      -6.418  11.828  66.691  1.00  0.00    -0.005 A  
HETATM   22  O   UNL     1     -10.665  12.506  66.242  1.00  0.00    -0.253 OA 
HETATM   23  C   UNL     1      -7.169  10.604  64.308  1.00  0.00     0.235 A  
HETATM   24  C   UNL     1      -5.458  11.528  65.718  1.00  0.00     0.437 A  
HETATM   25  C   UNL     1      -8.132  10.942  65.263  1.00  0.00     0.060 A  
HETATM   26  C   UNL     1      -5.832  10.900  64.535  1.00  0.00     0.237 A  
BRANCH  19  27
HETATM   27  O   UNL     1     -11.051  11.123  68.068  1.00  0.00    -0.232 OA 
BRANCH  27  28
HETATM   28  C   UNL     1     -10.334  10.208  68.849  1.00  0.00    -0.206 A  
HETATM   29  C   UNL     1      -8.267   9.205  69.501  1.00  0.00    -0.120 A  
HETATM   30  C   UNL     1      -8.961  10.056  68.667  1.00  0.00    -0.136 A  
HETATM   31  C   UNL     1      -8.904   8.562  70.554  1.00  0.00    -0.168 A  
HETATM   32  C   UNL     1     -10.265   8.740  70.775  1.00  0.00    -0.262 A  
HETATM   33  C   UNL     1      -7.935   7.760  71.359  1.00  0.00    -0.097 C  
HETATM   34  C   UNL     1      -6.602   7.938  70.607  1.00  0.00    -0.037 C  
HETATM   35  C   UNL     1     -10.989   9.570  69.908  1.00  0.00    -0.263 A  
HETATM   36  C   UNL     1      -6.814   8.888  69.423  1.00  0.00    -0.049 C  
ENDBRANCH  27  28
ENDBRANCH  19  27
ENDBRANCH  12  14
TORSDOF 3
ENDMDL
MODEL      175
REMARK 921   NORMALIZED FREE ENERGY PREDICTED BY IDOCK:    1.08 KCAL/MOL
REMARK 922        TOTAL FREE ENERGY PREDICTED BY IDOCK:    0.39 KCAL/MOL
REMARK 923 INTER-LIGAND FREE ENERGY PREDICTED BY IDOCK:    1.73 KCAL/MOL
REMARK 924 INTRA-LIGAND FREE ENERGY PREDICTED BY IDOCK:   -1.34 KCAL/MOL
REMARK 927      BINDING AFFINITY PREDICTED BY RF-SCORE:    0.00 PKD
ROOT
HETATM    1  C   UNL     1     -11.853  10.206  69.198  1.00  0.00     0.130 C  
HETATM    2  S   UNL     1     -11.978   8.452  68.663  1.00  0.00     3.066 SA 
HETATM    3  C   UNL     1     -11.349   7.765  70.267  1.00  0.00    -0.163 C  
HETATM    4  C   UNL     1     -12.036   6.428  70.562  1.00  0.00    -0.094 C  
HETATM    5  CA  UNL     1     -11.594   8.885  71.311  1.00  0.00    -0.304 C  
HETATM    6  C   UNL     1      -9.847   7.468  70.082  1.00  0.00    -0.180 C  
HETATM    7  N   UNL     1     -11.428  10.174  70.610  1.00  0.00    -0.326 N  
HETATM    8  C   UNL     1     -12.989   8.896  71.967  1.00  0.00    -0.399 C  
HETATM    9  OXT UNL     1     -13.516   7.942  72.518  1.00  0.00     0.022 OA 
HETATM   10  O   UNL     1     -13.582  10.121  71.961  1.00  0.00    -0.358 OA 
HETATM   11  C   UNL     1     -10.168  10.650  70.340  1.00  0.00     0.628 C  
HETATM   12  CA  UNL     1     -10.537  10.945  68.858  1.00  0.00    -0.210 C  
HETATM   13  O   UNL     1      -9.184  10.628  71.044  1.00  0.00     1.917 OA 
ENDROOT
BRANCH  12  14
HETATM   14  N   UNL     1      -9.696  10.317  67.809  1.00  0.00    -0.155 N  
HETATM   15  C   UNL     1      -8.431  10.786  67.534  1.00  0.00    -0.119 C  
HETATM   16  H   UNL     1     -10.061   9.524  67.281  1.00  0.00     0.000 HD 
HETATM   17  O   UNL     1      -7.964  11.768  68.106  1.00  0.00    -0.129 OA 
HETATM   18  C   UNL     1      -7.669  10.047  66.450  1.00  0.00    -0.103 C  
HETATM   19  C   UNL     1      -7.328   8.655  66.946  1.00  0.00    -0.079 C  
HETATM   20  C   UNL     1      -8.325  10.119  65.058  1.00  0.00    -0.158 A  
HETATM   21  C   UNL     1      -9.035  11.269  64.664  1.00  0.00     0.069 A  
HETATM   22  O   UNL     1      -8.058   7.673  66.859  1.00  0.00    -0.112 OA 
HETATM   23  C   UNL     1      -8.572   9.284  62.770  1.00  0.00    -0.222 A  
HETATM   24  C   UNL     1      -9.524  11.408  63.361  1.00  0.00    -0.292 A  
HETATM   25  C   UNL     1      -8.120   9.126  64.083  1.00  0.00    -0.149 A  
HETATM   26  C   UNL     1      -9.278  10.424  62.410  1.00  0.00    -0.304 A  
BRANCH  19  27
HETATM   27  O   UNL     1      -6.075   8.668  67.552  1.00  0.00    -0.050 OA 
BRANCH  27  28
HETATM   28  C   UNL     1      -5.860   7.584  68.413  1.00  0.00    -0.027 A  
HETATM   29  C   UNL     1      -6.076   6.562  70.560  1.00  0.00    -0.027 A  
HETATM   30  C   UNL     1      -6.228   7.670  69.755  1.00  0.00    -0.030 A  
HETATM   31  C   UNL     1      -5.632   5.355  70.037  1.00  0.00    -0.012 A  
HETATM   32  C   UNL     1      -5.304   5.242  68.691  1.00  0.00    -0.004 A  
HETATM   33  C   UNL     1      -5.624   4.288  71.082  1.00  0.00    -0.008 C  
HETATM   34  C   UNL     1      -6.060   5.026  72.361  1.00  0.00    -0.029 C  
HETATM   35  C   UNL     1      -5.415   6.374  67.870  1.00  0.00    -0.005 A  
HETATM   36  C   UNL     1      -6.372   6.487  72.018  1.00  0.00    -0.049 C  
ENDBRANCH  27  28
ENDBRANCH  19  27
ENDBRANCH  12  14
TORSDOF 3
ENDMDL
MODEL      176
REMARK 921   NORMALIZED FREE ENERGY PREDICTED BY IDOCK:    1.55 KCAL/MOL
REMARK 922        TOTAL FREE ENERGY PREDICTED BY IDOCK:    0.94 KCAL/MOL
REMARK 923 INTER-LIGAND FREE ENERGY PREDICTED BY IDOCK:    0.58 KCAL/MOL
REMARK 924 INTRA-LIGAND FREE ENERGY PREDICTED BY IDOCK:    0.36 KCAL/MOL
REMARK 927      BINDING AFFINITY PREDICTED BY RF-SCORE:    0.00 PKD
ROOT
HETATM    1  C   UNL     1     -11.678  12.504  70.869  1.00  0.00     0.701 C  
HETATM    2  S   UNL     1     -10.532  13.886  71.264  1.00  0.00     4.511 SA 
HETATM    3  C   UNL     1     -11.655  15.202  70.597  1.00  0.00    -0.309 C  
HETATM    4  C   UNL     1     -11.500  16.482  71.424  1.00  0.00    -0.112 C  
HETATM    5  CA  UNL     1     -13.070  14.570  70.607  1.00  0.00    -0.250 C  
HETATM    6  C   UNL     1     -11.179  15.530  69.166  1.00  0.00    -0.300 C  
HETATM    7  N   UNL     1     -12.902  13.128  70.335  1.00  0.00     0.023 N  
HETATM    8  C   UNL     1     -13.853  14.699  71.929  1.00  0.00    -0.453 C  
HETATM    9  OXT UNL     1     -14.058  15.744  72.527  1.00  0.00    -0.554 OA 
HETATM   10  O   UNL     1     -14.392  13.526  72.357  1.00  0.00    -0.645 OA 
HETATM   11  C   UNL     1     -12.677  12.694  69.051  1.00  0.00     1.039 C  
HETATM   12  CA  UNL     1     -11.482  11.807  69.502  1.00  0.00    -0.295 C  
HETATM   13  O   UNL     1     -13.186  13.078  68.023  1.00  0.00     2.086 OA 
ENDROOT
BRANCH  12  14
HETATM   14  N   UNL     1     -10.174  12.038  68.840  1.00  0.00    -0.407 N  
HETATM   15  C   UNL     1     -10.079  12.163  67.472  1.00  0.00    -0.196 C  
HETATM   16  H   UNL     1      -9.329  12.106  69.408  1.00  0.00     0.000 HD 
HETATM   17  O   UNL     1     -11.058  12.040  66.740  1.00  0.00    -0.272 OA 
HETATM   18  C   UNL     1      -8.688  12.413  66.922  1.00  0.00    -0.191 C  
HETATM   19  C   UNL     1      -8.230  13.797  67.342  1.00  0.00    -0.184 C  
HETATM   20  C   UNL     1      -7.690  11.270  67.189  1.00  0.00    -0.147 A  
HETATM   21  C   UNL     1      -8.130   9.933  67.220  1.00  0.00    -0.113 A  
HETATM   22  O   UNL     1      -7.673  14.069  68.399  1.00  0.00    -0.122 OA 
HETATM   23  C   UNL     1      -5.394  10.430  67.327  1.00  0.00    -0.041 A  
HETATM   24  C   UNL     1      -7.223   8.873  67.329  1.00  0.00    -0.083 A  
HETATM   25  C   UNL     1      -6.303  11.491  67.260  1.00  0.00    -0.107 A  
HETATM   26  C   UNL     1      -5.855   9.121  67.364  1.00  0.00    -0.046 A  
BRANCH  19  27
HETATM   27  O   UNL     1      -8.578  14.721  66.361  1.00  0.00    -0.144 OA 
BRANCH  27  28
HETATM   28  C   UNL     1      -8.481  16.052  66.788  1.00  0.00    -0.260 A  
HETATM   29  C   UNL     1      -9.387  18.256  66.939  1.00  0.00    -0.286 A  
HETATM   30  C   UNL     1      -9.468  16.973  66.441  1.00  0.00    -0.294 A  
HETATM   31  C   UNL     1      -8.384  18.615  67.829  1.00  0.00    -0.285 A  
HETATM   32  C   UNL     1      -7.419  17.693  68.218  1.00  0.00    -0.251 A  
HETATM   33  C   UNL     1      -8.550  20.026  68.286  1.00  0.00    -0.173 C  
HETATM   34  C   UNL     1      -9.770  20.526  67.490  1.00  0.00    -0.554 C  
HETATM   35  C   UNL     1      -7.465  16.397  67.686  1.00  0.00    -0.153 A  
HETATM   36  C   UNL     1     -10.322  19.376  66.639  1.00  0.00    -0.555 C  
ENDBRANCH  27  28
ENDBRANCH  19  27
ENDBRANCH  12  14
TORSDOF 3
ENDMDL
MODEL      177
REMARK 921   NORMALIZED FREE ENERGY PREDICTED BY IDOCK:    1.70 KCAL/MOL
REMARK 922        TOTAL FREE ENERGY PREDICTED BY IDOCK:    1.13 KCAL/MOL
REMARK 923 INTER-LIGAND FREE ENERGY PREDICTED BY IDOCK:    1.37 KCAL/MOL
REMARK 924 INTRA-LIGAND FREE ENERGY PREDICTED BY IDOCK:   -0.24 KCAL/MOL
REMARK 927      BINDING AFFINITY PREDICTED BY RF-SCORE:    0.00 PKD
ROOT
HETATM    1  C   UNL     1      -9.119  13.797  69.432  1.00  0.00     0.811 C  
HETATM    2  S   UNL     1      -7.913  13.341  68.121  1.00  0.00    -0.160 SA 
HETATM    3  C   UNL     1      -6.774  14.762  68.472  1.00  0.00    -0.097 C  
HETATM    4  C   UNL     1      -5.324  14.336  68.220  1.00  0.00    -0.113 C  
HETATM    5  CA  UNL     1      -7.098  15.192  69.926  1.00  0.00    -0.119 C  
HETATM    6  C   UNL     1      -7.100  15.875  67.455  1.00  0.00    -0.230 C  
HETATM    7  N   UNL     1      -8.540  14.956  70.135  1.00  0.00     0.509 N  
HETATM    8  C   UNL     1      -6.344  14.430  71.034  1.00  0.00     0.102 C  
HETATM    9  OXT UNL     1      -5.131  14.293  71.095  1.00  0.00    -0.110 OA 
HETATM   10  O   UNL     1      -7.154  13.974  72.027  1.00  0.00     1.887 OA 
HETATM   11  C   UNL     1      -9.460  15.842  69.629  1.00  0.00    -0.148 C  
HETATM   12  CA  UNL     1     -10.304  14.694  69.005  1.00  0.00    -0.235 C  
HETATM   13  O   UNL     1      -9.413  17.051  69.604  1.00  0.00     0.145 OA 
ENDROOT
BRANCH  12  14
HETATM   14  N   UNL     1     -10.573  14.761  67.547  1.00  0.00    -0.256 N  
HETATM   15  C   UNL     1     -11.650  15.460  67.051  1.00  0.00    -0.021 C  
HETATM   16  H   UNL     1      -9.948  14.279  66.900  1.00  0.00     0.000 HD 
HETATM   17  O   UNL     1     -12.459  16.015  67.791  1.00  0.00     0.967 OA 
HETATM   18  C   UNL     1     -11.803  15.463  65.542  1.00  0.00     0.229 C  
HETATM   19  C   UNL     1     -10.669  16.264  64.930  1.00  0.00    -0.234 C  
HETATM   20  C   UNL     1     -12.043  14.070  64.930  1.00  0.00    -0.435 A  
HETATM   21  C   UNL     1     -12.769  13.096  65.641  1.00  0.00    -0.299 A  
HETATM   22  O   UNL     1      -9.563  15.821  64.643  1.00  0.00     0.356 OA 
HETATM   23  C   UNL     1     -12.065  12.561  63.002  1.00  0.00    -0.124 A  
HETATM   24  C   UNL     1     -13.112  11.874  65.052  1.00  0.00     1.650 A  
HETATM   25  C   UNL     1     -11.688  13.765  63.604  1.00  0.00    -0.108 A  
HETATM   26  C   UNL     1     -12.775  11.614  63.728  1.00  0.00    -0.211 A  
BRANCH  19  27
HETATM   27  O   UNL     1     -11.061  17.592  64.783  1.00  0.00    -0.959 OA 
BRANCH  27  28
HETATM   28  C   UNL     1     -10.322  18.483  65.571  1.00  0.00     0.161 A  
HETATM   29  C   UNL     1      -8.349  19.021  66.804  1.00  0.00    -0.298 A  
HETATM   30  C   UNL     1      -9.090  18.098  66.097  1.00  0.00    -0.128 A  
HETATM   31  C   UNL     1      -8.780  20.334  66.934  1.00  0.00    -0.385 A  
HETATM   32  C   UNL     1      -9.985  20.743  66.375  1.00  0.00     0.122 A  
HETATM   33  C   UNL     1      -7.777  21.158  67.671  1.00  0.00     0.052 C  
HETATM   34  C   UNL     1      -6.681  20.145  68.050  1.00  0.00    -0.321 C  
HETATM   35  C   UNL     1     -10.768  19.803  65.690  1.00  0.00    -0.418 A  
HETATM   36  C   UNL     1      -7.041  18.772  67.471  1.00  0.00    -0.216 C  
ENDBRANCH  27  28
ENDBRANCH  19  27
ENDBRANCH  12  14
TORSDOF 3
ENDMDL
MODEL      178
REMARK 921   NORMALIZED FREE ENERGY PREDICTED BY IDOCK:    1.84 KCAL/MOL
REMARK 922        TOTAL FREE ENERGY PREDICTED BY IDOCK:    1.29 KCAL/MOL
REMARK 923 INTER-LIGAND FREE ENERGY PREDICTED BY IDOCK:   -4.63 KCAL/MOL
REMARK 924 INTRA-LIGAND FREE ENERGY PREDICTED BY IDOCK:    5.92 KCAL/MOL
REMARK 927      BINDING AFFINITY PREDICTED BY RF-SCORE:    0.00 PKD
ROOT
HETATM    1  C   UNL     1      -9.766  12.064  66.347  1.00  0.00    -0.225 C  
HETATM    2  S   UNL     1      -9.625  11.630  68.128  1.00  0.00    -0.194 SA 
HETATM    3  C   UNL     1     -10.881  10.268  68.045  1.00  0.00    -0.275 C  
HETATM    4  C   UNL     1     -10.496   9.150  69.019  1.00  0.00    -0.238 C  
HETATM    5  CA  UNL     1     -10.939   9.860  66.551  1.00  0.00     0.218 C  
HETATM    6  C   UNL     1     -12.222  10.851  68.537  1.00  0.00     0.207 C  
HETATM    7  N   UNL     1     -10.695  11.082  65.759  1.00  0.00    -0.194 N  
HETATM    8  C   UNL     1      -9.903   8.810  66.103  1.00  0.00    -0.227 C  
HETATM    9  OXT UNL     1      -9.724   7.725  66.636  1.00  0.00    -0.204 OA 
HETATM   10  O   UNL     1      -9.232   9.157  64.972  1.00  0.00    -0.208 OA 
HETATM   11  C   UNL     1     -11.704  11.999  65.586  1.00  0.00    -0.246 C  
HETATM   12  CA  UNL     1     -10.772  13.180  65.981  1.00  0.00    -0.276 C  
HETATM   13  O   UNL     1     -12.878  11.801  65.372  1.00  0.00     0.589 OA 
ENDROOT
BRANCH  12  14
HETATM   14  N   UNL     1     -11.211  14.049  67.102  1.00  0.00    -0.303 N  
HETATM   15  C   UNL     1     -10.315  14.505  68.042  1.00  0.00    -0.229 C  
HETATM   16  H   UNL     1     -12.194  14.312  67.177  1.00  0.00     0.000 HD 
HETATM   17  O   UNL     1      -9.132  14.177  68.024  1.00  0.00    -0.177 OA 
HETATM   18  C   UNL     1     -10.888  15.398  69.127  1.00  0.00    -0.249 C  
HETATM   19  C   UNL     1     -11.313  16.717  68.511  1.00  0.00    -0.152 C  
HETATM   20  C   UNL     1     -11.937  14.709  70.021  1.00  0.00    -0.376 A  
HETATM   21  C   UNL     1     -11.829  13.337  70.317  1.00  0.00    -0.307 A  
HETATM   22  O   UNL     1     -12.403  16.940  67.995  1.00  0.00     1.290 OA 
HETATM   23  C   UNL     1     -13.776  14.829  71.633  1.00  0.00    -0.512 A  
HETATM   24  C   UNL     1     -12.693  12.723  71.231  1.00  0.00    -0.364 A  
HETATM   25  C   UNL     1     -12.940  15.433  70.690  1.00  0.00    -0.450 A  
HETATM   26  C   UNL     1     -13.654  13.471  71.901  1.00  0.00    -0.510 A  
BRANCH  19  27
HETATM   27  O   UNL     1     -10.262  17.627  68.582  1.00  0.00    -0.346 OA 
BRANCH  27  28
HETATM   28  C   UNL     1      -8.999  17.026  68.516  1.00  0.00    -0.263 A  
HETATM   29  C   UNL     1      -7.276  15.697  69.502  1.00  0.00    -0.198 A  
HETATM   30  C   UNL     1      -8.488  16.345  69.620  1.00  0.00     0.421 A  
HETATM   31  C   UNL     1      -6.603  15.658  68.288  1.00  0.00    -0.126 A  
HETATM   32  C   UNL     1      -7.123  16.296  67.168  1.00  0.00    -0.244 A  
HETATM   33  C   UNL     1      -5.359  14.838  68.389  1.00  0.00    -0.111 C  
HETATM   34  C   UNL     1      -5.314  14.427  69.873  1.00  0.00    -0.095 C  
HETATM   35  C   UNL     1      -8.334  16.993  67.286  1.00  0.00    -0.204 A  
HETATM   36  C   UNL     1      -6.563  14.963  70.583  1.00  0.00     0.153 C  
ENDBRANCH  27  28
ENDBRANCH  19  27
ENDBRANCH  12  14
TORSDOF 3
ENDMDL
MODEL      179
REMARK 921   NORMALIZED FREE ENERGY PREDICTED BY IDOCK:    2.36 KCAL/MOL
REMARK 922        TOTAL FREE ENERGY PREDICTED BY IDOCK:    1.90 KCAL/MOL
REMARK 923 INTER-LIGAND FREE ENERGY PREDICTED BY IDOCK:   -0.45 KCAL/MOL
REMARK 924 INTRA-LIGAND FREE ENERGY PREDICTED BY IDOCK:    2.36 KCAL/MOL
REMARK 927      BINDING AFFINITY PREDICTED BY RF-SCORE:    0.00 PKD
ROOT
HETATM    1  C   UNL     1     -13.034  11.167  69.454  1.00  0.00     0.945 C  
HETATM    2  S   UNL     1     -11.784  10.127  68.597  1.00  0.00     0.387 SA 
HETATM    3  C   UNL     1     -10.712   9.924  70.096  1.00  0.00    -0.308 C  
HETATM    4  C   UNL     1     -10.057   8.539  70.079  1.00  0.00    -0.195 C  
HETATM    5  CA  UNL     1     -11.644  10.205  71.302  1.00  0.00    -0.306 C  
HETATM    6  C   UNL     1      -9.574  10.961  69.991  1.00  0.00     0.859 C  
HETATM    7  N   UNL     1     -12.618  11.226  70.867  1.00  0.00    -0.375 N  
HETATM    8  C   UNL     1     -12.447   8.997  71.824  1.00  0.00    -0.368 C  
HETATM    9  OXT UNL     1     -11.970   7.918  72.143  1.00  0.00    -0.303 OA 
HETATM   10  O   UNL     1     -13.772   9.258  71.992  1.00  0.00    -0.411 OA 
HETATM   11  C   UNL     1     -12.244  12.546  70.801  1.00  0.00    -0.240 C  
HETATM   12  CA  UNL     1     -12.839  12.700  69.372  1.00  0.00     1.092 C  
HETATM   13  O   UNL     1     -11.558  13.178  71.571  1.00  0.00     1.171 OA 
ENDROOT
BRANCH  12  14
HETATM   14  N   UNL     1     -11.928  13.179  68.303  1.00  0.00    -0.335 N  
HETATM   15  C   UNL     1     -10.594  13.410  68.553  1.00  0.00    -0.253 C  
HETATM   16  H   UNL     1     -12.297  13.340  67.365  1.00  0.00     0.000 HD 
HETATM   17  O   UNL     1     -10.113  13.280  69.676  1.00  0.00     0.650 OA 
HETATM   18  C   UNL     1      -9.768  13.882  67.371  1.00  0.00    -0.234 C  
HETATM   19  C   UNL     1      -9.651  12.753  66.366  1.00  0.00    -0.254 C  
HETATM   20  C   UNL     1     -10.207  15.243  66.799  1.00  0.00    -0.273 A  
HETATM   21  C   UNL     1     -10.727  16.238  67.648  1.00  0.00    -0.311 A  
HETATM   22  O   UNL     1     -10.461  12.506  65.479  1.00  0.00    -0.268 OA 
HETATM   23  C   UNL     1     -10.212  16.898  64.994  1.00  0.00     0.516 A  
HETATM   24  C   UNL     1     -11.007  17.524  67.173  1.00  0.00     0.031 A  
HETATM   25  C   UNL     1      -9.972  15.602  65.460  1.00  0.00    -0.364 A  
HETATM   26  C   UNL     1     -10.734  17.858  65.851  1.00  0.00    -0.116 A  
BRANCH  19  27
HETATM   27  O   UNL     1      -8.504  12.009  66.628  1.00  0.00    -0.180 OA 
BRANCH  27  28
HETATM   28  C   UNL     1      -8.492  10.759  65.997  1.00  0.00    -0.169 A  
HETATM   29  C   UNL     1      -8.071   9.407  64.073  1.00  0.00    -0.150 A  
HETATM   30  C   UNL     1      -8.150  10.658  64.649  1.00  0.00     0.015 A  
HETATM   31  C   UNL     1      -8.255   8.259  64.832  1.00  0.00    -0.154 A  
HETATM   32  C   UNL     1      -8.552   8.345  66.187  1.00  0.00    -0.157 A  
HETATM   33  C   UNL     1      -8.044   7.032  64.009  1.00  0.00    -0.011 C  
HETATM   34  C   UNL     1      -7.771   7.583  62.597  1.00  0.00    -0.125 C  
HETATM   35  C   UNL     1      -8.677   9.612  66.775  1.00  0.00    -0.144 A  
HETATM   36  C   UNL     1      -7.767   9.115  62.645  1.00  0.00    -0.117 C  
ENDBRANCH  27  28
ENDBRANCH  19  27
ENDBRANCH  12  14
TORSDOF 3
ENDMDL
MODEL      180
REMARK 921   NORMALIZED FREE ENERGY PREDICTED BY IDOCK:    2.51 KCAL/MOL
REMARK 922        TOTAL FREE ENERGY PREDICTED BY IDOCK:    2.08 KCAL/MOL
REMARK 923 INTER-LIGAND FREE ENERGY PREDICTED BY IDOCK:    3.23 KCAL/MOL
REMARK 924 INTRA-LIGAND FREE ENERGY PREDICTED BY IDOCK:   -1.15 KCAL/MOL
REMARK 927      BINDING AFFINITY PREDICTED BY RF-SCORE:    0.00 PKD
ROOT
HETATM    1  C   UNL     1     -10.990  13.646  67.808  1.00  0.00    -0.259 C  
HETATM    2  S   UNL     1      -9.439  13.914  66.858  1.00  0.00    -0.265 SA 
HETATM    3  C   UNL     1     -10.301  14.580  65.357  1.00  0.00    -0.382 C  
HETATM    4  C   UNL     1      -9.427  15.648  64.691  1.00  0.00     2.274 C  
HETATM    5  CA  UNL     1     -11.680  15.071  65.867  1.00  0.00    -0.098 C  
HETATM    6  C   UNL     1     -10.436  13.418  64.351  1.00  0.00    -0.403 C  
HETATM    7  N   UNL     1     -12.080  14.170  66.965  1.00  0.00    -0.438 N  
HETATM    8  C   UNL     1     -11.718  16.510  66.417  1.00  0.00     1.337 C  
HETATM    9  OXT UNL     1     -11.320  17.502  65.824  1.00  0.00     0.536 OA 
HETATM   10  O   UNL     1     -12.329  16.612  67.628  1.00  0.00     1.336 OA 
HETATM   11  C   UNL     1     -12.587  12.925  66.681  1.00  0.00     0.549 C  
HETATM   12  CA  UNL     1     -11.635  12.243  67.705  1.00  0.00    -0.351 C  
HETATM   13  O   UNL     1     -13.362  12.604  65.809  1.00  0.00     0.575 OA 
ENDROOT
BRANCH  12  14
HETATM   14  N   UNL     1     -10.753  11.161  67.200  1.00  0.00    -0.245 N  
HETATM   15  C   UNL     1     -10.190  10.242  68.057  1.00  0.00    -0.169 C  
HETATM   16  H   UNL     1     -10.560  11.098  66.200  1.00  0.00     0.000 HD 
HETATM   17  O   UNL     1     -10.352  10.305  69.273  1.00  0.00    -0.203 OA 
HETATM   18  C   UNL     1      -9.322   9.178  67.413  1.00  0.00    -0.161 C  
HETATM   19  C   UNL     1     -10.198   8.258  66.583  1.00  0.00    -0.263 C  
HETATM   20  C   UNL     1      -8.072   9.730  66.702  1.00  0.00    -0.116 A  
HETATM   21  C   UNL     1      -7.415  10.870  67.201  1.00  0.00    -0.109 A  
HETATM   22  O   UNL     1     -10.524   8.451  65.418  1.00  0.00     1.738 OA 
HETATM   23  C   UNL     1      -6.227   9.463  65.115  1.00  0.00    -0.070 A  
HETATM   24  C   UNL     1      -6.205  11.310  66.651  1.00  0.00    -0.141 A  
HETATM   25  C   UNL     1      -7.455   9.049  65.637  1.00  0.00    -0.086 A  
HETATM   26  C   UNL     1      -5.603  10.596  65.620  1.00  0.00    -0.133 A  
BRANCH  19  27
HETATM   27  O   UNL     1     -10.612   7.180  67.361  1.00  0.00    -0.243 OA 
BRANCH  27  28
HETATM   28  C   UNL     1      -9.611   6.683  68.204  1.00  0.00    -0.120 A  
HETATM   29  C   UNL     1      -8.870   5.991  70.367  1.00  0.00    -0.148 A  
HETATM   30  C   UNL     1      -9.845   6.556  69.572  1.00  0.00    -0.167 A  
HETATM   31  C   UNL     1      -7.700   5.489  69.813  1.00  0.00    -0.078 A  
HETATM   32  C   UNL     1      -7.473   5.568  68.444  1.00  0.00    -0.077 A  
HETATM   33  C   UNL     1      -6.838   4.861  70.857  1.00  0.00    -0.040 C  
HETATM   34  C   UNL     1      -7.611   5.110  72.166  1.00  0.00    -0.098 C  
HETATM   35  C   UNL     1      -8.438   6.178  67.631  1.00  0.00    -0.108 A  
HETATM   36  C   UNL     1      -8.931   5.819  71.845  1.00  0.00    -0.142 C  
ENDBRANCH  27  28
ENDBRANCH  19  27
ENDBRANCH  12  14
TORSDOF 3
ENDMDL
MODEL      181
REMARK 921   NORMALIZED FREE ENERGY PREDICTED BY IDOCK:    2.62 KCAL/MOL
REMARK 922        TOTAL FREE ENERGY PREDICTED BY IDOCK:    2.20 KCAL/MOL
REMARK 923 INTER-LIGAND FREE ENERGY PREDICTED BY IDOCK:   -2.99 KCAL/MOL
REMARK 924 INTRA-LIGAND FREE ENERGY PREDICTED BY IDOCK:    5.20 KCAL/MOL
REMARK 927      BINDING AFFINITY PREDICTED BY RF-SCORE:    0.00 PKD
ROOT
HETATM    1  C   UNL     1     -11.020   7.596  69.240  1.00  0.00    -0.014 C  
HETATM    2  S   UNL     1      -9.275   7.251  69.705  1.00  0.00    -0.141 SA 
HETATM    3  C   UNL     1      -9.294   8.371  71.183  1.00  0.00    -0.177 C  
HETATM    4  C   UNL     1      -8.398   7.791  72.282  1.00  0.00    -0.154 C  
HETATM    5  CA  UNL     1     -10.790   8.524  71.556  1.00  0.00    -0.263 C  
HETATM    6  C   UNL     1      -8.666   9.712  70.752  1.00  0.00     0.052 C  
HETATM    7  N   UNL     1     -11.558   8.474  70.295  1.00  0.00    -0.081 N  
HETATM    8  C   UNL     1     -11.365   7.435  72.485  1.00  0.00    -0.313 C  
HETATM    9  OXT UNL     1     -10.888   7.103  73.560  1.00  0.00    -0.361 OA 
HETATM   10  O   UNL     1     -12.537   6.908  72.042  1.00  0.00    -0.302 OA 
HETATM   11  C   UNL     1     -11.610   9.579  69.481  1.00  0.00     0.209 C  
HETATM   12  CA  UNL     1     -11.257   8.736  68.222  1.00  0.00     0.508 C  
HETATM   13  O   UNL     1     -11.726  10.743  69.790  1.00  0.00    -0.270 OA 
ENDROOT
BRANCH  12  14
HETATM   14  N   UNL     1     -10.072   9.154  67.432  1.00  0.00    -0.212 N  
HETATM   15  C   UNL     1      -9.118   8.241  67.041  1.00  0.00    -0.145 C  
HETATM   16  H   UNL     1      -9.962  10.135  67.174  1.00  0.00     0.000 HD 
HETATM   17  O   UNL     1      -9.178   7.059  67.369  1.00  0.00    -0.124 OA 
HETATM   18  C   UNL     1      -7.965   8.793  66.225  1.00  0.00    -0.106 C  
HETATM   19  C   UNL     1      -8.482   9.226  64.866  1.00  0.00    -0.168 C  
HETATM   20  C   UNL     1      -7.102   9.829  66.972  1.00  0.00    -0.086 A  
HETATM   21  C   UNL     1      -6.902   9.719  68.361  1.00  0.00    -0.060 A  
HETATM   22  O   UNL     1      -8.963  10.323  64.607  1.00  0.00    -0.178 OA 
HETATM   23  C   UNL     1      -5.455  11.639  66.961  1.00  0.00    -0.121 A  
HETATM   24  C   UNL     1      -6.018  10.568  69.035  1.00  0.00    -0.040 A  
HETATM   25  C   UNL     1      -6.369  10.819  66.294  1.00  0.00    -0.129 A  
HETATM   26  C   UNL     1      -5.282  11.516  68.333  1.00  0.00    -0.039 A  
BRANCH  19  27
HETATM   27  O   UNL     1      -8.367   8.172  63.965  1.00  0.00    -0.115 OA 
BRANCH  27  28
HETATM   28  C   UNL     1      -7.988   6.964  64.564  1.00  0.00    -0.106 A  
HETATM   29  C   UNL     1      -6.447   5.683  65.864  1.00  0.00    -0.040 A  
HETATM   30  C   UNL     1      -6.761   6.860  65.217  1.00  0.00    -0.051 A  
HETATM   31  C   UNL     1      -7.361   4.640  65.931  1.00  0.00    -0.077 A  
HETATM   32  C   UNL     1      -8.605   4.747  65.321  1.00  0.00    -0.137 A  
HETATM   33  C   UNL     1      -6.826   3.509  66.746  1.00  0.00    -0.054 C  
HETATM   34  C   UNL     1      -5.405   3.970  67.121  1.00  0.00    -0.013 C  
HETATM   35  C   UNL     1      -8.920   5.922  64.624  1.00  0.00     0.322 A  
HETATM   36  C   UNL     1      -5.172   5.382  66.571  1.00  0.00    -0.008 C  
ENDBRANCH  27  28
ENDBRANCH  19  27
ENDBRANCH  12  14
TORSDOF 3
ENDMDL
MODEL      182
REMARK 921   NORMALIZED FREE ENERGY PREDICTED BY IDOCK:    3.00 KCAL/MOL
REMARK 922        TOTAL FREE ENERGY PREDICTED BY IDOCK:    2.65 KCAL/MOL
REMARK 923 INTER-LIGAND FREE ENERGY PREDICTED BY IDOCK:    1.06 KCAL/MOL
REMARK 924 INTRA-LIGAND FREE ENERGY PREDICTED BY IDOCK:    1.59 KCAL/MOL
REMARK 927      BINDING AFFINITY PREDICTED BY RF-SCORE:    0.00 PKD
ROOT
HETATM    1  C   UNL     1      -8.083  13.351  69.387  1.00  0.00     0.773 C  
HETATM    2  S   UNL     1      -8.690  11.688  69.884  1.00  0.00     2.525 SA 
HETATM    3  C   UNL     1      -7.031  10.874  69.725  1.00  0.00    -0.120 C  
HETATM    4  C   UNL     1      -6.893   9.772  70.780  1.00  0.00    -0.065 C  
HETATM    5  CA  UNL     1      -6.002  12.029  69.830  1.00  0.00    -0.149 C  
HETATM    6  C   UNL     1      -6.987  10.186  68.345  1.00  0.00    -0.066 C  
HETATM    7  N   UNL     1      -6.624  13.220  69.219  1.00  0.00    -0.107 N  
HETATM    8  C   UNL     1      -5.574  12.418  71.260  1.00  0.00     0.082 C  
HETATM    9  OXT UNL     1      -5.145  11.643  72.102  1.00  0.00    -0.335 OA 
HETATM   10  O   UNL     1      -5.632  13.755  71.498  1.00  0.00    -0.209 OA 
HETATM   11  C   UNL     1      -6.675  13.341  67.851  1.00  0.00    -0.143 C  
HETATM   12  CA  UNL     1      -8.186  13.709  67.886  1.00  0.00    -0.171 C  
HETATM   13  O   UNL     1      -5.827  13.064  67.034  1.00  0.00    -0.281 OA 
ENDROOT
BRANCH  12  14
HETATM   14  N   UNL     1      -9.111  12.870  67.083  1.00  0.00    -0.213 N  
HETATM   15  C   UNL     1      -8.644  12.068  66.066  1.00  0.00     0.203 C  
HETATM   16  H   UNL     1     -10.110  12.888  67.288  1.00  0.00     0.000 HD 
HETATM   17  O   UNL     1      -7.458  12.049  65.747  1.00  0.00     0.897 OA 
HETATM   18  C   UNL     1      -9.689  11.248  65.333  1.00  0.00    -0.271 C  
HETATM   19  C   UNL     1     -10.234  10.188  66.271  1.00  0.00    -0.219 C  
HETATM   20  C   UNL     1     -10.745  12.090  64.592  1.00  0.00    -0.355 A  
HETATM   21  C   UNL     1     -10.395  13.329  64.022  1.00  0.00    -0.051 A  
HETATM   22  O   UNL     1     -11.161  10.346  67.058  1.00  0.00    -0.207 OA 
HETATM   23  C   UNL     1     -12.926  12.298  63.501  1.00  0.00    -0.263 A  
HETATM   24  C   UNL     1     -11.300  14.046  63.232  1.00  0.00     1.335 A  
HETATM   25  C   UNL     1     -12.036  11.602  64.324  1.00  0.00    -0.143 A  
HETATM   26  C   UNL     1     -12.559  13.523  62.958  1.00  0.00     0.505 A  
BRANCH  19  27
HETATM   27  O   UNL     1      -9.494   9.017  66.134  1.00  0.00    -0.213 OA 
BRANCH  27  28
HETATM   28  C   UNL     1      -9.658   8.124  67.201  1.00  0.00    -0.174 A  
HETATM   29  C   UNL     1      -9.403   5.945  68.144  1.00  0.00    -0.117 A  
HETATM   30  C   UNL     1      -9.304   6.784  67.054  1.00  0.00    -0.165 A  
HETATM   31  C   UNL     1      -9.780   6.432  69.388  1.00  0.00    -0.160 A  
HETATM   32  C   UNL     1     -10.093   7.775  69.559  1.00  0.00    -0.194 A  
HETATM   33  C   UNL     1      -9.740   5.355  70.421  1.00  0.00    -0.254 C  
HETATM   34  C   UNL     1      -9.351   4.097  69.621  1.00  0.00    -0.241 C  
HETATM   35  C   UNL     1     -10.037   8.631  68.449  1.00  0.00    -0.217 A  
HETATM   36  C   UNL     1      -9.112   4.484  68.157  1.00  0.00    -0.155 C  
ENDBRANCH  27  28
ENDBRANCH  19  27
ENDBRANCH  12  14
TORSDOF 3
ENDMDL
MODEL      183
REMARK 921   NORMALIZED FREE ENERGY PREDICTED BY IDOCK:    3.26 KCAL/MOL
REMARK 922        TOTAL FREE ENERGY PREDICTED BY IDOCK:    2.96 KCAL/MOL
REMARK 923 INTER-LIGAND FREE ENERGY PREDICTED BY IDOCK:   -6.53 KCAL/MOL
REMARK 924 INTRA-LIGAND FREE ENERGY PREDICTED BY IDOCK:    9.48 KCAL/MOL
REMARK 927      BINDING AFFINITY PREDICTED BY RF-SCORE:    0.00 PKD
ROOT
HETATM    1  C   UNL     1     -10.648  14.130  67.581  1.00  0.00    -0.253 C  
HETATM    2  S   UNL     1      -9.348  13.578  66.404  1.00  0.00    -0.114 SA 
HETATM    3  C   UNL     1     -10.355  12.178  65.721  1.00  0.00    -0.258 C  
HETATM    4  C   UNL     1     -10.032  11.987  64.236  1.00  0.00    -0.266 C  
HETATM    5  CA  UNL     1     -11.827  12.545  66.041  1.00  0.00    -0.418 C  
HETATM    6  C   UNL     1      -9.909  10.893  66.448  1.00  0.00    -0.249 C  
HETATM    7  N   UNL     1     -11.822  13.276  67.324  1.00  0.00    -0.372 N  
HETATM    8  C   UNL     1     -12.535  13.441  65.006  1.00  0.00    -0.428 C  
HETATM    9  OXT UNL     1     -12.605  13.213  63.807  1.00  0.00    -0.684 OA 
HETATM   10  O   UNL     1     -13.176  14.506  65.558  1.00  0.00    -0.446 OA 
HETATM   11  C   UNL     1     -11.698  12.586  68.506  1.00  0.00    -0.324 C  
HETATM   12  CA  UNL     1     -10.584  13.546  69.013  1.00  0.00    -0.098 C  
HETATM   13  O   UNL     1     -12.207  11.536  68.826  1.00  0.00    -0.457 OA 
ENDROOT
BRANCH  12  14
HETATM   14  N   UNL     1      -9.288  12.938  69.405  1.00  0.00     0.385 N  
HETATM   15  C   UNL     1      -8.370  12.542  68.458  1.00  0.00    -0.069 C  
HETATM   16  H   UNL     1      -9.073  12.811  70.395  1.00  0.00     0.000 HD 
HETATM   17  O   UNL     1      -8.602  12.627  67.255  1.00  0.00    -0.180 OA 
HETATM   18  C   UNL     1      -7.079  11.950  68.991  1.00  0.00    -0.092 C  
HETATM   19  C   UNL     1      -6.283  13.040  69.684  1.00  0.00    -0.113 C  
HETATM   20  C   UNL     1      -7.265  10.648  69.792  1.00  0.00    -0.135 A  
HETATM   21  C   UNL     1      -8.285   9.741  69.448  1.00  0.00    -0.135 A  
HETATM   22  O   UNL     1      -6.410  13.374  70.856  1.00  0.00    -0.019 OA 
HETATM   23  C   UNL     1      -6.431   8.980  71.378  1.00  0.00    -0.079 A  
HETATM   24  C   UNL     1      -8.389   8.494  70.075  1.00  0.00    -0.123 A  
HETATM   25  C   UNL     1      -6.352  10.242  70.782  1.00  0.00    -0.030 A  
HETATM   26  C   UNL     1      -7.452   8.107  71.027  1.00  0.00    -0.067 A  
BRANCH  19  27
HETATM   27  O   UNL     1      -5.413  13.635  68.773  1.00  0.00    -0.069 OA 
BRANCH  27  28
HETATM   28  C   UNL     1      -5.469  15.034  68.780  1.00  0.00    -0.087 A  
HETATM   29  C   UNL     1      -5.420  17.121  67.619  1.00  0.00    -0.134 A  
HETATM   30  C   UNL     1      -5.283  15.749  67.598  1.00  0.00    -0.107 A  
HETATM   31  C   UNL     1      -5.806  17.781  68.777  1.00  0.00    -0.183 A  
HETATM   32  C   UNL     1      -6.038  17.077  69.953  1.00  0.00    -0.185 A  
HETATM   33  C   UNL     1      -5.961  19.246  68.534  1.00  0.00    -0.238 C  
HETATM   34  C   UNL     1      -5.541  19.417  67.062  1.00  0.00    -0.170 C  
HETATM   35  C   UNL     1      -5.861  15.685  69.955  1.00  0.00    -0.151 A  
HETATM   36  C   UNL     1      -5.215  18.042  66.468  1.00  0.00    -0.183 C  
ENDBRANCH  27  28
ENDBRANCH  19  27
ENDBRANCH  12  14
TORSDOF 3
ENDMDL
MODEL      184
REMARK 921   NORMALIZED FREE ENERGY PREDICTED BY IDOCK:    3.62 KCAL/MOL
REMARK 922        TOTAL FREE ENERGY PREDICTED BY IDOCK:    3.37 KCAL/MOL
REMARK 923 INTER-LIGAND FREE ENERGY PREDICTED BY IDOCK:    2.92 KCAL/MOL
REMARK 924 INTRA-LIGAND FREE ENERGY PREDICTED BY IDOCK:    0.45 KCAL/MOL
REMARK 927      BINDING AFFINITY PREDICTED BY RF-SCORE:    0.00 PKD
ROOT
HETATM    1  C   UNL     1      -9.445  10.857  70.470  1.00  0.00     2.386 C  
HETATM    2  S   UNL     1     -11.063  11.654  70.114  1.00  0.00     0.549 SA 
HETATM    3  C   UNL     1     -11.803  10.141  69.338  1.00  0.00     0.043 C  
HETATM    4  C   UNL     1     -13.304  10.085  69.644  1.00  0.00     1.651 C  
HETATM    5  CA  UNL     1     -10.967   8.956  69.885  1.00  0.00    -0.182 C  
HETATM    6  C   UNL     1     -11.661  10.291  67.810  1.00  0.00     0.292 C  
HETATM    7  N   UNL     1      -9.587   9.446  70.065  1.00  0.00    -0.210 N  
HETATM    8  C   UNL     1     -11.429   8.378  71.239  1.00  0.00    -0.280 C  
HETATM    9  OXT UNL     1     -12.563   8.003  71.495  1.00  0.00    -0.305 OA 
HETATM   10  O   UNL     1     -10.419   8.231  72.138  1.00  0.00    -0.251 OA 
HETATM   11  C   UNL     1      -8.758   9.577  68.977  1.00  0.00    -0.142 C  
HETATM   12  CA  UNL     1      -8.341  11.015  69.398  1.00  0.00     0.147 C  
HETATM   13  O   UNL     1      -8.631   8.835  68.030  1.00  0.00    -0.132 OA 
ENDROOT
BRANCH  12  14
HETATM   14  N   UNL     1      -8.551  12.102  68.409  1.00  0.00    -0.249 N  
HETATM   15  C   UNL     1      -8.828  13.389  68.813  1.00  0.00     0.124 C  
HETATM   16  H   UNL     1      -8.488  11.892  67.413  1.00  0.00     0.000 HD 
HETATM   17  O   UNL     1      -8.963  13.682  69.998  1.00  0.00     1.925 OA 
HETATM   18  C   UNL     1      -9.005  14.409  67.704  1.00  0.00    -0.192 C  
HETATM   19  C   UNL     1      -7.670  14.634  67.020  1.00  0.00     0.041 C  
HETATM   20  C   UNL     1     -10.196  14.124  66.769  1.00  0.00    -0.262 A  
HETATM   21  C   UNL     1     -11.365  13.520  67.270  1.00  0.00    -0.339 A  
HETATM   22  O   UNL     1      -7.227  13.963  66.094  1.00  0.00     2.133 OA 
HETATM   23  C   UNL     1     -11.380  14.473  64.655  1.00  0.00    -0.372 A  
HETATM   24  C   UNL     1     -12.504  13.374  66.471  1.00  0.00    -0.255 A  
HETATM   25  C   UNL     1     -10.228  14.582  65.440  1.00  0.00    -0.415 A  
HETATM   26  C   UNL     1     -12.517  13.866  65.170  1.00  0.00    -0.479 A  
BRANCH  19  27
HETATM   27  O   UNL     1      -7.004  15.693  67.630  1.00  0.00    -0.139 OA 
BRANCH  27  28
HETATM   28  C   UNL     1      -7.679  16.915  67.520  1.00  0.00    -0.169 A  
HETATM   29  C   UNL     1      -9.091  18.599  68.455  1.00  0.00    -0.358 A  
HETATM   30  C   UNL     1      -8.500  17.358  68.557  1.00  0.00    -0.274 A  
HETATM   31  C   UNL     1      -8.823  19.431  67.377  1.00  0.00    -0.349 A  
HETATM   32  C   UNL     1      -7.972  19.020  66.358  1.00  0.00    -0.300 A  
HETATM   33  C   UNL     1      -9.515  20.746  67.528  1.00  0.00    -0.419 C  
HETATM   34  C   UNL     1     -10.319  20.587  68.832  1.00  0.00     0.119 C  
HETATM   35  C   UNL     1      -7.397  17.743  66.429  1.00  0.00    -0.310 A  
HETATM   36  C   UNL     1     -10.026  19.210  69.440  1.00  0.00    -0.103 C  
ENDBRANCH  27  28
ENDBRANCH  19  27
ENDBRANCH  12  14
TORSDOF 3
ENDMDL
MODEL      185
REMARK 921   NORMALIZED FREE ENERGY PREDICTED BY IDOCK:    3.80 KCAL/MOL
REMARK 922        TOTAL FREE ENERGY PREDICTED BY IDOCK:    3.59 KCAL/MOL
REMARK 923 INTER-LIGAND FREE ENERGY PREDICTED BY IDOCK:   -3.72 KCAL/MOL
REMARK 924 INTRA-LIGAND FREE ENERGY PREDICTED BY IDOCK:    7.31 KCAL/MOL
REMARK 927      BINDING AFFINITY PREDICTED BY RF-SCORE:    0.00 PKD
ROOT
HETATM    1  C   UNL     1      -8.091  15.274  67.334  1.00  0.00    -0.182 C  
HETATM    2  S   UNL     1      -9.470  14.259  66.664  1.00  0.00    -0.287 SA 
HETATM    3  C   UNL     1     -10.605  14.595  68.093  1.00  0.00    -0.237 C  
HETATM    4  C   UNL     1     -12.054  14.649  67.599  1.00  0.00    -0.216 C  
HETATM    5  CA  UNL     1     -10.071  15.900  68.736  1.00  0.00    -0.221 C  
HETATM    6  C   UNL     1     -10.501  13.393  69.054  1.00  0.00    -0.056 C  
HETATM    7  N   UNL     1      -8.604  15.897  68.569  1.00  0.00    -0.181 N  
HETATM    8  C   UNL     1     -10.599  17.213  68.124  1.00  0.00    -0.380 C  
HETATM    9  OXT UNL     1     -11.778  17.494  67.967  1.00  0.00     0.619 OA 
HETATM   10  O   UNL     1      -9.618  18.111  67.837  1.00  0.00    -0.274 OA 
HETATM   11  C   UNL     1      -7.822  15.126  69.395  1.00  0.00    -0.208 C  
HETATM   12  CA  UNL     1      -7.035  14.536  68.190  1.00  0.00    -0.122 C  
HETATM   13  O   UNL     1      -7.931  14.942  70.586  1.00  0.00     0.859 OA 
ENDROOT
BRANCH  12  14
HETATM   14  N   UNL     1      -7.009  13.058  68.051  1.00  0.00    -0.096 N  
HETATM   15  C   UNL     1      -8.114  12.294  68.356  1.00  0.00    -0.151 C  
HETATM   16  H   UNL     1      -6.158  12.600  67.724  1.00  0.00     0.000 HD 
HETATM   17  O   UNL     1      -9.145  12.793  68.800  1.00  0.00    -0.005 OA 
HETATM   18  C   UNL     1      -7.963  10.798  68.155  1.00  0.00    -0.114 C  
HETATM   19  C   UNL     1      -7.845  10.506  66.671  1.00  0.00    -0.125 C  
HETATM   20  C   UNL     1      -6.891  10.147  69.051  1.00  0.00    -0.056 A  
HETATM   21  C   UNL     1      -6.649  10.643  70.346  1.00  0.00    -0.075 A  
HETATM   22  O   UNL     1      -6.804  10.522  66.026  1.00  0.00    -0.120 OA 
HETATM   23  C   UNL     1      -5.390   8.285  69.572  1.00  0.00    -0.030 A  
HETATM   24  C   UNL     1      -5.778   9.987  71.222  1.00  0.00    -0.037 A  
HETATM   25  C   UNL     1      -6.228   8.963  68.683  1.00  0.00    -0.046 A  
HETATM   26  C   UNL     1      -5.162   8.800  70.842  1.00  0.00    -0.028 A  
BRANCH  19  27
HETATM   27  O   UNL     1      -9.109  10.257  66.143  1.00  0.00    -0.150 OA 
BRANCH  27  28
HETATM   28  C   UNL     1      -9.495   8.913  66.226  1.00  0.00    -0.239 A  
HETATM   29  C   UNL     1      -9.081   6.602  65.788  1.00  0.00     0.004 A  
HETATM   30  C   UNL     1      -8.720   7.923  65.625  1.00  0.00    -0.145 A  
HETATM   31  C   UNL     1     -10.154   6.250  66.595  1.00  0.00    -0.214 A  
HETATM   32  C   UNL     1     -10.908   7.225  67.238  1.00  0.00    -0.354 A  
HETATM   33  C   UNL     1     -10.300   4.767  66.678  1.00  0.00    -0.258 C  
HETATM   34  C   UNL     1      -9.199   4.239  65.739  1.00  0.00    -0.146 C  
HETATM   35  C   UNL     1     -10.577   8.574  67.045  1.00  0.00    -0.305 A  
HETATM   36  C   UNL     1      -8.399   5.424  65.184  1.00  0.00    -0.144 C  
ENDBRANCH  27  28
ENDBRANCH  19  27
ENDBRANCH  12  14
TORSDOF 3
ENDMDL
MODEL      186
REMARK 921   NORMALIZED FREE ENERGY PREDICTED BY IDOCK:    3.94 KCAL/MOL
REMARK 922        TOTAL FREE ENERGY PREDICTED BY IDOCK:    3.75 KCAL/MOL
REMARK 923 INTER-LIGAND FREE ENERGY PREDICTED BY IDOCK:   -1.86 KCAL/MOL
REMARK 924 INTRA-LIGAND FREE ENERGY PREDICTED BY IDOCK:    5.61 KCAL/MOL
REMARK 927      BINDING AFFINITY PREDICTED BY RF-SCORE:    0.00 PKD
ROOT
HETATM    1  C   UNL     1      -6.335  12.018  67.949  1.00  0.00    -0.073 C  
HETATM    2  S   UNL     1      -7.876  11.817  66.967  1.00  0.00    -0.144 SA 
HETATM    3  C   UNL     1      -9.000  12.312  68.356  1.00  0.00    -0.141 C  
HETATM    4  C   UNL     1     -10.217  13.056  67.796  1.00  0.00    -0.228 C  
HETATM    5  CA  UNL     1      -8.109  13.128  69.327  1.00  0.00     0.658 C  
HETATM    6  C   UNL     1      -9.526  11.015  69.006  1.00  0.00    -0.123 C  
HETATM    7  N   UNL     1      -6.753  12.548  69.260  1.00  0.00    -0.090 N  
HETATM    8  C   UNL     1      -7.980  14.632  69.015  1.00  0.00    -0.122 C  
HETATM    9  OXT UNL     1      -8.916  15.401  68.853  1.00  0.00    -0.179 OA 
HETATM   10  O   UNL     1      -6.695  15.078  69.015  1.00  0.00    -0.104 OA 
HETATM   11  C   UNL     1      -6.473  11.379  69.927  1.00  0.00    -0.118 C  
HETATM   12  CA  UNL     1      -5.799  10.759  68.670  1.00  0.00    -0.039 C  
HETATM   13  O   UNL     1      -6.832  11.032  71.029  1.00  0.00     0.385 OA 
ENDROOT
BRANCH  12  14
HETATM   14  N   UNL     1      -6.330   9.461  68.183  1.00  0.00    -0.053 N  
HETATM   15  C   UNL     1      -7.449   8.891  68.747  1.00  0.00    -0.083 C  
HETATM   16  H   UNL     1      -5.856   8.982  67.416  1.00  0.00     0.000 HD 
HETATM   17  O   UNL     1      -8.026   9.404  69.703  1.00  0.00    -0.089 OA 
HETATM   18  C   UNL     1      -7.898   7.572  68.147  1.00  0.00    -0.122 C  
HETATM   19  C   UNL     1      -8.410   7.816  66.740  1.00  0.00    -0.125 C  
HETATM   20  C   UNL     1      -6.873   6.431  68.296  1.00  0.00    -0.071 A  
HETATM   21  C   UNL     1      -6.043   6.365  69.431  1.00  0.00    -0.029 A  
HETATM   22  O   UNL     1      -7.719   7.841  65.729  1.00  0.00    -0.090 OA 
HETATM   23  C   UNL     1      -6.017   4.233  67.643  1.00  0.00    -0.024 A  
HETATM   24  C   UNL     1      -5.201   5.269  69.651  1.00  0.00    -0.004 A  
HETATM   25  C   UNL     1      -6.827   5.347  67.402  1.00  0.00    -0.060 A  
HETATM   26  C   UNL     1      -5.201   4.196  68.766  1.00  0.00    -0.011 A  
BRANCH  19  27
HETATM   27  O   UNL     1      -9.782   8.048  66.777  1.00  0.00    -0.198 OA 
BRANCH  27  28
HETATM   28  C   UNL     1     -10.396   7.589  67.949  1.00  0.00    -0.210 A  
HETATM   29  C   UNL     1     -10.908   7.854  70.267  1.00  0.00    -0.241 A  
HETATM   30  C   UNL     1     -10.231   8.284  69.146  1.00  0.00    -0.223 A  
HETATM   31  C   UNL     1     -11.797   6.790  70.199  1.00  0.00    -0.321 A  
HETATM   32  C   UNL     1     -12.006   6.115  69.001  1.00  0.00     1.409 A  
HETATM   33  C   UNL     1     -12.464   6.562  71.515  1.00  0.00    -0.228 C  
HETATM   34  C   UNL     1     -11.802   7.598  72.443  1.00  0.00    -0.336 C  
HETATM   35  C   UNL     1     -11.291   6.517  67.864  1.00  0.00    -0.096 A  
HETATM   36  C   UNL     1     -10.816   8.445  71.630  1.00  0.00    -0.335 C  
ENDBRANCH  27  28
ENDBRANCH  19  27
ENDBRANCH  12  14
TORSDOF 3
ENDMDL
MODEL      187
REMARK 921   NORMALIZED FREE ENERGY PREDICTED BY IDOCK:    4.41 KCAL/MOL
REMARK 922        TOTAL FREE ENERGY PREDICTED BY IDOCK:    4.30 KCAL/MOL
REMARK 923 INTER-LIGAND FREE ENERGY PREDICTED BY IDOCK:   -2.38 KCAL/MOL
REMARK 924 INTRA-LIGAND FREE ENERGY PREDICTED BY IDOCK:    6.68 KCAL/MOL
REMARK 927      BINDING AFFINITY PREDICTED BY RF-SCORE:    0.00 PKD
ROOT
HETATM    1  C   UNL     1     -10.456   6.755  70.102  1.00  0.00    -0.209 C  
HETATM    2  S   UNL     1      -8.777   6.863  69.362  1.00  0.00    -0.132 SA 
HETATM    3  C   UNL     1      -7.906   6.993  70.994  1.00  0.00    -0.096 C  
HETATM    4  C   UNL     1      -6.544   6.296  70.910  1.00  0.00    -0.053 C  
HETATM    5  CA  UNL     1      -8.896   6.399  72.029  1.00  0.00    -0.134 C  
HETATM    6  C   UNL     1      -7.631   8.489  71.251  1.00  0.00    -0.115 C  
HETATM    7  N   UNL     1     -10.258   6.726  71.563  1.00  0.00    -0.193 N  
HETATM    8  C   UNL     1      -8.831   4.870  72.218  1.00  0.00    -0.127 C  
HETATM    9  OXT UNL     1      -7.818   4.233  72.469  1.00  0.00    -0.081 OA 
HETATM   10  O   UNL     1     -10.048   4.265  72.166  1.00  0.00    -0.179 OA 
HETATM   11  C   UNL     1     -10.762   7.990  71.752  1.00  0.00    -0.240 C  
HETATM   12  CA  UNL     1     -11.229   8.084  70.272  1.00  0.00    -0.190 C  
HETATM   13  O   UNL     1     -10.656   8.711  72.718  1.00  0.00    -0.155 OA 
ENDROOT
BRANCH  12  14
HETATM   14  N   UNL     1     -10.728   9.229  69.470  1.00  0.00    -0.229 N  
HETATM   15  C   UNL     1      -9.501   9.798  69.729  1.00  0.00    -0.228 C  
HETATM   16  H   UNL     1     -11.304   9.602  68.715  1.00  0.00     0.000 HD 
HETATM   17  O   UNL     1      -8.793   9.418  70.658  1.00  0.00    -0.232 OA 
HETATM   18  C   UNL     1      -9.100  10.950  68.828  1.00  0.00    -0.174 C  
HETATM   19  C   UNL     1      -8.852  10.422  67.428  1.00  0.00    -0.132 C  
HETATM   20  C   UNL     1     -10.026  12.178  68.924  1.00  0.00     0.025 A  
HETATM   21  C   UNL     1     -10.642  12.510  70.146  1.00  0.00     1.665 A  
HETATM   22  O   UNL     1      -9.709  10.274  66.564  1.00  0.00    -0.177 OA 
HETATM   23  C   UNL     1     -10.874  14.287  68.017  1.00  0.00    -0.247 A  
HETATM   24  C   UNL     1     -11.378  13.692  70.289  1.00  0.00     0.085 A  
HETATM   25  C   UNL     1     -10.174  13.088  67.862  1.00  0.00    -0.234 A  
HETATM   26  C   UNL     1     -11.479  14.588  69.231  1.00  0.00    -0.322 A  
BRANCH  19  27
HETATM   27  O   UNL     1      -7.508  10.091  67.284  1.00  0.00    -0.090 OA 
BRANCH  27  28
HETATM   28  C   UNL     1      -7.301   8.797  66.789  1.00  0.00    -0.082 A  
HETATM   29  C   UNL     1      -7.887   7.025  65.298  1.00  0.00    -0.121 A  
HETATM   30  C   UNL     1      -8.159   8.270  65.824  1.00  0.00    -0.109 A  
HETATM   31  C   UNL     1      -6.742   6.330  65.664  1.00  0.00    -0.048 A  
HETATM   32  C   UNL     1      -5.855   6.863  66.591  1.00  0.00    -0.025 A  
HETATM   33  C   UNL     1      -6.627   5.048  64.907  1.00  0.00    -0.040 C  
HETATM   34  C   UNL     1      -7.914   5.007  64.062  1.00  0.00    -0.102 C  
HETATM   35  C   UNL     1      -6.142   8.111  67.165  1.00  0.00    -0.054 A  
HETATM   36  C   UNL     1      -8.714   6.293  64.299  1.00  0.00     0.393 C  
ENDBRANCH  27  28
ENDBRANCH  19  27
ENDBRANCH  12  14
TORSDOF 3
ENDMDL
MODEL      188
REMARK 921   NORMALIZED FREE ENERGY PREDICTED BY IDOCK:    5.25 KCAL/MOL
REMARK 922        TOTAL FREE ENERGY PREDICTED BY IDOCK:    5.29 KCAL/MOL
REMARK 923 INTER-LIGAND FREE ENERGY PREDICTED BY IDOCK:    4.51 KCAL/MOL
REMARK 924 INTRA-LIGAND FREE ENERGY PREDICTED BY IDOCK:    0.79 KCAL/MOL
REMARK 927      BINDING AFFINITY PREDICTED BY RF-SCORE:    0.00 PKD
ROOT
HETATM    1  C   UNL     1      -8.751  13.648  69.693  1.00  0.00     1.450 C  
HETATM    2  S   UNL     1      -8.167  11.907  69.603  1.00  0.00     1.611 SA 
HETATM    3  C   UNL     1      -6.381  12.363  69.403  1.00  0.00    -0.119 C  
HETATM    4  C   UNL     1      -5.500  11.316  70.094  1.00  0.00    -0.097 C  
HETATM    5  CA  UNL     1      -6.266  13.804  69.963  1.00  0.00    -0.120 C  
HETATM    6  C   UNL     1      -6.056  12.300  67.897  1.00  0.00    -0.082 C  
HETATM    7  N   UNL     1      -7.540  14.487  69.663  1.00  0.00     0.009 N  
HETATM    8  C   UNL     1      -6.032  13.916  71.483  1.00  0.00    -0.012 C  
HETATM    9  OXT UNL     1      -5.142  13.352  72.102  1.00  0.00    -0.177 OA 
HETATM   10  O   UNL     1      -6.871  14.793  72.097  1.00  0.00     1.302 OA 
HETATM   11  C   UNL     1      -7.783  14.959  68.396  1.00  0.00    -0.115 C  
HETATM   12  CA  UNL     1      -9.193  14.303  68.363  1.00  0.00    -0.196 C  
HETATM   13  O   UNL     1      -7.023  15.517  67.637  1.00  0.00    -0.145 OA 
ENDROOT
BRANCH  12  14
HETATM   14  N   UNL     1      -9.484  13.368  67.247  1.00  0.00    -0.225 N  
HETATM   15  C   UNL     1      -8.742  13.390  66.087  1.00  0.00     0.553 C  
HETATM   16  H   UNL     1     -10.247  12.698  67.341  1.00  0.00     0.000 HD 
HETATM   17  O   UNL     1      -7.846  14.210  65.906  1.00  0.00     1.996 OA 
HETATM   18  C   UNL     1      -9.131  12.373  65.031  1.00  0.00     0.663 C  
HETATM   19  C   UNL     1      -8.789  10.982  65.532  1.00  0.00    -0.169 C  
HETATM   20  C   UNL     1     -10.557  12.551  64.478  1.00  0.00    -0.363 A  
HETATM   21  C   UNL     1     -11.119  13.837  64.360  1.00  0.00    -0.356 A  
HETATM   22  O   UNL     1      -9.516  10.281  66.227  1.00  0.00    -0.165 OA 
HETATM   23  C   UNL     1     -12.507  11.680  63.281  1.00  0.00    -0.262 A  
HETATM   24  C   UNL     1     -12.357  14.033  63.739  1.00  0.00    -0.195 A  
HETATM   25  C   UNL     1     -11.289  11.479  63.938  1.00  0.00    -0.400 A  
HETATM   26  C   UNL     1     -13.043  12.958  63.185  1.00  0.00     0.845 A  
BRANCH  19  27
HETATM   27  O   UNL     1      -7.505  10.639  65.119  1.00  0.00    -0.083 OA 
BRANCH  27  28
HETATM   28  C   UNL     1      -7.346   9.270  64.871  1.00  0.00    -0.103 A  
HETATM   29  C   UNL     1      -7.763   7.340  63.526  1.00  0.00    -0.123 A  
HETATM   30  C   UNL     1      -7.999   8.672  63.793  1.00  0.00    -0.160 A  
HETATM   31  C   UNL     1      -6.839   6.616  64.267  1.00  0.00    -0.049 A  
HETATM   32  C   UNL     1      -6.147   7.211  65.315  1.00  0.00    -0.037 A  
HETATM   33  C   UNL     1      -6.702   5.225  63.743  1.00  0.00    -0.041 C  
HETATM   34  C   UNL     1      -7.737   5.161  62.603  1.00  0.00    -0.069 C  
HETATM   35  C   UNL     1      -6.409   8.554  65.624  1.00  0.00    -0.056 A  
HETATM   36  C   UNL     1      -8.404   6.533  62.451  1.00  0.00    -0.003 C  
ENDBRANCH  27  28
ENDBRANCH  19  27
ENDBRANCH  12  14
TORSDOF 3
ENDMDL
MODEL      189
REMARK 921   NORMALIZED FREE ENERGY PREDICTED BY IDOCK:    5.30 KCAL/MOL
REMARK 922        TOTAL FREE ENERGY PREDICTED BY IDOCK:    5.35 KCAL/MOL
REMARK 923 INTER-LIGAND FREE ENERGY PREDICTED BY IDOCK:    4.19 KCAL/MOL
REMARK 924 INTRA-LIGAND FREE ENERGY PREDICTED BY IDOCK:    1.16 KCAL/MOL
REMARK 927      BINDING AFFINITY PREDICTED BY RF-SCORE:    0.00 PKD
ROOT
HETATM    1  C   UNL     1      -9.188  17.661  69.265  1.00  0.00     0.205 C  
HETATM    2  S   UNL     1      -7.877  16.493  68.721  1.00  0.00    -0.243 SA 
HETATM    3  C   UNL     1      -7.620  17.318  67.079  1.00  0.00    -0.197 C  
HETATM    4  C   UNL     1      -6.146  17.214  66.675  1.00  0.00    -0.247 C  
HETATM    5  CA  UNL     1      -8.161  18.759  67.262  1.00  0.00    -0.263 C  
HETATM    6  C   UNL     1      -8.431  16.524  66.035  1.00  0.00    -0.206 C  
HETATM    7  N   UNL     1      -9.294  18.680  68.205  1.00  0.00    -0.307 N  
HETATM    8  C   UNL     1      -7.160  19.784  67.832  1.00  0.00    -0.274 C  
HETATM    9  OXT UNL     1      -6.046  20.006  67.382  1.00  0.00    -0.182 OA 
HETATM   10  O   UNL     1      -7.660  20.513  68.865  1.00  0.00     0.203 OA 
HETATM   11  C   UNL     1     -10.519  18.236  67.769  1.00  0.00    -0.410 C  
HETATM   12  CA  UNL     1     -10.651  17.254  68.969  1.00  0.00    -0.247 C  
HETATM   13  O   UNL     1     -11.086  18.479  66.728  1.00  0.00    -0.056 OA 
ENDROOT
BRANCH  12  14
HETATM   14  N   UNL     1     -10.871  15.820  68.654  1.00  0.00    -0.262 N  
HETATM   15  C   UNL     1     -10.800  14.856  69.635  1.00  0.00    -0.253 C  
HETATM   16  H   UNL     1     -11.078  15.543  67.694  1.00  0.00     0.000 HD 
HETATM   17  O   UNL     1     -10.505  15.132  70.795  1.00  0.00    -0.113 OA 
HETATM   18  C   UNL     1     -11.061  13.431  69.186  1.00  0.00    -0.261 C  
HETATM   19  C   UNL     1     -12.519  13.294  68.792  1.00  0.00     0.347 C  
HETATM   20  C   UNL     1     -10.040  12.895  68.164  1.00  0.00    -0.240 A  
HETATM   21  C   UNL     1      -8.696  13.309  68.218  1.00  0.00    -0.168 A  
HETATM   22  O   UNL     1     -12.981  13.543  67.684  1.00  0.00     0.954 OA 
HETATM   23  C   UNL     1      -9.388  11.276  66.448  1.00  0.00    -0.210 A  
HETATM   24  C   UNL     1      -7.727  12.736  67.386  1.00  0.00    -0.165 A  
HETATM   25  C   UNL     1     -10.363  11.877  67.250  1.00  0.00    -0.228 A  
HETATM   26  C   UNL     1      -8.070  11.708  66.515  1.00  0.00    -0.075 A  
BRANCH  19  27
HETATM   27  O   UNL     1     -13.265  12.883  69.894  1.00  0.00     0.877 OA 
BRANCH  27  28
HETATM   28  C   UNL     1     -13.036  13.652  71.041  1.00  0.00    -0.180 A  
HETATM   29  C   UNL     1     -13.231  15.713  72.234  1.00  0.00    -0.558 A  
HETATM   30  C   UNL     1     -13.395  14.999  71.065  1.00  0.00    -0.477 A  
HETATM   31  C   UNL     1     -12.784  15.092  73.392  1.00  0.00    -0.661 A  
HETATM   32  C   UNL     1     -12.465  13.739  73.394  1.00  0.00     0.993 A  
HETATM   33  C   UNL     1     -12.761  16.048  74.539  1.00  0.00    -0.416 C  
HETATM   34  C   UNL     1     -13.193  17.385  73.908  1.00  0.00     2.386 C  
HETATM   35  C   UNL     1     -12.588  13.012  72.202  1.00  0.00     0.046 A  
HETATM   36  C   UNL     1     -13.517  17.161  72.426  1.00  0.00     5.072 C  
ENDBRANCH  27  28
ENDBRANCH  19  27
ENDBRANCH  12  14
TORSDOF 3
ENDMDL
MODEL      190
REMARK 921   NORMALIZED FREE ENERGY PREDICTED BY IDOCK:    5.40 KCAL/MOL
REMARK 922        TOTAL FREE ENERGY PREDICTED BY IDOCK:    5.47 KCAL/MOL
REMARK 923 INTER-LIGAND FREE ENERGY PREDICTED BY IDOCK:    4.03 KCAL/MOL
REMARK 924 INTRA-LIGAND FREE ENERGY PREDICTED BY IDOCK:    1.44 KCAL/MOL
REMARK 927      BINDING AFFINITY PREDICTED BY RF-SCORE:    0.00 PKD
ROOT
HETATM    1  C   UNL     1     -10.955   6.011  66.887  1.00  0.00    -0.266 C  
HETATM    2  S   UNL     1      -9.422   6.603  66.063  1.00  0.00     0.160 SA 
HETATM    3  C   UNL     1      -8.608   4.936  66.057  1.00  0.00    -0.119 C  
HETATM    4  C   UNL     1      -7.743   4.789  64.801  1.00  0.00    -0.078 C  
HETATM    5  CA  UNL     1      -9.769   3.918  66.188  1.00  0.00    -0.160 C  
HETATM    6  C   UNL     1      -7.655   4.885  67.269  1.00  0.00    -0.087 C  
HETATM    7  N   UNL     1     -10.807   4.551  67.027  1.00  0.00     0.625 N  
HETATM    8  C   UNL     1     -10.443   3.495  64.867  1.00  0.00     0.134 C  
HETATM    9  OXT UNL     1      -9.859   3.059  63.886  1.00  0.00    -0.139 OA 
HETATM   10  O   UNL     1     -11.801   3.566  64.904  1.00  0.00     1.588 OA 
HETATM   11  C   UNL     1     -10.648   4.603  68.391  1.00  0.00     0.561 C  
HETATM   12  CA  UNL     1     -11.002   6.117  68.429  1.00  0.00    -0.305 C  
HETATM   13  O   UNL     1     -10.220   3.751  69.136  1.00  0.00     0.334 OA 
ENDROOT
BRANCH  12  14
HETATM   14  N   UNL     1     -10.009   7.033  69.045  1.00  0.00    -0.160 N  
HETATM   15  C   UNL     1     -10.223   8.393  69.085  1.00  0.00    -0.211 C  
HETATM   16  H   UNL     1      -9.153   6.649  69.445  1.00  0.00     0.000 HD 
HETATM   17  O   UNL     1     -11.213   8.909  68.574  1.00  0.00     0.167 OA 
HETATM   18  C   UNL     1      -9.140   9.216  69.756  1.00  0.00    -0.173 C  
HETATM   19  C   UNL     1      -9.132   8.909  71.242  1.00  0.00    -0.253 C  
HETATM   20  C   UNL     1      -7.770   9.148  69.053  1.00  0.00    -0.078 A  
HETATM   21  C   UNL     1      -7.695   9.017  67.654  1.00  0.00    -0.097 A  
HETATM   22  O   UNL     1      -8.520   7.990  71.773  1.00  0.00    -0.110 OA 
HETATM   23  C   UNL     1      -5.344   9.473  69.071  1.00  0.00    -0.036 A  
HETATM   24  C   UNL     1      -6.468   9.087  66.984  1.00  0.00    -0.061 A  
HETATM   25  C   UNL     1      -6.565   9.362  69.744  1.00  0.00    -0.045 A  
HETATM   26  C   UNL     1      -5.296   9.332  67.691  1.00  0.00    -0.037 A  
BRANCH  19  27
HETATM   27  O   UNL     1      -9.962   9.807  71.908  1.00  0.00     0.465 OA 
BRANCH  27  28
HETATM   28  C   UNL     1     -10.632  10.689  71.052  1.00  0.00     1.363 A  
HETATM   29  C   UNL     1     -10.602  12.281  69.271  1.00  0.00     0.064 A  
HETATM   30  C   UNL     1      -9.913  11.479  70.156  1.00  0.00     1.902 A  
HETATM   31  C   UNL     1     -11.989  12.257  69.218  1.00  0.00    -0.308 A  
HETATM   32  C   UNL     1     -12.718  11.441  70.075  1.00  0.00    -0.015 A  
HETATM   33  C   UNL     1     -12.501  13.148  68.134  1.00  0.00     0.401 C  
HETATM   34  C   UNL     1     -11.225  13.795  67.562  1.00  0.00    -0.316 C  
HETATM   35  C   UNL     1     -12.030  10.651  71.007  1.00  0.00    -0.442 A  
HETATM   36  C   UNL     1     -10.001  13.217  68.282  1.00  0.00    -0.236 C  
ENDBRANCH  27  28
ENDBRANCH  19  27
ENDBRANCH  12  14
TORSDOF 3
ENDMDL
MODEL      191
REMARK 921   NORMALIZED FREE ENERGY PREDICTED BY IDOCK:    6.34 KCAL/MOL
REMARK 922        TOTAL FREE ENERGY PREDICTED BY IDOCK:    6.58 KCAL/MOL
REMARK 923 INTER-LIGAND FREE ENERGY PREDICTED BY IDOCK:   -2.64 KCAL/MOL
REMARK 924 INTRA-LIGAND FREE ENERGY PREDICTED BY IDOCK:    9.22 KCAL/MOL
REMARK 927      BINDING AFFINITY PREDICTED BY RF-SCORE:    0.00 PKD
ROOT
HETATM    1  C   UNL     1     -10.989   6.010  66.884  1.00  0.00    -0.266 C  
HETATM    2  S   UNL     1      -9.520   6.800  66.110  1.00  0.00     0.075 SA 
HETATM    3  C   UNL     1      -8.459   5.284  66.232  1.00  0.00    -0.115 C  
HETATM    4  C   UNL     1      -7.509   5.221  65.031  1.00  0.00    -0.073 C  
HETATM    5  CA  UNL     1      -9.453   4.102  66.357  1.00  0.00    -0.189 C  
HETATM    6  C   UNL     1      -7.582   5.437  67.491  1.00  0.00    -0.088 C  
HETATM    7  N   UNL     1     -10.624   4.599  67.108  1.00  0.00     0.078 N  
HETATM    8  C   UNL     1      -9.975   3.520  65.028  1.00  0.00    -0.063 C  
HETATM    9  OXT UNL     1      -9.274   3.139  64.102  1.00  0.00    -0.112 OA 
HETATM   10  O   UNL     1     -11.327   3.376  64.992  1.00  0.00     0.812 OA 
HETATM   11  C   UNL     1     -10.555   4.735  68.474  1.00  0.00     0.424 C  
HETATM   12  CA  UNL     1     -11.141   6.174  68.415  1.00  0.00    -0.248 C  
HETATM   13  O   UNL     1     -10.043   3.995  69.283  1.00  0.00    -0.001 OA 
ENDROOT
BRANCH  12  14
HETATM   14  N   UNL     1     -10.341   7.262  69.031  1.00  0.00    -0.201 N  
HETATM   15  C   UNL     1      -9.525   8.066  68.268  1.00  0.00    -0.141 C  
HETATM   16  H   UNL     1     -10.396   7.416  70.038  1.00  0.00     0.000 HD 
HETATM   17  O   UNL     1      -9.386   7.890  67.060  1.00  0.00    -0.145 OA 
HETATM   18  C   UNL     1      -8.773   9.151  69.016  1.00  0.00    -0.135 C  
HETATM   19  C   UNL     1      -9.763  10.185  69.517  1.00  0.00    -0.229 C  
HETATM   20  C   UNL     1      -7.776   8.619  70.063  1.00  0.00    -0.080 A  
HETATM   21  C   UNL     1      -7.093   7.407  69.844  1.00  0.00    -0.065 A  
HETATM   22  O   UNL     1     -10.378  10.123  70.576  1.00  0.00    -0.232 OA 
HETATM   23  C   UNL     1      -6.364   8.962  72.033  1.00  0.00    -0.048 A  
HETATM   24  C   UNL     1      -6.088   6.973  70.715  1.00  0.00    -0.032 A  
HETATM   25  C   UNL     1      -7.396   9.375  71.186  1.00  0.00     0.008 A  
HETATM   26  C   UNL     1      -5.712   7.759  71.800  1.00  0.00    -0.035 A  
BRANCH  19  27
HETATM   27  O   UNL     1      -9.900  11.197  68.571  1.00  0.00    -0.185 OA 
BRANCH  27  28
HETATM   28  C   UNL     1      -9.250  10.924  67.362  1.00  0.00    -0.147 A  
HETATM   29  C   UNL     1      -7.295  10.267  66.156  1.00  0.00    -0.122 A  
HETATM   30  C   UNL     1      -7.892  10.608  67.352  1.00  0.00    -0.110 A  
HETATM   31  C   UNL     1      -8.040  10.167  64.989  1.00  0.00    -0.149 A  
HETATM   32  C   UNL     1      -9.404  10.435  64.993  1.00  0.00    -0.279 A  
HETATM   33  C   UNL     1      -7.192   9.711  63.848  1.00  0.00    -0.115 C  
HETATM   34  C   UNL     1      -5.782   9.610  64.459  1.00  0.00    -0.080 C  
HETATM   35  C   UNL     1     -10.015  10.824  66.195  1.00  0.00    -0.283 A  
HETATM   36  C   UNL     1      -5.855   9.947  65.953  1.00  0.00    -0.070 C  
ENDBRANCH  27  28
ENDBRANCH  19  27
ENDBRANCH  12  14
TORSDOF 3
ENDMDL
MODEL      192
REMARK 921   NORMALIZED FREE ENERGY PREDICTED BY IDOCK:    8.95 KCAL/MOL
REMARK 922        TOTAL FREE ENERGY PREDICTED BY IDOCK:    9.64 KCAL/MOL
REMARK 923 INTER-LIGAND FREE ENERGY PREDICTED BY IDOCK:    0.82 KCAL/MOL
REMARK 924 INTRA-LIGAND FREE ENERGY PREDICTED BY IDOCK:    8.83 KCAL/MOL
REMARK 927      BINDING AFFINITY PREDICTED BY RF-SCORE:    0.00 PKD
ROOT
HETATM    1  C   UNL     1      -8.615  13.466  65.830  1.00  0.00     1.449 C  
HETATM    2  S   UNL     1      -8.692  12.293  67.243  1.00  0.00    -0.196 SA 
HETATM    3  C   UNL     1     -10.401  11.693  66.842  1.00  0.00    -0.220 C  
HETATM    4  C   UNL     1     -10.529  10.213  67.216  1.00  0.00    -0.313 C  
HETATM    5  CA  UNL     1     -10.603  12.021  65.341  1.00  0.00    -0.278 C  
HETATM    6  C   UNL     1     -11.384  12.472  67.741  1.00  0.00    -0.351 C  
HETATM    7  N   UNL     1      -9.862  13.268  65.067  1.00  0.00    -0.114 N  
HETATM    8  C   UNL     1     -10.093  10.957  64.348  1.00  0.00    -0.339 C  
HETATM    9  OXT UNL     1     -10.390   9.772  64.371  1.00  0.00     0.459 OA 
HETATM   10  O   UNL     1      -9.324  11.470  63.350  1.00  0.00    -0.242 OA 
HETATM   11  C   UNL     1     -10.394  14.478  65.441  1.00  0.00    -0.382 C  
HETATM   12  CA  UNL     1      -9.060  14.921  66.107  1.00  0.00    -0.167 C  
HETATM   13  O   UNL     1     -11.541  14.856  65.366  1.00  0.00    -0.339 OA 
ENDROOT
BRANCH  12  14
HETATM   14  N   UNL     1      -9.112  15.319  67.537  1.00  0.00    -0.182 N  
HETATM   15  C   UNL     1      -8.493  14.566  68.509  1.00  0.00    -0.166 C  
HETATM   16  H   UNL     1      -9.616  16.165  67.803  1.00  0.00     0.000 HD 
HETATM   17  O   UNL     1      -7.917  13.514  68.246  1.00  0.00    -0.133 OA 
HETATM   18  C   UNL     1      -8.608  15.090  69.928  1.00  0.00     0.264 C  
HETATM   19  C   UNL     1      -7.811  16.376  70.048  1.00  0.00     1.115 C  
HETATM   20  C   UNL     1     -10.051  15.147  70.465  1.00  0.00     0.274 A  
HETATM   21  C   UNL     1     -10.997  14.185  70.064  1.00  0.00     0.073 A  
HETATM   22  O   UNL     1      -8.231  17.497  69.785  1.00  0.00     0.736 OA 
HETATM   23  C   UNL     1     -11.697  15.975  72.076  1.00  0.00    -0.588 A  
HETATM   24  C   UNL     1     -12.272  14.138  70.639  1.00  0.00    -0.432 A  
HETATM   25  C   UNL     1     -10.439  16.048  71.472  1.00  0.00     1.329 A  
HETATM   26  C   UNL     1     -12.616  15.022  71.657  1.00  0.00    -0.409 A  
BRANCH  19  27
HETATM   27  O   UNL     1      -6.514  16.085  70.462  1.00  0.00     0.177 OA 
BRANCH  27  28
HETATM   28  C   UNL     1      -6.072  14.817  70.064  1.00  0.00    -0.150 A  
HETATM   29  C   UNL     1      -5.899  12.465  70.440  1.00  0.00    -0.149 A  
HETATM   30  C   UNL     1      -6.275  13.713  70.891  1.00  0.00     0.117 A  
HETATM   31  C   UNL     1      -5.393  12.290  69.160  1.00  0.00    -0.063 A  
HETATM   32  C   UNL     1      -5.227  13.377  68.308  1.00  0.00    -0.095 A  
HETATM   33  C   UNL     1      -5.133  10.848  68.876  1.00  0.00    -0.041 C  
HETATM   34  C   UNL     1      -5.485  10.147  70.202  1.00  0.00    -0.046 C  
HETATM   35  C   UNL     1      -5.566  14.657  68.770  1.00  0.00    -0.087 A  
HETATM   36  C   UNL     1      -6.000  11.189  71.202  1.00  0.00     0.306 C  
ENDBRANCH  27  28
ENDBRANCH  19  27
ENDBRANCH  12  14
TORSDOF 3
ENDMDL
MODEL      193
REMARK 921   NORMALIZED FREE ENERGY PREDICTED BY IDOCK:    9.53 KCAL/MOL
REMARK 922        TOTAL FREE ENERGY PREDICTED BY IDOCK:   10.33 KCAL/MOL
REMARK 923 INTER-LIGAND FREE ENERGY PREDICTED BY IDOCK:    2.61 KCAL/MOL
REMARK 924 INTRA-LIGAND FREE ENERGY PREDICTED BY IDOCK:    7.72 KCAL/MOL
REMARK 927      BINDING AFFINITY PREDICTED BY RF-SCORE:    0.00 PKD
ROOT
HETATM    1  C   UNL     1      -6.663  11.943  68.472  1.00  0.00    -0.068 C  
HETATM    2  S   UNL     1      -8.247  11.466  67.670  1.00  0.00    -0.134 SA 
HETATM    3  C   UNL     1      -9.307  12.102  69.052  1.00  0.00     0.358 C  
HETATM    4  C   UNL     1     -10.621  12.650  68.485  1.00  0.00    -0.262 C  
HETATM    5  CA  UNL     1      -8.423  13.132  69.800  1.00  0.00     2.159 C  
HETATM    6  C   UNL     1      -9.670  10.896  69.944  1.00  0.00     0.558 C  
HETATM    7  N   UNL     1      -7.030  12.651  69.713  1.00  0.00     0.256 N  
HETATM    8  C   UNL     1      -8.448  14.568  69.241  1.00  0.00     0.100 C  
HETATM    9  OXT UNL     1      -9.457  15.228  69.039  1.00  0.00    -0.207 OA 
HETATM   10  O   UNL     1      -7.211  15.102  69.061  1.00  0.00    -0.126 OA 
HETATM   11  C   UNL     1      -6.603  11.634  70.532  1.00  0.00     0.711 C  
HETATM   12  CA  UNL     1      -5.969  10.864  69.338  1.00  0.00    -0.048 C  
HETATM   13  O   UNL     1      -6.850  11.450  71.702  1.00  0.00     2.522 OA 
ENDROOT
BRANCH  12  14
HETATM   14  N   UNL     1      -6.418   9.468  69.112  1.00  0.00    -0.045 N  
HETATM   15  C   UNL     1      -7.673   9.051  69.496  1.00  0.00    -0.082 C  
HETATM   16  H   UNL     1      -5.785   8.804  68.665  1.00  0.00     0.000 HD 
HETATM   17  O   UNL     1      -8.453   9.798  70.082  1.00  0.00    -0.189 OA 
HETATM   18  C   UNL     1      -8.015   7.604  69.194  1.00  0.00    -0.120 C  
HETATM   19  C   UNL     1      -8.129   7.425  67.692  1.00  0.00    -0.114 C  
HETATM   20  C   UNL     1      -7.123   6.581  69.922  1.00  0.00    -0.068 A  
HETATM   21  C   UNL     1      -6.623   6.861  71.208  1.00  0.00    -0.049 A  
HETATM   22  O   UNL     1      -7.197   7.182  66.934  1.00  0.00    -0.082 OA 
HETATM   23  C   UNL     1      -6.237   4.312  70.162  1.00  0.00    -0.026 A  
HETATM   24  C   UNL     1      -5.923   5.896  71.940  1.00  0.00    -0.035 A  
HETATM   25  C   UNL     1      -6.899   5.289  69.414  1.00  0.00    -0.054 A  
HETATM   26  C   UNL     1      -5.746   4.617  71.425  1.00  0.00    -0.012 A  
BRANCH  19  27
HETATM   27  O   UNL     1      -9.449   7.621  67.297  1.00  0.00    -0.138 OA 
BRANCH  27  28
HETATM   28  C   UNL     1      -9.613   8.688  66.405  1.00  0.00    -0.247 A  
HETATM   29  C   UNL     1      -9.327   9.644  64.235  1.00  0.00    -0.178 A  
HETATM   30  C   UNL     1      -9.085   8.612  65.117  1.00  0.00    -0.045 A  
HETATM   31  C   UNL     1     -10.143  10.710  64.590  1.00  0.00    -0.417 A  
HETATM   32  C   UNL     1     -10.713  10.776  65.856  1.00  0.00    -0.143 A  
HETATM   33  C   UNL     1     -10.317  11.657  63.448  1.00  0.00    -0.482 C  
HETATM   34  C   UNL     1      -9.427  11.061  62.342  1.00  0.00    -0.172 C  
HETATM   35  C   UNL     1     -10.440   9.754  66.776  1.00  0.00    -0.259 A  
HETATM   36  C   UNL     1      -8.807   9.752  62.843  1.00  0.00    -0.255 C  
ENDBRANCH  27  28
ENDBRANCH  19  27
ENDBRANCH  12  14
TORSDOF 3
ENDMDL
MODEL      194
REMARK 921   NORMALIZED FREE ENERGY PREDICTED BY IDOCK:   10.81 KCAL/MOL
REMARK 922        TOTAL FREE ENERGY PREDICTED BY IDOCK:   11.83 KCAL/MOL
REMARK 923 INTER-LIGAND FREE ENERGY PREDICTED BY IDOCK:    4.29 KCAL/MOL
REMARK 924 INTRA-LIGAND FREE ENERGY PREDICTED BY IDOCK:    7.54 KCAL/MOL
REMARK 927      BINDING AFFINITY PREDICTED BY RF-SCORE:    0.00 PKD
ROOT
HETATM    1  C   UNL     1     -11.547  14.523  72.016  1.00  0.00     0.280 C  
HETATM    2  S   UNL     1     -10.076  14.942  70.996  1.00  0.00     1.694 SA 
HETATM    3  C   UNL     1     -10.781  16.543  70.376  1.00  0.00     0.026 C  
HETATM    4  C   UNL     1      -9.655  17.565  70.191  1.00  0.00     1.739 C  
HETATM    5  CA  UNL     1     -11.870  16.931  71.408  1.00  0.00     0.950 C  
HETATM    6  C   UNL     1     -11.378  16.272  68.980  1.00  0.00    -0.301 C  
HETATM    7  N   UNL     1     -12.462  15.674  71.908  1.00  0.00    -0.396 N  
HETATM    8  C   UNL     1     -11.379  17.726  72.634  1.00  0.00     2.173 C  
HETATM    9  OXT UNL     1     -10.720  18.754  72.590  1.00  0.00     1.938 OA 
HETATM   10  O   UNL     1     -11.823  17.225  73.819  1.00  0.00    -0.106 OA 
HETATM   11  C   UNL     1     -13.378  14.995  71.141  1.00  0.00    -0.445 C  
HETATM   12  CA  UNL     1     -12.632  13.646  71.346  1.00  0.00    -0.328 C  
HETATM   13  O   UNL     1     -14.282  15.440  70.471  1.00  0.00    -0.044 OA 
ENDROOT
BRANCH  12  14
HETATM   14  N   UNL     1     -12.207  12.910  70.129  1.00  0.00    -0.303 N  
HETATM   15  C   UNL     1     -10.946  13.074  69.600  1.00  0.00     0.201 C  
HETATM   16  H   UNL     1     -12.860  12.271  69.676  1.00  0.00     0.000 HD 
HETATM   17  O   UNL     1     -10.140  13.868  70.079  1.00  0.00     0.822 OA 
HETATM   18  C   UNL     1     -10.632  12.253  68.365  1.00  0.00    -0.250 C  
HETATM   19  C   UNL     1     -10.564  10.786  68.749  1.00  0.00    -0.200 C  
HETATM   20  C   UNL     1     -11.514  12.583  67.146  1.00  0.00    -0.414 A  
HETATM   21  C   UNL     1     -11.973  13.897  66.936  1.00  0.00    -0.467 A  
HETATM   22  O   UNL     1     -11.521  10.022  68.801  1.00  0.00    -0.122 OA 
HETATM   23  C   UNL     1     -12.421  12.003  64.948  1.00  0.00    -0.015 A  
HETATM   24  C   UNL     1     -12.663  14.247  65.769  1.00  0.00    -0.365 A  
HETATM   25  C   UNL     1     -11.769  11.644  66.131  1.00  0.00     0.023 A  
HETATM   26  C   UNL     1     -12.871  13.304  64.769  1.00  0.00    -0.259 A  
BRANCH  19  27
HETATM   27  O   UNL     1      -9.253  10.449  69.075  1.00  0.00    -0.169 OA 
BRANCH  27  28
HETATM   28  C   UNL     1      -9.039   9.068  69.170  1.00  0.00    -0.140 A  
HETATM   29  C   UNL     1      -9.325   6.997  70.324  1.00  0.00    -0.159 A  
HETATM   30  C   UNL     1      -9.480   8.366  70.291  1.00  0.00    -0.168 A  
HETATM   31  C   UNL     1      -8.807   6.311  69.235  1.00  0.00    -0.123 A  
HETATM   32  C   UNL     1      -8.405   6.993  68.092  1.00  0.00    -0.123 A  
HETATM   33  C   UNL     1      -8.810   4.837  69.477  1.00  0.00    -0.120 C  
HETATM   34  C   UNL     1      -9.341   4.706  70.916  1.00  0.00    -0.214 C  
HETATM   35  C   UNL     1      -8.518   8.390  68.063  1.00  0.00    -0.132 A  
HETATM   36  C   UNL     1      -9.695   6.098  71.453  1.00  0.00    -0.187 C  
ENDBRANCH  27  28
ENDBRANCH  19  27
ENDBRANCH  12  14
TORSDOF 3
ENDMDL
MODEL      195
REMARK 921   NORMALIZED FREE ENERGY PREDICTED BY IDOCK:   11.43 KCAL/MOL
REMARK 922        TOTAL FREE ENERGY PREDICTED BY IDOCK:   12.56 KCAL/MOL
REMARK 923 INTER-LIGAND FREE ENERGY PREDICTED BY IDOCK:   12.52 KCAL/MOL
REMARK 924 INTRA-LIGAND FREE ENERGY PREDICTED BY IDOCK:    0.05 KCAL/MOL
REMARK 927      BINDING AFFINITY PREDICTED BY RF-SCORE:    0.00 PKD
ROOT
HETATM    1  C   UNL     1     -10.130  10.954  67.868  1.00  0.00    -0.177 C  
HETATM    2  S   UNL     1      -8.336  11.345  67.777  1.00  0.00    -0.132 SA 
HETATM    3  C   UNL     1      -7.834   9.995  68.946  1.00  0.00    -0.095 C  
HETATM    4  C   UNL     1      -6.466   9.440  68.536  1.00  0.00    -0.053 C  
HETATM    5  CA  UNL     1      -9.002   8.977  68.915  1.00  0.00    -0.140 C  
HETATM    6  C   UNL     1      -7.661  10.634  70.339  1.00  0.00     0.919 C  
HETATM    7  N   UNL     1     -10.244   9.749  68.711  1.00  0.00    -0.186 N  
HETATM    8  C   UNL     1      -8.936   7.914  67.800  1.00  0.00    -0.128 C  
HETATM    9  OXT UNL     1      -7.982   7.183  67.580  1.00  0.00    -0.110 OA 
HETATM   10  O   UNL     1     -10.097   7.784  67.104  1.00  0.00    -0.204 OA 
HETATM   11  C   UNL     1     -10.812  10.425  69.764  1.00  0.00    -0.292 C  
HETATM   12  CA  UNL     1     -10.958  11.725  68.923  1.00  0.00    -0.239 C  
HETATM   13  O   UNL     1     -10.933  10.070  70.915  1.00  0.00    -0.327 OA 
ENDROOT
BRANCH  12  14
HETATM   14  N   UNL     1     -10.332  12.959  69.460  1.00  0.00    -0.083 N  
HETATM   15  C   UNL     1     -10.591  14.190  68.902  1.00  0.00    -0.239 C  
HETATM   16  H   UNL     1      -9.699  12.893  70.257  1.00  0.00     0.000 HD 
HETATM   17  O   UNL     1     -11.306  14.316  67.911  1.00  0.00    -0.270 OA 
HETATM   18  C   UNL     1      -9.901  15.374  69.554  1.00  0.00    -0.262 C  
HETATM   19  C   UNL     1     -10.485  15.587  70.937  1.00  0.00     0.205 C  
HETATM   20  C   UNL     1      -8.363  15.326  69.479  1.00  0.00    -0.190 A  
HETATM   21  C   UNL     1      -7.722  14.752  68.365  1.00  0.00    -0.122 A  
HETATM   22  O   UNL     1     -10.109  15.026  71.960  1.00  0.00     1.558 OA 
HETATM   23  C   UNL     1      -6.165  16.077  70.252  1.00  0.00     0.023 A  
HETATM   24  C   UNL     1      -6.333  14.817  68.214  1.00  0.00    -0.123 A  
HETATM   25  C   UNL     1      -7.548  15.975  70.424  1.00  0.00     1.489 A  
HETATM   26  C   UNL     1      -5.556  15.494  69.148  1.00  0.00    -0.104 A  
BRANCH  19  27
HETATM   27  O   UNL     1     -11.544  16.488  70.864  1.00  0.00    -0.280 OA 
BRANCH  27  28
HETATM   28  C   UNL     1     -11.596  17.191  69.654  1.00  0.00     1.382 A  
HETATM   29  C   UNL     1     -10.563  18.597  68.022  1.00  0.00    -0.350 A  
HETATM   30  C   UNL     1     -10.517  17.978  69.254  1.00  0.00     0.179 A  
HETATM   31  C   UNL     1     -11.629  18.389  67.158  1.00  0.00     1.424 A  
HETATM   32  C   UNL     1     -12.691  17.571  67.526  1.00  0.00     5.282 A  
HETATM   33  C   UNL     1     -11.417  19.100  65.862  1.00  0.00     1.224 C  
HETATM   34  C   UNL     1     -10.087  19.848  66.071  1.00  0.00    -0.589 C  
HETATM   35  C   UNL     1     -12.676  16.969  68.792  1.00  0.00     3.937 A  
HETATM   36  C   UNL     1      -9.527  19.505  67.456  1.00  0.00    -0.413 C  
ENDBRANCH  27  28
ENDBRANCH  19  27
ENDBRANCH  12  14
TORSDOF 3
ENDMDL
MODEL      196
REMARK 921   NORMALIZED FREE ENERGY PREDICTED BY IDOCK:   11.44 KCAL/MOL
REMARK 922        TOTAL FREE ENERGY PREDICTED BY IDOCK:   12.57 KCAL/MOL
REMARK 923 INTER-LIGAND FREE ENERGY PREDICTED BY IDOCK:    5.15 KCAL/MOL
REMARK 924 INTRA-LIGAND FREE ENERGY PREDICTED BY IDOCK:    7.42 KCAL/MOL
REMARK 927      BINDING AFFINITY PREDICTED BY RF-SCORE:    0.00 PKD
ROOT
HETATM    1  C   UNL     1     -11.905  14.474  72.229  1.00  0.00     0.063 C  
HETATM    2  S   UNL     1     -10.299  14.901  71.443  1.00  0.00     1.847 SA 
HETATM    3  C   UNL     1     -10.884  16.538  70.797  1.00  0.00     0.253 C  
HETATM    4  C   UNL     1      -9.727  17.543  70.814  1.00  0.00     3.626 C  
HETATM    5  CA  UNL     1     -12.101  16.910  71.681  1.00  0.00     1.251 C  
HETATM    6  C   UNL     1     -11.282  16.334  69.321  1.00  0.00    -0.312 C  
HETATM    7  N   UNL     1     -12.777  15.648  72.041  1.00  0.00    -0.404 N  
HETATM    8  C   UNL     1     -11.775  17.647  72.996  1.00  0.00     1.575 C  
HETATM    9  OXT UNL     1     -11.100  18.661  73.087  1.00  0.00     1.312 OA 
HETATM   10  O   UNL     1     -12.389  17.110  74.085  1.00  0.00    -0.388 OA 
HETATM   11  C   UNL     1     -13.586  15.019  71.126  1.00  0.00    -0.427 C  
HETATM   12  CA  UNL     1     -12.898  13.647  71.378  1.00  0.00    -0.360 C  
HETATM   13  O   UNL     1     -14.380  15.508  70.355  1.00  0.00     0.226 OA 
ENDROOT
BRANCH  12  14
HETATM   14  N   UNL     1     -12.318  12.949  70.204  1.00  0.00    -0.232 N  
HETATM   15  C   UNL     1     -11.020  13.180  69.807  1.00  0.00     0.292 C  
HETATM   16  H   UNL     1     -12.891  12.287  69.680  1.00  0.00     0.000 HD 
HETATM   17  O   UNL     1     -10.305  14.004  70.372  1.00  0.00     0.951 OA 
HETATM   18  C   UNL     1     -10.543  12.392  68.601  1.00  0.00    -0.243 C  
HETATM   19  C   UNL     1     -10.444  10.926  68.976  1.00  0.00    -0.219 C  
HETATM   20  C   UNL     1     -11.313  12.699  67.303  1.00  0.00    -0.372 A  
HETATM   21  C   UNL     1     -11.811  13.993  67.060  1.00  0.00    -0.458 A  
HETATM   22  O   UNL     1     -11.363  10.117  68.923  1.00  0.00    -0.204 OA 
HETATM   23  C   UNL     1     -11.965  12.109  65.018  1.00  0.00    -0.343 A  
HETATM   24  C   UNL     1     -12.396  14.327  65.833  1.00  0.00    -0.420 A  
HETATM   25  C   UNL     1     -11.419  11.764  66.258  1.00  0.00    -0.296 A  
HETATM   26  C   UNL     1     -12.457  13.390  64.807  1.00  0.00    -0.416 A  
BRANCH  19  27
HETATM   27  O   UNL     1      -9.158  10.645  69.430  1.00  0.00    -0.152 OA 
BRANCH  27  28
HETATM   28  C   UNL     1      -8.202  10.603  68.407  1.00  0.00    -0.125 A  
HETATM   29  C   UNL     1      -7.591  10.100  66.154  1.00  0.00    -0.114 A  
HETATM   30  C   UNL     1      -8.527  10.058  67.166  1.00  0.00    -0.125 A  
HETATM   31  C   UNL     1      -6.370  10.735  66.336  1.00  0.00    -0.122 A  
HETATM   32  C   UNL     1      -6.050  11.322  67.555  1.00  0.00    -0.059 A  
HETATM   33  C   UNL     1      -5.562  10.717  65.080  1.00  0.00    -0.128 C  
HETATM   34  C   UNL     1      -6.432   9.907  64.100  1.00  0.00    -0.126 C  
HETATM   35  C   UNL     1      -6.977  11.249  68.605  1.00  0.00    -0.084 A  
HETATM   36  C   UNL     1      -7.749   9.530  64.787  1.00  0.00    -0.119 C  
ENDBRANCH  27  28
ENDBRANCH  19  27
ENDBRANCH  12  14
TORSDOF 3
ENDMDL
MODEL      197
REMARK 921   NORMALIZED FREE ENERGY PREDICTED BY IDOCK:   11.65 KCAL/MOL
REMARK 922        TOTAL FREE ENERGY PREDICTED BY IDOCK:   12.81 KCAL/MOL
REMARK 923 INTER-LIGAND FREE ENERGY PREDICTED BY IDOCK:   -2.59 KCAL/MOL
REMARK 924 INTRA-LIGAND FREE ENERGY PREDICTED BY IDOCK:   15.40 KCAL/MOL
REMARK 927      BINDING AFFINITY PREDICTED BY RF-SCORE:    0.00 PKD
ROOT
HETATM    1  C   UNL     1      -9.976   5.649  69.254  1.00  0.00    -0.189 C  
HETATM    2  S   UNL     1      -8.456   6.085  70.191  1.00  0.00    -0.129 SA 
HETATM    3  C   UNL     1      -9.264   5.939  71.855  1.00  0.00    -0.147 C  
HETATM    4  C   UNL     1      -8.249   5.418  72.878  1.00  0.00    -0.109 C  
HETATM    5  CA  UNL     1     -10.503   5.037  71.625  1.00  0.00    -0.162 C  
HETATM    6  C   UNL     1      -9.660   7.363  72.299  1.00  0.00    -0.186 C  
HETATM    7  N   UNL     1     -10.999   5.320  70.264  1.00  0.00    -0.052 N  
HETATM    8  C   UNL     1     -10.251   3.518  71.715  1.00  0.00     0.015 C  
HETATM    9  OXT UNL     1      -9.715   2.947  72.652  1.00  0.00    -0.112 OA 
HETATM   10  O   UNL     1     -10.768   2.820  70.668  1.00  0.00     1.659 OA 
HETATM   11  C   UNL     1     -11.736   6.455  70.026  1.00  0.00    -0.275 C  
HETATM   12  CA  UNL     1     -10.868   6.825  68.789  1.00  0.00    -0.231 C  
HETATM   13  O   UNL     1     -12.602   6.953  70.709  1.00  0.00    -0.324 OA 
ENDROOT
BRANCH  12  14
HETATM   14  N   UNL     1     -10.223   8.162  68.784  1.00  0.00    -0.204 N  
HETATM   15  C   UNL     1      -9.981   8.841  69.957  1.00  0.00    -0.187 C  
HETATM   16  H   UNL     1      -9.955   8.586  67.895  1.00  0.00     0.000 HD 
HETATM   17  O   UNL     1     -10.330   8.397  71.048  1.00  0.00    -0.190 OA 
HETATM   18  C   UNL     1      -9.302  10.191  69.816  1.00  0.00    -0.183 C  
HETATM   19  C   UNL     1      -7.878   9.981  69.338  1.00  0.00    -0.141 C  
HETATM   20  C   UNL     1     -10.124  11.230  69.030  1.00  0.00    -0.147 A  
HETATM   21  C   UNL     1     -11.530  11.231  69.106  1.00  0.00    -0.364 A  
HETATM   22  O   UNL     1      -7.531   9.879  68.166  1.00  0.00    -0.080 OA 
HETATM   23  C   UNL     1     -10.274  13.330  67.781  1.00  0.00    -0.228 A  
HETATM   24  C   UNL     1     -12.288  12.244  68.510  1.00  0.00     0.363 A  
HETATM   25  C   UNL     1      -9.519  12.296  68.341  1.00  0.00    -0.175 A  
HETATM   26  C   UNL     1     -11.660  13.302  67.863  1.00  0.00    -0.370 A  
BRANCH  19  27
HETATM   27  O   UNL     1      -7.027   9.881  70.434  1.00  0.00    -0.126 OA 
BRANCH  27  28
HETATM   28  C   UNL     1      -6.734   8.559  70.795  1.00  0.00    -0.043 A  
HETATM   29  C   UNL     1      -6.360   6.277  70.197  1.00  0.00    -0.039 A  
HETATM   30  C   UNL     1      -6.728   7.554  69.828  1.00  0.00    -0.043 A  
HETATM   31  C   UNL     1      -5.933   6.002  71.489  1.00  0.00    -0.035 A  
HETATM   32  C   UNL     1      -5.891   7.004  72.451  1.00  0.00    -0.038 A  
HETATM   33  C   UNL     1      -5.517   4.575  71.624  1.00  0.00    -0.004 C  
HETATM   34  C   UNL     1      -5.818   3.974  70.238  1.00  0.00    -0.017 C  
HETATM   35  C   UNL     1      -6.303   8.298  72.100  1.00  0.00    -0.063 A  
HETATM   36  C   UNL     1      -6.340   5.079  69.313  1.00  0.00    -0.031 C  
ENDBRANCH  27  28
ENDBRANCH  19  27
ENDBRANCH  12  14
TORSDOF 3
ENDMDL
MODEL      198
REMARK 921   NORMALIZED FREE ENERGY PREDICTED BY IDOCK:   12.59 KCAL/MOL
REMARK 922        TOTAL FREE ENERGY PREDICTED BY IDOCK:   13.93 KCAL/MOL
REMARK 923 INTER-LIGAND FREE ENERGY PREDICTED BY IDOCK:   15.31 KCAL/MOL
REMARK 924 INTRA-LIGAND FREE ENERGY PREDICTED BY IDOCK:   -1.39 KCAL/MOL
REMARK 927      BINDING AFFINITY PREDICTED BY RF-SCORE:    0.00 PKD
ROOT
HETATM    1  C   UNL     1      -9.773   8.956  65.865  1.00  0.00    -0.189 C  
HETATM    2  S   UNL     1      -8.228   9.554  65.068  1.00  0.00    -0.147 SA 
HETATM    3  C   UNL     1      -7.125   8.987  66.447  1.00  0.00    -0.080 C  
HETATM    4  C   UNL     1      -5.774   8.541  65.877  1.00  0.00    -0.046 C  
HETATM    5  CA  UNL     1      -7.931   7.889  67.185  1.00  0.00    -0.117 C  
HETATM    6  C   UNL     1      -6.852  10.208  67.349  1.00  0.00    -0.077 C  
HETATM    7  N   UNL     1      -9.356   8.266  67.100  1.00  0.00    -0.145 N  
HETATM    8  C   UNL     1      -7.800   6.462  66.614  1.00  0.00    -0.104 C  
HETATM    9  OXT UNL     1      -6.746   5.880  66.407  1.00  0.00    -0.054 OA 
HETATM   10  O   UNL     1      -8.996   5.840  66.428  1.00  0.00    -0.129 OA 
HETATM   11  C   UNL     1      -9.857   9.242  67.927  1.00  0.00    -0.167 C  
HETATM   12  CA  UNL     1     -10.545   9.973  66.738  1.00  0.00    -0.159 C  
HETATM   13  O   UNL     1      -9.625   9.434  69.098  1.00  0.00    -0.156 OA 
ENDROOT
BRANCH  12  14
HETATM   14  N   UNL     1     -10.200  11.401  66.525  1.00  0.00    -0.214 N  
HETATM   15  C   UNL     1     -10.656  12.380  67.378  1.00  0.00    -0.216 C  
HETATM   16  H   UNL     1      -9.614  11.662  65.731  1.00  0.00     0.000 HD 
HETATM   17  O   UNL     1     -11.403  12.124  68.319  1.00  0.00    -0.244 OA 
HETATM   18  C   UNL     1     -10.218  13.797  67.059  1.00  0.00    -0.254 C  
HETATM   19  C   UNL     1      -8.725  13.920  67.295  1.00  0.00    -0.217 C  
HETATM   20  C   UNL     1     -10.725  14.322  65.702  1.00  0.00    -0.321 A  
HETATM   21  C   UNL     1     -11.978  13.916  65.204  1.00  0.00    -0.394 A  
HETATM   22  O   UNL     1      -7.853  13.652  66.477  1.00  0.00     0.559 OA 
HETATM   23  C   UNL     1     -10.599  15.918  63.850  1.00  0.00     2.507 A  
HETATM   24  C   UNL     1     -12.514  14.481  64.042  1.00  0.00    -0.096 A  
HETATM   25  C   UNL     1     -10.045  15.324  64.987  1.00  0.00    -0.250 A  
HETATM   26  C   UNL     1     -11.833  15.493  63.375  1.00  0.00     1.685 A  
BRANCH  19  27
HETATM   27  O   UNL     1      -8.492  14.346  68.600  1.00  0.00    -0.162 OA 
BRANCH  27  28
HETATM   28  C   UNL     1      -7.772  13.422  69.369  1.00  0.00     0.534 A  
HETATM   29  C   UNL     1      -7.706  11.494  70.776  1.00  0.00     4.250 A  
HETATM   30  C   UNL     1      -8.443  12.436  70.091  1.00  0.00     3.903 A  
HETATM   31  C   UNL     1      -6.320  11.474  70.695  1.00  0.00     0.393 A  
HETATM   32  C   UNL     1      -5.640  12.424  69.942  1.00  0.00    -0.113 A  
HETATM   33  C   UNL     1      -5.754  10.320  71.455  1.00  0.00     0.063 C  
HETATM   34  C   UNL     1      -6.992   9.658  72.088  1.00  0.00     1.000 C  
HETATM   35  C   UNL     1      -6.376  13.414  69.275  1.00  0.00    -0.110 A  
HETATM   36  C   UNL     1      -8.251  10.403  71.631  1.00  0.00     4.578 C  
ENDBRANCH  27  28
ENDBRANCH  19  27
ENDBRANCH  12  14
TORSDOF 3
ENDMDL
MODEL      199
REMARK 921   NORMALIZED FREE ENERGY PREDICTED BY IDOCK:   13.12 KCAL/MOL
REMARK 922        TOTAL FREE ENERGY PREDICTED BY IDOCK:   14.54 KCAL/MOL
REMARK 923 INTER-LIGAND FREE ENERGY PREDICTED BY IDOCK:   10.23 KCAL/MOL
REMARK 924 INTRA-LIGAND FREE ENERGY PREDICTED BY IDOCK:    4.31 KCAL/MOL
REMARK 927      BINDING AFFINITY PREDICTED BY RF-SCORE:    0.00 PKD
ROOT
HETATM    1  C   UNL     1      -8.780   5.222  68.154  1.00  0.00    -0.102 C  
HETATM    2  S   UNL     1      -8.710   6.545  69.428  1.00  0.00    -0.134 SA 
HETATM    3  C   UNL     1     -10.534   6.883  69.387  1.00  0.00    -0.217 C  
HETATM    4  C   UNL     1     -11.017   7.281  70.785  1.00  0.00    -0.273 C  
HETATM    5  CA  UNL     1     -11.171   5.596  68.803  1.00  0.00     0.351 C  
HETATM    6  C   UNL     1     -10.754   8.104  68.470  1.00  0.00    -0.061 C  
HETATM    7  N   UNL     1     -10.208   5.038  67.833  1.00  0.00    -0.121 N  
HETATM    8  C   UNL     1     -11.491   4.485  69.822  1.00  0.00     4.997 C  
HETATM    9  OXT UNL     1     -12.149   4.631  70.841  1.00  0.00     4.007 OA 
HETATM   10  O   UNL     1     -11.039   3.258  69.447  1.00  0.00     4.395 OA 
HETATM   11  C   UNL     1     -10.095   5.595  66.582  1.00  0.00    -0.198 C  
HETATM   12  CA  UNL     1      -8.544   5.653  66.688  1.00  0.00    -0.117 C  
HETATM   13  O   UNL     1     -10.971   5.997  65.850  1.00  0.00     0.439 OA 
ENDROOT
BRANCH  12  14
HETATM   14  N   UNL     1      -7.898   6.977  66.500  1.00  0.00    -0.104 N  
HETATM   15  C   UNL     1      -8.622   8.144  66.598  1.00  0.00    -0.135 C  
HETATM   16  H   UNL     1      -6.900   7.022  66.294  1.00  0.00     0.000 HD 
HETATM   17  O   UNL     1      -9.834   8.140  66.795  1.00  0.00    -0.214 OA 
HETATM   18  C   UNL     1      -7.840   9.429  66.401  1.00  0.00    -0.100 C  
HETATM   19  C   UNL     1      -6.888   9.614  67.568  1.00  0.00    -0.082 C  
HETATM   20  C   UNL     1      -7.217   9.579  65.000  1.00  0.00    -0.110 A  
HETATM   21  C   UNL     1      -7.872   9.053  63.870  1.00  0.00    -0.133 A  
HETATM   22  O   UNL     1      -5.759   9.143  67.643  1.00  0.00    -0.041 OA 
HETATM   23  C   UNL     1      -5.616  10.635  63.479  1.00  0.00    -0.103 A  
HETATM   24  C   UNL     1      -7.392   9.293  62.578  1.00  0.00    -0.098 A  
HETATM   25  C   UNL     1      -6.071  10.361  64.772  1.00  0.00    -0.103 A  
HETATM   26  C   UNL     1      -6.275  10.098  62.382  1.00  0.00    -0.120 A  
BRANCH  19  27
HETATM   27  O   UNL     1      -7.508  10.366  68.562  1.00  0.00    -0.083 OA 
BRANCH  27  28
HETATM   28  C   UNL     1      -8.132  11.523  68.079  1.00  0.00    -0.136 A  
HETATM   29  C   UNL     1      -9.883  13.143  68.199  1.00  0.00    -0.228 A  
HETATM   30  C   UNL     1      -9.331  11.959  68.641  1.00  0.00    -0.076 A  
HETATM   31  C   UNL     1      -9.227  13.931  67.262  1.00  0.00    -0.235 A  
HETATM   32  C   UNL     1      -8.009  13.530  66.727  1.00  0.00     0.354 A  
HETATM   33  C   UNL     1      -9.980  15.194  67.001  1.00  0.00    -0.242 C  
HETATM   34  C   UNL     1     -11.248  15.047  67.863  1.00  0.00    -0.330 C  
HETATM   35  C   UNL     1      -7.457  12.308  67.137  1.00  0.00    -0.113 A  
HETATM   36  C   UNL     1     -11.173  13.734  68.651  1.00  0.00    -0.308 C  
ENDBRANCH  27  28
ENDBRANCH  19  27
ENDBRANCH  12  14
TORSDOF 3
ENDMDL
MODEL      200
REMARK 921   NORMALIZED FREE ENERGY PREDICTED BY IDOCK:   13.90 KCAL/MOL
REMARK 922        TOTAL FREE ENERGY PREDICTED BY IDOCK:   15.46 KCAL/MOL
REMARK 923 INTER-LIGAND FREE ENERGY PREDICTED BY IDOCK:   15.71 KCAL/MOL
REMARK 924 INTRA-LIGAND FREE ENERGY PREDICTED BY IDOCK:   -0.26 KCAL/MOL
REMARK 927      BINDING AFFINITY PREDICTED BY RF-SCORE:    0.00 PKD
ROOT
HETATM    1  C   UNL     1     -10.769  15.745  69.865  1.00  0.00    -0.328 C  
HETATM    2  S   UNL     1      -9.072  15.886  70.558  1.00  0.00     2.105 SA 
HETATM    3  C   UNL     1      -8.571  17.273  69.432  1.00  0.00     0.382 C  
HETATM    4  C   UNL     1      -7.609  18.212  70.167  1.00  0.00     1.776 C  
HETATM    5  CA  UNL     1      -9.901  17.915  68.963  1.00  0.00    -0.231 C  
HETATM    6  C   UNL     1      -7.785  16.651  68.260  1.00  0.00    -0.183 C  
HETATM    7  N   UNL     1     -10.898  16.829  68.874  1.00  0.00    -0.320 N  
HETATM    8  C   UNL     1     -10.486  18.999  69.891  1.00  0.00     1.180 C  
HETATM    9  OXT UNL     1      -9.882  19.981  70.296  1.00  0.00     0.223 OA 
HETATM   10  O   UNL     1     -11.805  18.821  70.170  1.00  0.00     6.168 OA 
HETATM   11  C   UNL     1     -10.888  15.976  67.798  1.00  0.00    -0.324 C  
HETATM   12  CA  UNL     1     -10.970  14.725  68.719  1.00  0.00    -0.259 C  
HETATM   13  O   UNL     1     -10.704  16.232  66.630  1.00  0.00    -0.291 OA 
ENDROOT
BRANCH  12  14
HETATM   14  N   UNL     1      -9.907  13.700  68.572  1.00  0.00    -0.303 N  
HETATM   15  C   UNL     1     -10.077  12.422  69.056  1.00  0.00     0.158 C  
HETATM   16  H   UNL     1      -9.034  13.946  68.105  1.00  0.00     0.000 HD 
HETATM   17  O   UNL     1     -11.088  12.090  69.669  1.00  0.00    -0.146 OA 
HETATM   18  C   UNL     1      -8.922  11.466  68.828  1.00  0.00    -0.086 C  
HETATM   19  C   UNL     1      -8.809  11.169  67.344  1.00  0.00    -0.139 C  
HETATM   20  C   UNL     1      -7.613  11.880  69.528  1.00  0.00     0.480 A  
HETATM   21  C   UNL     1      -7.649  12.549  70.765  1.00  0.00     5.049 A  
HETATM   22  O   UNL     1      -8.184  11.843  66.533  1.00  0.00    -0.133 OA 
HETATM   23  C   UNL     1      -5.184  11.711  69.783  1.00  0.00    -0.069 A  
HETATM   24  C   UNL     1      -6.476  12.816  71.480  1.00  0.00     2.609 A  
HETATM   25  C   UNL     1      -6.352  11.482  69.049  1.00  0.00    -0.069 A  
HETATM   26  C   UNL     1      -5.246  12.382  70.997  1.00  0.00    -0.155 A  
BRANCH  19  27
HETATM   27  O   UNL     1      -9.558  10.038  67.035  1.00  0.00    -0.162 OA 
BRANCH  27  28
HETATM   28  C   UNL     1      -9.206   8.912  67.790  1.00  0.00    -0.141 A  
HETATM   29  C   UNL     1      -8.984   7.809  69.897  1.00  0.00    -0.146 A  
HETATM   30  C   UNL     1      -9.261   8.955  69.182  1.00  0.00    -0.144 A  
HETATM   31  C   UNL     1      -8.724   6.609  69.249  1.00  0.00    -0.131 A  
HETATM   32  C   UNL     1      -8.710   6.541  67.861  1.00  0.00    -0.116 A  
HETATM   33  C   UNL     1      -8.531   5.500  70.230  1.00  0.00    -0.121 C  
HETATM   34  C   UNL     1      -8.637   6.201  71.598  1.00  0.00    -0.134 C  
HETATM   35  C   UNL     1      -8.949   7.709  67.123  1.00  0.00    -0.137 A  
HETATM   36  C   UNL     1      -8.951   7.685  71.381  1.00  0.00    -0.144 C  
ENDBRANCH  27  28
ENDBRANCH  19  27
ENDBRANCH  12  14
TORSDOF 3
ENDMDL
MODEL      201
REMARK 921   NORMALIZED FREE ENERGY PREDICTED BY IDOCK:   14.14 KCAL/MOL
REMARK 922        TOTAL FREE ENERGY PREDICTED BY IDOCK:   15.74 KCAL/MOL
REMARK 923 INTER-LIGAND FREE ENERGY PREDICTED BY IDOCK:    6.74 KCAL/MOL
REMARK 924 INTRA-LIGAND FREE ENERGY PREDICTED BY IDOCK:    9.00 KCAL/MOL
REMARK 927      BINDING AFFINITY PREDICTED BY RF-SCORE:    0.00 PKD
ROOT
HETATM    1  C   UNL     1     -11.730  17.055  68.034  1.00  0.00     0.767 C  
HETATM    2  S   UNL     1     -10.342  16.173  68.855  1.00  0.00    -0.269 SA 
HETATM    3  C   UNL     1      -9.035  16.912  67.766  1.00  0.00    -0.225 C  
HETATM    4  C   UNL     1      -7.745  17.111  68.568  1.00  0.00    -0.248 C  
HETATM    5  CA  UNL     1      -9.670  18.205  67.193  1.00  0.00    -0.301 C  
HETATM    6  C   UNL     1      -8.723  15.883  66.660  1.00  0.00    -0.324 C  
HETATM    7  N   UNL     1     -11.114  17.944  67.032  1.00  0.00     0.080 N  
HETATM    8  C   UNL     1      -9.526  19.467  68.068  1.00  0.00    -0.339 C  
HETATM    9  OXT UNL     1      -8.474  19.899  68.515  1.00  0.00    -0.260 OA 
HETATM   10  O   UNL     1     -10.695  20.140  68.246  1.00  0.00    -0.218 OA 
HETATM   11  C   UNL     1     -11.562  17.207  65.963  1.00  0.00     1.637 C  
HETATM   12  CA  UNL     1     -12.443  16.311  66.880  1.00  0.00     2.751 C  
HETATM   13  O   UNL     1     -11.192  17.240  64.812  1.00  0.00    -0.890 OA 
ENDROOT
BRANCH  12  14
HETATM   14  N   UNL     1     -12.217  14.845  66.820  1.00  0.00    -0.230 N  
HETATM   15  C   UNL     1     -10.986  14.301  67.110  1.00  0.00    -0.302 C  
HETATM   16  H   UNL     1     -12.988  14.229  66.560  1.00  0.00     0.000 HD 
HETATM   17  O   UNL     1     -10.014  15.002  67.380  1.00  0.00    -0.225 OA 
HETATM   18  C   UNL     1     -10.891  12.789  67.027  1.00  0.00    -0.282 C  
HETATM   19  C   UNL     1     -11.715  12.179  68.146  1.00  0.00    -0.341 C  
HETATM   20  C   UNL     1     -11.150  12.217  65.620  1.00  0.00    -0.357 A  
HETATM   21  C   UNL     1     -10.764  12.941  64.476  1.00  0.00    -0.392 A  
HETATM   22  O   UNL     1     -12.914  11.934  68.090  1.00  0.00     1.599 OA 
HETATM   23  C   UNL     1     -11.695  10.340  64.147  1.00  0.00     4.226 A  
HETATM   24  C   UNL     1     -10.868  12.385  63.197  1.00  0.00    -0.090 A  
HETATM   25  C   UNL     1     -11.630  10.911  65.421  1.00  0.00     0.830 A  
HETATM   26  C   UNL     1     -11.316  11.079  63.034  1.00  0.00     0.772 A  
BRANCH  19  27
HETATM   27  O   UNL     1     -10.909  11.979  69.264  1.00  0.00    -0.184 OA 
BRANCH  27  28
HETATM   28  C   UNL     1      -9.860  11.078  69.041  1.00  0.00    -0.149 A  
HETATM   29  C   UNL     1      -7.532  10.546  69.097  1.00  0.00    -0.114 A  
HETATM   30  C   UNL     1      -8.540  11.475  69.249  1.00  0.00     0.390 A  
HETATM   31  C   UNL     1      -7.822   9.219  68.813  1.00  0.00    -0.088 A  
HETATM   32  C   UNL     1      -9.137   8.800  68.648  1.00  0.00    -0.141 A  
HETATM   33  C   UNL     1      -6.578   8.394  68.773  1.00  0.00    -0.054 C  
HETATM   34  C   UNL     1      -5.453   9.420  69.003  1.00  0.00    -0.036 C  
HETATM   35  C   UNL     1     -10.168   9.744  68.758  1.00  0.00    -0.210 A  
HETATM   36  C   UNL     1      -6.072  10.803  69.234  1.00  0.00    -0.045 C  
ENDBRANCH  27  28
ENDBRANCH  19  27
ENDBRANCH  12  14
TORSDOF 3
ENDMDL
MODEL      202
REMARK 921   NORMALIZED FREE ENERGY PREDICTED BY IDOCK:   14.66 KCAL/MOL
REMARK 922        TOTAL FREE ENERGY PREDICTED BY IDOCK:   16.35 KCAL/MOL
REMARK 923 INTER-LIGAND FREE ENERGY PREDICTED BY IDOCK:    3.76 KCAL/MOL
REMARK 924 INTRA-LIGAND FREE ENERGY PREDICTED BY IDOCK:   12.60 KCAL/MOL
REMARK 927      BINDING AFFINITY PREDICTED BY RF-SCORE:    0.00 PKD
ROOT
HETATM    1  C   UNL     1     -12.007   8.254  71.159  1.00  0.00    -0.265 C  
HETATM    2  S   UNL     1     -11.324   6.814  70.244  1.00  0.00    -0.359 SA 
HETATM    3  C   UNL     1     -10.047   6.416  71.529  1.00  0.00    -0.192 C  
HETATM    4  C   UNL     1      -9.831   4.901  71.591  1.00  0.00    -0.245 C  
HETATM    5  CA  UNL     1     -10.571   7.068  72.834  1.00  0.00    -0.272 C  
HETATM    6  C   UNL     1      -8.716   7.042  71.064  1.00  0.00    -0.139 C  
HETATM    7  N   UNL     1     -11.288   8.299  72.446  1.00  0.00    -0.374 N  
HETATM    8  C   UNL     1     -11.546   6.213  73.667  1.00  0.00     0.991 C  
HETATM    9  OXT UNL     1     -11.335   5.070  74.044  1.00  0.00    -0.136 OA 
HETATM   10  O   UNL     1     -12.671   6.880  74.040  1.00  0.00     4.261 OA 
HETATM   11  C   UNL     1     -10.581   9.431  72.120  1.00  0.00     0.515 C  
HETATM   12  CA  UNL     1     -11.410   9.641  70.820  1.00  0.00    -0.340 C  
HETATM   13  O   UNL     1      -9.591   9.884  72.648  1.00  0.00     2.888 OA 
ENDROOT
BRANCH  12  14
HETATM   14  N   UNL     1     -10.661   9.727  69.541  1.00  0.00    -0.223 N  
HETATM   15  C   UNL     1      -9.288   9.826  69.524  1.00  0.00    -0.213 C  
HETATM   16  H   UNL     1     -11.173   9.713  68.659  1.00  0.00     0.000 HD 
HETATM   17  O   UNL     1      -8.630   9.896  70.559  1.00  0.00    -0.127 OA 
HETATM   18  C   UNL     1      -8.644   9.891  68.152  1.00  0.00    -0.118 C  
HETATM   19  C   UNL     1      -8.817   8.552  67.460  1.00  0.00    -0.135 C  
HETATM   20  C   UNL     1      -9.044  11.127  67.325  1.00  0.00    -0.152 A  
HETATM   21  C   UNL     1      -9.307  12.354  67.963  1.00  0.00    -0.204 A  
HETATM   22  O   UNL     1      -9.791   8.219  66.795  1.00  0.00    -0.216 OA 
HETATM   23  C   UNL     1      -9.210  12.298  65.182  1.00  0.00     0.356 A  
HETATM   24  C   UNL     1      -9.542  13.519  67.224  1.00  0.00    -0.235 A  
HETATM   25  C   UNL     1      -9.017  11.127  65.920  1.00  0.00    -0.210 A  
HETATM   26  C   UNL     1      -9.477  13.495  65.835  1.00  0.00    -0.048 A  
BRANCH  19  27
HETATM   27  O   UNL     1      -7.718   7.741  67.729  1.00  0.00    -0.116 OA 
BRANCH  27  28
HETATM   28  C   UNL     1      -8.062   6.493  68.263  1.00  0.00    -0.110 A  
HETATM   29  C   UNL     1      -7.433   4.410  69.248  1.00  0.00    -0.055 A  
HETATM   30  C   UNL     1      -7.066   5.599  68.654  1.00  0.00    -0.066 A  
HETATM   31  C   UNL     1      -8.765   4.130  69.521  1.00  0.00    -0.124 A  
HETATM   32  C   UNL     1      -9.765   5.033  69.178  1.00  0.00    -0.243 A  
HETATM   33  C   UNL     1      -8.905   2.825  70.234  1.00  0.00    -0.147 C  
HETATM   34  C   UNL     1      -7.462   2.291  70.300  1.00  0.00    -0.039 C  
HETATM   35  C   UNL     1      -9.408   6.227  68.535  1.00  0.00    -0.121 A  
HETATM   36  C   UNL     1      -6.512   3.324  69.684  1.00  0.00    -0.033 C  
ENDBRANCH  27  28
ENDBRANCH  19  27
ENDBRANCH  12  14
TORSDOF 3
ENDMDL
MODEL      203
REMARK 921   NORMALIZED FREE ENERGY PREDICTED BY IDOCK:   14.90 KCAL/MOL
REMARK 922        TOTAL FREE ENERGY PREDICTED BY IDOCK:   16.64 KCAL/MOL
REMARK 923 INTER-LIGAND FREE ENERGY PREDICTED BY IDOCK:   12.28 KCAL/MOL
REMARK 924 INTRA-LIGAND FREE ENERGY PREDICTED BY IDOCK:    4.36 KCAL/MOL
REMARK 927      BINDING AFFINITY PREDICTED BY RF-SCORE:    0.00 PKD
ROOT
HETATM    1  C   UNL     1     -11.198  13.040  68.486  1.00  0.00    -0.274 C  
HETATM    2  S   UNL     1     -10.057  12.854  69.916  1.00  0.00     2.294 SA 
HETATM    3  C   UNL     1      -8.519  13.092  68.907  1.00  0.00     0.274 C  
HETATM    4  C   UNL     1      -7.459  13.813  69.745  1.00  0.00     0.586 C  
HETATM    5  CA  UNL     1      -8.983  13.841  67.632  1.00  0.00    -0.194 C  
HETATM    6  C   UNL     1      -7.961  11.691  68.583  1.00  0.00    -0.127 C  
HETATM    7  N   UNL     1     -10.349  13.371  67.327  1.00  0.00    -0.244 N  
HETATM    8  C   UNL     1      -9.042  15.378  67.741  1.00  0.00    -0.178 C  
HETATM    9  OXT UNL     1      -8.123  16.094  68.112  1.00  0.00    -0.145 OA 
HETATM   10  O   UNL     1     -10.212  15.910  67.295  1.00  0.00    -0.265 OA 
HETATM   11  C   UNL     1     -10.535  12.151  66.722  1.00  0.00    -0.218 C  
HETATM   12  CA  UNL     1     -11.619  11.741  67.759  1.00  0.00    -0.304 C  
HETATM   13  O   UNL     1      -9.898  11.645  65.827  1.00  0.00    -0.224 OA 
ENDROOT
BRANCH  12  14
HETATM   14  N   UNL     1     -11.401  10.480  68.510  1.00  0.00    -0.396 N  
HETATM   15  C   UNL     1     -10.156   9.896  68.578  1.00  0.00    -0.168 C  
HETATM   16  H   UNL     1     -12.188  10.037  68.986  1.00  0.00     0.000 HD 
HETATM   17  O   UNL     1      -9.188  10.363  67.983  1.00  0.00    -0.137 OA 
HETATM   18  C   UNL     1     -10.064   8.619  69.391  1.00  0.00    -0.204 C  
HETATM   19  C   UNL     1     -10.277   8.947  70.856  1.00  0.00    -0.240 C  
HETATM   20  C   UNL     1     -10.910   7.457  68.837  1.00  0.00    -0.088 A  
HETATM   21  C   UNL     1     -11.103   7.315  67.450  1.00  0.00    -0.138 A  
HETATM   22  O   UNL     1     -11.365   9.019  71.416  1.00  0.00    -0.272 OA 
HETATM   23  C   UNL     1     -12.004   5.286  69.127  1.00  0.00     5.022 A  
HETATM   24  C   UNL     1     -11.754   6.196  66.918  1.00  0.00     1.141 A  
HETATM   25  C   UNL     1     -11.390   6.423  69.660  1.00  0.00    -0.479 A  
HETATM   26  C   UNL     1     -12.189   5.174  67.755  1.00  0.00     8.055 A  
BRANCH  19  27
HETATM   27  O   UNL     1      -9.049   9.197  71.463  1.00  0.00    -0.309 OA 
BRANCH  27  28
HETATM   28  C   UNL     1      -8.013   8.387  70.981  1.00  0.00    -0.106 A  
HETATM   29  C   UNL     1      -7.166   6.237  70.379  1.00  0.00    -0.083 A  
HETATM   30  C   UNL     1      -8.171   7.003  70.930  1.00  0.00    -0.121 A  
HETATM   31  C   UNL     1      -6.043   6.829  69.817  1.00  0.00    -0.027 A  
HETATM   32  C   UNL     1      -5.894   8.211  69.820  1.00  0.00    -0.026 A  
HETATM   33  C   UNL     1      -5.138   5.804  69.218  1.00  0.00    -0.004 C  
HETATM   34  C   UNL     1      -5.826   4.468  69.555  1.00  0.00    -0.017 C  
HETATM   35  C   UNL     1      -6.889   8.999  70.415  1.00  0.00    -0.055 A  
HETATM   36  C   UNL     1      -7.145   4.751  70.284  1.00  0.00    -0.049 C  
ENDBRANCH  27  28
ENDBRANCH  19  27
ENDBRANCH  12  14
TORSDOF 3
ENDMDL
MODEL      204
REMARK 921   NORMALIZED FREE ENERGY PREDICTED BY IDOCK:   15.89 KCAL/MOL
REMARK 922        TOTAL FREE ENERGY PREDICTED BY IDOCK:   17.80 KCAL/MOL
REMARK 923 INTER-LIGAND FREE ENERGY PREDICTED BY IDOCK:   17.20 KCAL/MOL
REMARK 924 INTRA-LIGAND FREE ENERGY PREDICTED BY IDOCK:    0.60 KCAL/MOL
REMARK 927      BINDING AFFINITY PREDICTED BY RF-SCORE:    0.00 PKD
ROOT
HETATM    1  C   UNL     1      -8.485  14.009  71.152  1.00  0.00     5.766 C  
HETATM    2  S   UNL     1      -7.989  12.518  70.198  1.00  0.00     3.687 SA 
HETATM    3  C   UNL     1      -6.170  12.845  70.351  1.00  0.00     0.078 C  
HETATM    4  C   UNL     1      -5.412  11.516  70.438  1.00  0.00    -0.131 C  
HETATM    5  CA  UNL     1      -6.029  13.774  71.584  1.00  0.00     0.141 C  
HETATM    6  C   UNL     1      -5.717  13.538  69.050  1.00  0.00    -0.076 C  
HETATM    7  N   UNL     1      -7.232  14.628  71.622  1.00  0.00     2.034 N  
HETATM    8  C   UNL     1      -5.925  13.066  72.949  1.00  0.00     1.809 C  
HETATM    9  OXT UNL     1      -5.126  12.184  73.227  1.00  0.00    -0.338 OA 
HETATM   10  O   UNL     1      -6.767  13.573  73.889  1.00  0.00     1.168 OA 
HETATM   11  C   UNL     1      -7.336  15.706  70.776  1.00  0.00     1.662 C  
HETATM   12  CA  UNL     1      -8.771  15.293  70.338  1.00  0.00     1.122 C  
HETATM   13  O   UNL     1      -6.483  16.502  70.456  1.00  0.00     0.363 OA 
ENDROOT
BRANCH  12  14
HETATM   14  N   UNL     1      -9.011  15.098  68.887  1.00  0.00    -0.196 N  
HETATM   15  C   UNL     1      -9.414  16.142  68.084  1.00  0.00    -0.209 C  
HETATM   16  H   UNL     1      -8.875  14.174  68.476  1.00  0.00     0.000 HD 
HETATM   17  O   UNL     1      -9.638  17.261  68.539  1.00  0.00    -0.271 OA 
HETATM   18  C   UNL     1      -9.609  15.815  66.616  1.00  0.00    -0.266 C  
HETATM   19  C   UNL     1      -8.259  15.513  65.992  1.00  0.00     0.709 C  
HETATM   20  C   UNL     1     -10.717  14.780  66.343  1.00  0.00    -0.313 A  
HETATM   21  C   UNL     1     -11.860  14.729  67.163  1.00  0.00    -0.307 A  
HETATM   22  O   UNL     1      -7.711  14.416  65.985  1.00  0.00     1.682 OA 
HETATM   23  C   UNL     1     -11.803  13.156  64.869  1.00  0.00    -0.399 A  
HETATM   24  C   UNL     1     -12.937  13.890  66.855  1.00  0.00     1.003 A  
HETATM   25  C   UNL     1     -10.711  13.962  65.199  1.00  0.00    -0.371 A  
HETATM   26  C   UNL     1     -12.916  13.117  65.699  1.00  0.00     0.089 A  
BRANCH  19  27
HETATM   27  O   UNL     1      -7.717  16.681  65.464  1.00  0.00     0.417 OA 
BRANCH  27  28
HETATM   28  C   UNL     1      -7.576  17.707  66.406  1.00  0.00    -0.287 A  
HETATM   29  C   UNL     1      -6.344  18.766  68.156  1.00  0.00    -0.220 A  
HETATM   30  C   UNL     1      -6.499  17.704  67.292  1.00  0.00    -0.180 A  
HETATM   31  C   UNL     1      -7.198  19.859  68.105  1.00  0.00    -0.330 A  
HETATM   32  C   UNL     1      -8.249  19.896  67.197  1.00  0.00    -0.351 A  
HETATM   33  C   UNL     1      -6.783  20.911  69.081  1.00  0.00     0.551 C  
HETATM   34  C   UNL     1      -5.580  20.281  69.807  1.00  0.00    -0.345 C  
HETATM   35  C   UNL     1      -8.443  18.803  66.340  1.00  0.00    -0.296 A  
HETATM   36  C   UNL     1      -5.284  18.907  69.194  1.00  0.00    -0.195 C  
ENDBRANCH  27  28
ENDBRANCH  19  27
ENDBRANCH  12  14
TORSDOF 3
ENDMDL
MODEL      205
REMARK 921   NORMALIZED FREE ENERGY PREDICTED BY IDOCK:   16.41 KCAL/MOL
REMARK 922        TOTAL FREE ENERGY PREDICTED BY IDOCK:   18.41 KCAL/MOL
REMARK 923 INTER-LIGAND FREE ENERGY PREDICTED BY IDOCK:   17.48 KCAL/MOL
REMARK 924 INTRA-LIGAND FREE ENERGY PREDICTED BY IDOCK:    0.94 KCAL/MOL
REMARK 927      BINDING AFFINITY PREDICTED BY RF-SCORE:    0.00 PKD
ROOT
HETATM    1  C   UNL     1     -11.537  12.094  70.414  1.00  0.00     0.111 C  
HETATM    2  S   UNL     1     -12.820  11.719  69.152  1.00  0.00     1.664 SA 
HETATM    3  C   UNL     1     -12.656   9.880  69.319  1.00  0.00     1.420 C  
HETATM    4  C   UNL     1     -14.021   9.218  69.101  1.00  0.00     7.043 C  
HETATM    5  CA  UNL     1     -12.022   9.655  70.715  1.00  0.00    -0.277 C  
HETATM    6  C   UNL     1     -11.734   9.396  68.181  1.00  0.00     1.392 C  
HETATM    7  N   UNL     1     -11.117  10.794  70.968  1.00  0.00     0.427 N  
HETATM    8  C   UNL     1     -13.010   9.584  71.897  1.00  0.00    -0.425 C  
HETATM    9  OXT UNL     1     -13.982   8.846  71.959  1.00  0.00    -0.414 OA 
HETATM   10  O   UNL     1     -12.659  10.375  72.946  1.00  0.00     1.004 OA 
HETATM   11  C   UNL     1      -9.880  10.831  70.372  1.00  0.00     1.266 C  
HETATM   12  CA  UNL     1     -10.093  12.298  69.898  1.00  0.00     1.834 C  
HETATM   13  O   UNL     1      -9.093   9.928  70.203  1.00  0.00    -0.223 OA 
ENDROOT
BRANCH  12  14
HETATM   14  N   UNL     1      -9.958  12.571  68.445  1.00  0.00    -0.258 N  
HETATM   15  C   UNL     1     -10.127  13.841  67.940  1.00  0.00    -0.246 C  
HETATM   16  H   UNL     1      -9.736  11.804  67.809  1.00  0.00     0.000 HD 
HETATM   17  O   UNL     1     -10.443  14.787  68.657  1.00  0.00    -0.235 OA 
HETATM   18  C   UNL     1      -9.946  13.989  66.441  1.00  0.00    -0.301 C  
HETATM   19  C   UNL     1      -8.487  13.762  66.093  1.00  0.00     0.983 C  
HETATM   20  C   UNL     1     -10.964  13.194  65.602  1.00  0.00    -0.295 A  
HETATM   21  C   UNL     1     -12.279  13.007  66.069  1.00  0.00    -0.463 A  
HETATM   22  O   UNL     1      -7.972  12.672  65.872  1.00  0.00     1.111 OA 
HETATM   23  C   UNL     1     -11.664  12.196  63.479  1.00  0.00    -0.579 A  
HETATM   24  C   UNL     1     -13.255  12.405  65.266  1.00  0.00     1.325 A  
HETATM   25  C   UNL     1     -10.679  12.760  64.295  1.00  0.00    -0.419 A  
HETATM   26  C   UNL     1     -12.952  12.015  63.966  1.00  0.00    -0.251 A  
BRANCH  19  27
HETATM   27  O   UNL     1      -7.810  14.978  66.103  1.00  0.00     0.694 OA 
BRANCH  27  28
HETATM   28  C   UNL     1      -7.172  15.252  67.320  1.00  0.00    -0.178 A  
HETATM   29  C   UNL     1      -6.933  14.888  69.668  1.00  0.00    -0.184 A  
HETATM   30  C   UNL     1      -7.627  14.663  68.498  1.00  0.00    -0.120 A  
HETATM   31  C   UNL     1      -5.759  15.629  69.670  1.00  0.00    -0.122 A  
HETATM   32  C   UNL     1      -5.269  16.185  68.494  1.00  0.00    -0.096 A  
HETATM   33  C   UNL     1      -5.152  15.669  71.034  1.00  0.00    -0.158 C  
HETATM   34  C   UNL     1      -6.163  14.902  71.906  1.00  0.00     0.737 C  
HETATM   35  C   UNL     1      -5.988  15.998  67.305  1.00  0.00    -0.106 A  
HETATM   36  C   UNL     1      -7.300  14.380  71.019  1.00  0.00     1.816 C  
ENDBRANCH  27  28
ENDBRANCH  19  27
ENDBRANCH  12  14
TORSDOF 3
ENDMDL
MODEL      206
REMARK 921   NORMALIZED FREE ENERGY PREDICTED BY IDOCK:   17.12 KCAL/MOL
REMARK 922        TOTAL FREE ENERGY PREDICTED BY IDOCK:   19.24 KCAL/MOL
REMARK 923 INTER-LIGAND FREE ENERGY PREDICTED BY IDOCK:   10.87 KCAL/MOL
REMARK 924 INTRA-LIGAND FREE ENERGY PREDICTED BY IDOCK:    8.38 KCAL/MOL
REMARK 927      BINDING AFFINITY PREDICTED BY RF-SCORE:    0.00 PKD
ROOT
HETATM    1  C   UNL     1     -11.645  12.307  70.946  1.00  0.00     0.988 C  
HETATM    2  S   UNL     1     -10.117  13.259  70.571  1.00  0.00     4.587 SA 
HETATM    3  C   UNL     1     -10.948  14.914  70.673  1.00  0.00    -0.077 C  
HETATM    4  C   UNL     1      -9.968  15.950  71.232  1.00  0.00     2.021 C  
HETATM    5  CA  UNL     1     -12.222  14.675  71.523  1.00  0.00    -0.352 C  
HETATM    6  C   UNL     1     -11.288  15.346  69.232  1.00  0.00    -0.323 C  
HETATM    7  N   UNL     1     -12.691  13.307  71.225  1.00  0.00    -0.358 N  
HETATM    8  C   UNL     1     -12.038  14.774  73.050  1.00  0.00    -0.185 C  
HETATM    9  OXT UNL     1     -11.536  15.720  73.639  1.00  0.00    -0.155 OA 
HETATM   10  O   UNL     1     -12.573  13.725  73.731  1.00  0.00     0.358 OA 
HETATM   11  C   UNL     1     -13.376  13.055  70.061  1.00  0.00     1.528 C  
HETATM   12  CA  UNL     1     -12.479  11.826  69.735  1.00  0.00     0.012 C  
HETATM   13  O   UNL     1     -14.227  13.726  69.523  1.00  0.00     4.378 OA 
ENDROOT
BRANCH  12  14
HETATM   14  N   UNL     1     -11.778  11.822  68.427  1.00  0.00    -0.322 N  
HETATM   15  C   UNL     1     -10.474  12.249  68.316  1.00  0.00    -0.226 C  
HETATM   16  H   UNL     1     -12.271  11.497  67.595  1.00  0.00     0.000 HD 
HETATM   17  O   UNL     1      -9.853  12.696  69.278  1.00  0.00     0.355 OA 
HETATM   18  C   UNL     1      -9.867  12.179  66.928  1.00  0.00    -0.213 C  
HETATM   19  C   UNL     1      -9.699  10.724  66.533  1.00  0.00    -0.196 C  
HETATM   20  C   UNL     1     -10.566  13.076  65.889  1.00  0.00    -0.288 A  
HETATM   21  C   UNL     1     -11.129  14.307  66.276  1.00  0.00    -0.323 A  
HETATM   22  O   UNL     1     -10.559  10.029  66.003  1.00  0.00    -0.120 OA 
HETATM   23  C   UNL     1     -11.023  13.692  63.564  1.00  0.00     0.764 A  
HETATM   24  C   UNL     1     -11.650  15.196  65.329  1.00  0.00    -0.206 A  
HETATM   25  C   UNL     1     -10.541  12.786  64.513  1.00  0.00    -0.383 A  
HETATM   26  C   UNL     1     -11.581  14.896  63.973  1.00  0.00     0.105 A  
BRANCH  19  27
HETATM   27  O   UNL     1      -8.431  10.283  66.902  1.00  0.00    -0.125 OA 
BRANCH  27  28
HETATM   28  C   UNL     1      -8.068   9.067  66.311  1.00  0.00    -0.110 A  
HETATM   29  C   UNL     1      -6.486   7.309  65.976  1.00  0.00    -0.045 A  
HETATM   30  C   UNL     1      -6.790   8.546  66.506  1.00  0.00    -0.071 A  
HETATM   31  C   UNL     1      -7.450   6.557  65.319  1.00  0.00    -0.082 A  
HETATM   32  C   UNL     1      -8.741   7.046  65.156  1.00  0.00     0.134 A  
HETATM   33  C   UNL     1      -6.906   5.230  64.906  1.00  0.00    -0.049 C  
HETATM   34  C   UNL     1      -5.429   5.291  65.338  1.00  0.00    -0.013 C  
HETATM   35  C   UNL     1      -9.052   8.319  65.654  1.00  0.00    -0.122 A  
HETATM   36  C   UNL     1      -5.166   6.623  66.048  1.00  0.00    -0.018 C  
ENDBRANCH  27  28
ENDBRANCH  19  27
ENDBRANCH  12  14
TORSDOF 3
ENDMDL
MODEL      207
REMARK 921   NORMALIZED FREE ENERGY PREDICTED BY IDOCK:   19.61 KCAL/MOL
REMARK 922        TOTAL FREE ENERGY PREDICTED BY IDOCK:   22.17 KCAL/MOL
REMARK 923 INTER-LIGAND FREE ENERGY PREDICTED BY IDOCK:   23.06 KCAL/MOL
REMARK 924 INTRA-LIGAND FREE ENERGY PREDICTED BY IDOCK:   -0.89 KCAL/MOL
REMARK 927      BINDING AFFINITY PREDICTED BY RF-SCORE:    0.00 PKD
ROOT
HETATM    1  C   UNL     1      -8.948   9.836  66.081  1.00  0.00    -0.152 C  
HETATM    2  S   UNL     1      -9.313   8.928  64.526  1.00  0.00     0.738 SA 
HETATM    3  C   UNL     1     -11.046   9.574  64.384  1.00  0.00     5.660 C  
HETATM    4  C   UNL     1     -11.413   9.748  62.907  1.00  0.00     6.699 C  
HETATM    5  CA  UNL     1     -11.066  10.870  65.233  1.00  0.00     0.152 C  
HETATM    6  C   UNL     1     -11.987   8.494  64.957  1.00  0.00    14.115 C  
HETATM    7  N   UNL     1     -10.136  10.663  66.361  1.00  0.00    -0.218 N  
HETATM    8  C   UNL     1     -10.623  12.155  64.504  1.00  0.00    -0.310 C  
HETATM    9  OXT UNL     1     -11.083  12.560  63.447  1.00  0.00    -0.459 OA 
HETATM   10  O   UNL     1      -9.704  12.881  65.195  1.00  0.00    -0.114 OA 
HETATM   11  C   UNL     1     -10.525   9.907  67.440  1.00  0.00    -0.267 C  
HETATM   12  CA  UNL     1      -9.208   9.081  67.406  1.00  0.00    -0.138 C  
HETATM   13  O   UNL     1     -11.597   9.884  68.001  1.00  0.00    -0.061 OA 
ENDROOT
BRANCH  12  14
HETATM   14  N   UNL     1      -9.331   7.606  67.295  1.00  0.00    -0.140 N  
HETATM   15  C   UNL     1      -8.235   6.786  67.443  1.00  0.00    -0.122 C  
HETATM   16  H   UNL     1     -10.244   7.192  67.107  1.00  0.00     0.000 HD 
HETATM   17  O   UNL     1      -7.106   7.238  67.621  1.00  0.00    -0.079 OA 
HETATM   18  C   UNL     1      -8.498   5.297  67.323  1.00  0.00    -0.106 C  
HETATM   19  C   UNL     1      -9.324   4.842  68.511  1.00  0.00    -0.131 C  
HETATM   20  C   UNL     1      -9.018   4.858  65.941  1.00  0.00    -0.134 A  
HETATM   21  C   UNL     1      -8.592   5.524  64.776  1.00  0.00    -0.091 A  
HETATM   22  O   UNL     1     -10.548   4.877  68.578  1.00  0.00     0.037 OA 
HETATM   23  C   UNL     1     -10.121   3.216  64.499  1.00  0.00    -0.038 A  
HETATM   24  C   UNL     1      -8.946   5.060  63.504  1.00  0.00     0.040 A  
HETATM   25  C   UNL     1      -9.802   3.704  65.770  1.00  0.00    -0.041 A  
HETATM   26  C   UNL     1      -9.696   3.897  63.366  1.00  0.00    -0.152 A  
BRANCH  19  27
HETATM   27  O   UNL     1      -8.480   4.418  69.533  1.00  0.00    -0.075 OA 
BRANCH  27  28
HETATM   28  C   UNL     1      -8.727   5.048  70.759  1.00  0.00    -0.127 A  
HETATM   29  C   UNL     1      -8.164   6.686  72.404  1.00  0.00    -0.103 A  
HETATM   30  C   UNL     1      -7.855   6.028  71.232  1.00  0.00    -0.112 A  
HETATM   31  C   UNL     1      -9.355   6.435  73.071  1.00  0.00    -0.141 A  
HETATM   32  C   UNL     1     -10.255   5.493  72.586  1.00  0.00    -0.222 A  
HETATM   33  C   UNL     1      -9.500   7.320  74.264  1.00  0.00    -0.177 C  
HETATM   34  C   UNL     1      -8.181   8.116  74.289  1.00  0.00    -0.290 C  
HETATM   35  C   UNL     1      -9.933   4.786  71.418  1.00  0.00    -0.267 A  
HETATM   36  C   UNL     1      -7.331   7.722  73.076  1.00  0.00    -0.119 C  
ENDBRANCH  27  28
ENDBRANCH  19  27
ENDBRANCH  12  14
TORSDOF 3
ENDMDL
MODEL      208
REMARK 921   NORMALIZED FREE ENERGY PREDICTED BY IDOCK:   20.88 KCAL/MOL
REMARK 922        TOTAL FREE ENERGY PREDICTED BY IDOCK:   23.67 KCAL/MOL
REMARK 923 INTER-LIGAND FREE ENERGY PREDICTED BY IDOCK:   19.37 KCAL/MOL
REMARK 924 INTRA-LIGAND FREE ENERGY PREDICTED BY IDOCK:    4.30 KCAL/MOL
REMARK 927      BINDING AFFINITY PREDICTED BY RF-SCORE:    0.00 PKD
ROOT
HETATM    1  C   UNL     1     -12.197  14.715  67.339  1.00  0.00    -0.051 C  
HETATM    2  S   UNL     1     -10.753  14.419  68.437  1.00  0.00    -0.252 SA 
HETATM    3  C   UNL     1      -9.504  15.003  67.196  1.00  0.00    -0.216 C  
HETATM    4  C   UNL     1      -8.339  15.687  67.919  1.00  0.00    -0.150 C  
HETATM    5  CA  UNL     1     -10.299  15.902  66.215  1.00  0.00    -0.314 C  
HETATM    6  C   UNL     1      -8.930  13.753  66.499  1.00  0.00    -0.080 C  
HETATM    7  N   UNL     1     -11.659  15.337  66.115  1.00  0.00    -0.090 N  
HETATM    8  C   UNL     1     -10.446  17.380  66.629  1.00  0.00    -0.253 C  
HETATM    9  OXT UNL     1      -9.524  18.122  66.933  1.00  0.00    -0.269 OA 
HETATM   10  O   UNL     1     -11.723  17.842  66.547  1.00  0.00     1.588 OA 
HETATM   11  C   UNL     1     -11.884  14.226  65.338  1.00  0.00    -0.363 C  
HETATM   12  CA  UNL     1     -12.673  13.521  66.478  1.00  0.00     0.078 C  
HETATM   13  O   UNL     1     -11.429  13.959  64.249  1.00  0.00    -0.371 OA 
ENDROOT
BRANCH  12  14
HETATM   14  N   UNL     1     -12.197  12.183  66.909  1.00  0.00     0.146 N  
HETATM   15  C   UNL     1     -11.905  11.921  68.229  1.00  0.00    -0.277 C  
HETATM   16  H   UNL     1     -12.084  11.443  66.215  1.00  0.00     0.000 HD 
HETATM   17  O   UNL     1     -11.977  12.791  69.094  1.00  0.00    -0.291 OA 
HETATM   18  C   UNL     1     -11.444  10.510  68.541  1.00  0.00    -0.284 C  
HETATM   19  C   UNL     1     -12.603   9.553  68.336  1.00  0.00     4.987 C  
HETATM   20  C   UNL     1     -10.122  10.114  67.857  1.00  0.00    -0.207 A  
HETATM   21  C   UNL     1      -9.119  11.076  67.635  1.00  0.00    -0.145 A  
HETATM   22  O   UNL     1     -12.911   9.031  67.271  1.00  0.00    10.016 OA 
HETATM   23  C   UNL     1      -8.534   8.407  67.110  1.00  0.00    -0.123 A  
HETATM   24  C   UNL     1      -7.862  10.713  67.138  1.00  0.00    -0.117 A  
HETATM   25  C   UNL     1      -9.802   8.775  67.567  1.00  0.00    -0.232 A  
HETATM   26  C   UNL     1      -7.564   9.377  66.892  1.00  0.00    -0.091 A  
BRANCH  19  27
HETATM   27  O   UNL     1     -13.291   9.390  69.535  1.00  0.00     2.046 OA 
BRANCH  27  28
HETATM   28  C   UNL     1     -12.666   8.504  70.422  1.00  0.00     0.800 A  
HETATM   29  C   UNL     1     -12.787   6.912  72.198  1.00  0.00    -0.093 A  
HETATM   30  C   UNL     1     -13.415   7.836  71.390  1.00  0.00    -0.317 A  
HETATM   31  C   UNL     1     -11.449   6.592  72.011  1.00  0.00    -0.329 A  
HETATM   32  C   UNL     1     -10.702   7.218  71.020  1.00  0.00    -0.247 A  
HETATM   33  C   UNL     1     -11.018   5.515  72.951  1.00  0.00    -0.332 C  
HETATM   34  C   UNL     1     -12.270   5.258  73.810  1.00  0.00     2.319 C  
HETATM   35  C   UNL     1     -11.318   8.190  70.219  1.00  0.00    -0.132 A  
HETATM   36  C   UNL     1     -13.417   6.143  73.307  1.00  0.00     3.020 C  
ENDBRANCH  27  28
ENDBRANCH  19  27
ENDBRANCH  12  14
TORSDOF 3
ENDMDL
MODEL      209
REMARK 921   NORMALIZED FREE ENERGY PREDICTED BY IDOCK:   28.34 KCAL/MOL
REMARK 922        TOTAL FREE ENERGY PREDICTED BY IDOCK:   32.44 KCAL/MOL
REMARK 923 INTER-LIGAND FREE ENERGY PREDICTED BY IDOCK:   29.66 KCAL/MOL
REMARK 924 INTRA-LIGAND FREE ENERGY PREDICTED BY IDOCK:    2.78 KCAL/MOL
REMARK 927      BINDING AFFINITY PREDICTED BY RF-SCORE:    0.00 PKD
ROOT
HETATM    1  C   UNL     1      -8.462  13.638  71.384  1.00  0.00     9.052 C  
HETATM    2  S   UNL     1      -7.888  12.134  70.498  1.00  0.00     5.175 SA 
HETATM    3  C   UNL     1      -6.093  12.426  70.863  1.00  0.00     0.493 C  
HETATM    4  C   UNL     1      -5.377  11.084  71.040  1.00  0.00    -0.100 C  
HETATM    5  CA  UNL     1      -6.078  13.358  72.101  1.00  0.00     1.252 C  
HETATM    6  C   UNL     1      -5.477  13.105  69.622  1.00  0.00    -0.091 C  
HETATM    7  N   UNL     1      -7.261  14.235  71.997  1.00  0.00     3.014 N  
HETATM    8  C   UNL     1      -6.149  12.654  73.471  1.00  0.00     2.696 C  
HETATM    9  OXT UNL     1      -5.406  11.758  73.842  1.00  0.00    -0.095 OA 
HETATM   10  O   UNL     1      -7.086  13.182  74.304  1.00  0.00     2.510 OA 
HETATM   11  C   UNL     1      -7.244  15.311  71.141  1.00  0.00     1.846 C  
HETATM   12  CA  UNL     1      -8.625  14.924  70.540  1.00  0.00     1.561 C  
HETATM   13  O   UNL     1      -6.344  16.089  70.922  1.00  0.00     0.486 OA 
ENDROOT
BRANCH  12  14
HETATM   14  N   UNL     1      -8.697  14.728  69.070  1.00  0.00    -0.297 N  
HETATM   15  C   UNL     1      -9.136  15.732  68.237  1.00  0.00    -0.187 C  
HETATM   16  H   UNL     1      -8.417  13.832  68.670  1.00  0.00     0.000 HD 
HETATM   17  O   UNL     1      -9.531  16.811  68.673  1.00  0.00    -0.239 OA 
HETATM   18  C   UNL     1      -9.147  15.409  66.755  1.00  0.00    -0.286 C  
HETATM   19  C   UNL     1      -7.717  15.272  66.267  1.00  0.00     1.130 C  
HETATM   20  C   UNL     1     -10.098  14.261  66.367  1.00  0.00    -0.295 A  
HETATM   21  C   UNL     1     -11.303  14.067  67.069  1.00  0.00    -0.346 A  
HETATM   22  O   UNL     1      -7.050  14.245  66.309  1.00  0.00     1.757 OA 
HETATM   23  C   UNL     1     -10.841  12.548  64.784  1.00  0.00    -0.332 A  
HETATM   24  C   UNL     1     -12.241  13.117  66.651  1.00  0.00    -0.331 A  
HETATM   25  C   UNL     1      -9.886  13.468  65.226  1.00  0.00    -0.116 A  
HETATM   26  C   UNL     1     -12.018  12.370  65.499  1.00  0.00    -0.453 A  
BRANCH  19  27
HETATM   27  O   UNL     1      -7.262  16.502  65.802  1.00  0.00     0.431 OA 
BRANCH  27  28
HETATM   28  C   UNL     1      -7.976  17.592  66.316  1.00  0.00    -0.257 A  
HETATM   29  C   UNL     1      -9.930  18.965  66.351  1.00  0.00    -0.435 A  
HETATM   30  C   UNL     1      -9.214  17.937  65.776  1.00  0.00     0.325 A  
HETATM   31  C   UNL     1      -9.467  19.606  67.493  1.00  0.00    -0.434 A  
HETATM   32  C   UNL     1      -8.255  19.242  68.068  1.00  0.00    -0.346 A  
HETATM   33  C   UNL     1     -10.447  20.626  67.971  1.00  0.00     0.079 C  
HETATM   34  C   UNL     1     -11.565  20.582  66.913  1.00  0.00     2.525 C  
HETATM   35  C   UNL     1      -7.498  18.226  67.468  1.00  0.00    -0.216 A  
HETATM   36  C   UNL     1     -11.240  19.494  65.882  1.00  0.00     0.182 C  
ENDBRANCH  27  28
ENDBRANCH  19  27
ENDBRANCH  12  14
TORSDOF 3
ENDMDL
MODEL      210
REMARK 921   NORMALIZED FREE ENERGY PREDICTED BY IDOCK:   31.69 KCAL/MOL
REMARK 922        TOTAL FREE ENERGY PREDICTED BY IDOCK:   36.37 KCAL/MOL
REMARK 923 INTER-LIGAND FREE ENERGY PREDICTED BY IDOCK:   32.73 KCAL/MOL
REMARK 924 INTRA-LIGAND FREE ENERGY PREDICTED BY IDOCK:    3.63 KCAL/MOL
REMARK 927      BINDING AFFINITY PREDICTED BY RF-SCORE:    0.00 PKD
ROOT
HETATM    1  C   UNL     1      -7.014  13.720  69.747  1.00  0.00     0.183 C  
HETATM    2  S   UNL     1      -8.790  14.188  69.664  1.00  0.00     1.097 SA 
HETATM    3  C   UNL     1      -8.809  14.984  71.340  1.00  0.00     3.880 C  
HETATM    4  C   UNL     1      -9.776  16.172  71.336  1.00  0.00     3.594 C  
HETATM    5  CA  UNL     1      -7.329  15.331  71.640  1.00  0.00     3.235 C  
HETATM    6  C   UNL     1      -9.373  13.947  72.333  1.00  0.00    10.931 C  
HETATM    7  N   UNL     1      -6.502  14.282  71.011  1.00  0.00     0.068 N  
HETATM    8  C   UNL     1      -6.835  16.688  71.101  1.00  0.00     3.274 C  
HETATM    9  OXT UNL     1      -7.375  17.766  71.304  1.00  0.00     4.632 OA 
HETATM   10  O   UNL     1      -5.659  16.608  70.423  1.00  0.00    -0.205 OA 
HETATM   11  C   UNL     1      -6.375  13.054  71.615  1.00  0.00     2.074 C  
HETATM   12  CA  UNL     1      -6.691  12.307  70.288  1.00  0.00     0.719 C  
HETATM   13  O   UNL     1      -6.238  12.799  72.790  1.00  0.00     1.670 OA 
ENDROOT
BRANCH  12  14
HETATM   14  N   UNL     1      -7.822  11.346  70.299  1.00  0.00     1.184 N  
HETATM   15  C   UNL     1      -8.416  10.930  69.129  1.00  0.00    -0.055 C  
HETATM   16  H   UNL     1      -8.166  10.987  71.190  1.00  0.00     0.000 HD 
HETATM   17  O   UNL     1      -8.072  11.369  68.034  1.00  0.00    -0.122 OA 
HETATM   18  C   UNL     1      -9.550   9.933  69.277  1.00  0.00    -0.215 C  
HETATM   19  C   UNL     1      -8.989   8.612  69.768  1.00  0.00    -0.145 C  
HETATM   20  C   UNL     1     -10.766  10.473  70.054  1.00  0.00    -0.282 A  
HETATM   21  C   UNL     1     -11.121  11.832  69.966  1.00  0.00     0.154 A  
HETATM   22  O   UNL     1      -8.805   8.313  70.942  1.00  0.00    -0.137 OA 
HETATM   23  C   UNL     1     -12.837  10.099  71.303  1.00  0.00    -0.508 A  
HETATM   24  C   UNL     1     -12.294  12.316  70.555  1.00  0.00    -0.349 A  
HETATM   25  C   UNL     1     -11.645   9.624  70.750  1.00  0.00    -0.395 A  
HETATM   26  C   UNL     1     -13.160  11.446  71.209  1.00  0.00    -0.297 A  
BRANCH  19  27
HETATM   27  O   UNL     1      -8.674   7.804  68.679  1.00  0.00    -0.128 OA 
BRANCH  27  28
HETATM   28  C   UNL     1      -8.405   8.525  67.508  1.00  0.00    -0.128 A  
HETATM   29  C   UNL     1      -7.005   8.988  65.630  1.00  0.00    -0.080 A  
HETATM   30  C   UNL     1      -7.210   8.323  66.820  1.00  0.00    -0.082 A  
HETATM   31  C   UNL     1      -7.996   9.791  65.081  1.00  0.00    -0.129 A  
HETATM   32  C   UNL     1      -9.210   9.966  65.735  1.00  0.00    -0.228 A  
HETATM   33  C   UNL     1      -7.572  10.339  63.758  1.00  0.00    -0.092 C  
HETATM   34  C   UNL     1      -6.133   9.816  63.592  1.00  0.00    -0.114 C  
HETATM   35  C   UNL     1      -9.415   9.328  66.967  1.00  0.00    -0.205 A  
HETATM   36  C   UNL     1      -5.778   8.927  64.789  1.00  0.00    -0.062 C  
ENDBRANCH  27  28
ENDBRANCH  19  27
ENDBRANCH  12  14
TORSDOF 3
ENDMDL
MODEL      211
REMARK 921   NORMALIZED FREE ENERGY PREDICTED BY IDOCK:   41.21 KCAL/MOL
REMARK 922        TOTAL FREE ENERGY PREDICTED BY IDOCK:   47.56 KCAL/MOL
REMARK 923 INTER-LIGAND FREE ENERGY PREDICTED BY IDOCK:   35.12 KCAL/MOL
REMARK 924 INTRA-LIGAND FREE ENERGY PREDICTED BY IDOCK:   12.44 KCAL/MOL
REMARK 927      BINDING AFFINITY PREDICTED BY RF-SCORE:    0.00 PKD
ROOT
HETATM    1  C   UNL     1      -8.202  12.860  65.779  1.00  0.00     1.888 C  
HETATM    2  S   UNL     1      -8.800  11.519  66.885  1.00  0.00    -0.187 SA 
HETATM    3  C   UNL     1     -10.307  11.153  65.869  1.00  0.00    -0.259 C  
HETATM    4  C   UNL     1     -10.625   9.655  65.938  1.00  0.00     0.221 C  
HETATM    5  CA  UNL     1      -9.985  11.700  64.455  1.00  0.00    -0.253 C  
HETATM    6  C   UNL     1     -11.492  11.895  66.520  1.00  0.00    -0.381 C  
HETATM    7  N   UNL     1      -9.134  12.893  64.637  1.00  0.00     1.096 N  
HETATM    8  C   UNL     1      -9.229  10.736  63.519  1.00  0.00    -0.257 C  
HETATM    9  OXT UNL     1      -9.575   9.595  63.255  1.00  0.00     0.017 OA 
HETATM   10  O   UNL     1      -8.148  11.301  62.916  1.00  0.00     0.093 OA 
HETATM   11  C   UNL     1      -9.699  14.088  65.011  1.00  0.00     0.144 C  
HETATM   12  CA  UNL     1      -8.641  14.301  66.131  1.00  0.00     0.665 C  
HETATM   13  O   UNL     1     -10.737  14.585  64.637  1.00  0.00    -0.399 OA 
ENDROOT
BRANCH  12  14
HETATM   14  N   UNL     1      -9.142  14.504  67.513  1.00  0.00    -0.186 N  
HETATM   15  C   UNL     1      -9.216  13.458  68.406  1.00  0.00    -0.149 C  
HETATM   16  H   UNL     1      -9.439  15.435  67.807  1.00  0.00     0.000 HD 
HETATM   17  O   UNL     1      -8.918  12.310  68.086  1.00  0.00    -0.183 OA 
HETATM   18  C   UNL     1      -9.731  13.801  69.791  1.00  0.00     1.281 C  
HETATM   19  C   UNL     1      -8.711  14.674  70.496  1.00  0.00     1.939 C  
HETATM   20  C   UNL     1     -11.182  14.317  69.814  1.00  0.00    -0.230 A  
HETATM   21  C   UNL     1     -12.124  13.833  68.887  1.00  0.00    -0.348 A  
HETATM   22  O   UNL     1      -8.641  15.895  70.409  1.00  0.00     0.967 OA 
HETATM   23  C   UNL     1     -13.014  15.482  70.943  1.00  0.00    -0.526 A  
HETATM   24  C   UNL     1     -13.475  14.187  68.974  1.00  0.00     3.565 A  
HETATM   25  C   UNL     1     -11.659  15.161  70.832  1.00  0.00    -0.380 A  
HETATM   26  C   UNL     1     -13.923  14.997  70.011  1.00  0.00     1.626 A  
BRANCH  19  27
HETATM   27  O   UNL     1      -7.836  13.875  71.227  1.00  0.00     3.327 OA 
BRANCH  27  28
HETATM   28  C   UNL     1      -7.882  12.522  70.866  1.00  0.00     6.831 A  
HETATM   29  C   UNL     1      -8.798  10.332  71.127  1.00  0.00     2.524 A  
HETATM   30  C   UNL     1      -8.714  11.641  71.554  1.00  0.00    12.640 A  
HETATM   31  C   UNL     1      -8.124   9.908  69.990  1.00  0.00    -0.193 A  
HETATM   32  C   UNL     1      -7.326  10.787  69.268  1.00  0.00    -0.129 A  
HETATM   33  C   UNL     1      -8.430   8.478  69.687  1.00  0.00    -0.130 C  
HETATM   34  C   UNL     1      -9.342   8.046  70.851  1.00  0.00    -0.169 C  
HETATM   35  C   UNL     1      -7.200  12.110  69.716  1.00  0.00     0.584 A  
HETATM   36  C   UNL     1      -9.596   9.249  71.766  1.00  0.00     0.070 C  
ENDBRANCH  27  28
ENDBRANCH  19  27
ENDBRANCH  12  14
TORSDOF 3
ENDMDL
MODEL      212
REMARK 921   NORMALIZED FREE ENERGY PREDICTED BY IDOCK:   42.82 KCAL/MOL
REMARK 922        TOTAL FREE ENERGY PREDICTED BY IDOCK:   49.46 KCAL/MOL
REMARK 923 INTER-LIGAND FREE ENERGY PREDICTED BY IDOCK:   49.43 KCAL/MOL
REMARK 924 INTRA-LIGAND FREE ENERGY PREDICTED BY IDOCK:    0.03 KCAL/MOL
REMARK 927      BINDING AFFINITY PREDICTED BY RF-SCORE:    0.00 PKD
ROOT
HETATM    1  C   UNL     1     -10.521  18.086  67.680  1.00  0.00    -0.409 C  
HETATM    2  S   UNL     1     -10.576  17.718  65.880  1.00  0.00    -0.060 SA 
HETATM    3  C   UNL     1     -12.426  17.602  65.812  1.00  0.00     6.987 C  
HETATM    4  C   UNL     1     -12.927  18.118  64.459  1.00  0.00    13.405 C  
HETATM    5  CA  UNL     1     -12.927  18.387  67.051  1.00  0.00     8.050 C  
HETATM    6  C   UNL     1     -12.796  16.106  65.888  1.00  0.00     3.635 C  
HETATM    7  N   UNL     1     -11.924  18.197  68.118  1.00  0.00     2.323 N  
HETATM    8  C   UNL     1     -13.104  19.906  66.855  1.00  0.00     6.164 C  
HETATM    9  OXT UNL     1     -13.758  20.430  65.965  1.00  0.00     6.805 OA 
HETATM   10  O   UNL     1     -12.526  20.651  67.835  1.00  0.00     3.773 OA 
HETATM   11  C   UNL     1     -11.895  17.021  68.829  1.00  0.00     1.096 C  
HETATM   12  CA  UNL     1     -10.359  16.877  68.633  1.00  0.00    -0.332 C  
HETATM   13  O   UNL     1     -12.822  16.366  69.247  1.00  0.00     0.699 OA 
ENDROOT
BRANCH  12  14
HETATM   14  N   UNL     1      -9.866  15.624  68.008  1.00  0.00    -0.209 N  
HETATM   15  C   UNL     1     -10.144  14.394  68.562  1.00  0.00    -0.244 C  
HETATM   16  H   UNL     1      -9.312  15.674  67.153  1.00  0.00     0.000 HD 
HETATM   17  O   UNL     1     -10.765  14.283  69.617  1.00  0.00    -0.143 OA 
HETATM   18  C   UNL     1      -9.597  13.191  67.818  1.00  0.00    -0.208 C  
HETATM   19  C   UNL     1     -10.327  13.052  66.496  1.00  0.00    -0.274 C  
HETATM   20  C   UNL     1      -8.059  13.145  67.740  1.00  0.00    -0.165 A  
HETATM   21  C   UNL     1      -7.277  13.648  68.797  1.00  0.00    -0.100 A  
HETATM   22  O   UNL     1     -10.019  13.618  65.453  1.00  0.00    -0.283 OA 
HETATM   23  C   UNL     1      -5.998  12.287  66.734  1.00  0.00     0.250 A  
HETATM   24  C   UNL     1      -5.886  13.496  68.806  1.00  0.00    -0.083 A  
HETATM   25  C   UNL     1      -7.383  12.475  66.704  1.00  0.00     0.461 A  
HETATM   26  C   UNL     1      -5.249  12.801  67.784  1.00  0.00    -0.111 A  
BRANCH  19  27
HETATM   27  O   UNL     1     -11.427  12.214  66.656  1.00  0.00    -0.339 OA 
BRANCH  27  28
HETATM   28  C   UNL     1     -11.159  11.082  67.436  1.00  0.00    -0.305 A  
HETATM   29  C   UNL     1     -10.898  10.047  69.573  1.00  0.00    -0.283 A  
HETATM   30  C   UNL     1     -11.086  11.189  68.824  1.00  0.00    -0.291 A  
HETATM   31  C   UNL     1     -10.852   8.798  68.968  1.00  0.00    -0.052 A  
HETATM   32  C   UNL     1     -10.968   8.672  67.589  1.00  0.00     0.086 A  
HETATM   33  C   UNL     1     -10.719   7.713  69.986  1.00  0.00    -0.245 C  
HETATM   34  C   UNL     1     -10.614   8.476  71.320  1.00  0.00    -0.296 C  
HETATM   35  C   UNL     1     -11.117   9.830  66.813  1.00  0.00     0.228 A  
HETATM   36  C   UNL     1     -10.752   9.979  71.053  1.00  0.00    -0.101 C  
ENDBRANCH  27  28
ENDBRANCH  19  27
ENDBRANCH  12  14
TORSDOF 3
ENDMDL
MODEL      213
REMARK 921   NORMALIZED FREE ENERGY PREDICTED BY IDOCK:   53.86 KCAL/MOL
REMARK 922        TOTAL FREE ENERGY PREDICTED BY IDOCK:   62.43 KCAL/MOL
REMARK 923 INTER-LIGAND FREE ENERGY PREDICTED BY IDOCK:   35.09 KCAL/MOL
REMARK 924 INTRA-LIGAND FREE ENERGY PREDICTED BY IDOCK:   27.34 KCAL/MOL
REMARK 927      BINDING AFFINITY PREDICTED BY RF-SCORE:    0.00 PKD
ROOT
HETATM    1  C   UNL     1     -11.367  12.369  68.073  1.00  0.00    -0.287 C  
HETATM    2  S   UNL     1     -10.234  12.142  69.503  1.00  0.00     0.931 SA 
HETATM    3  C   UNL     1      -8.689  12.329  68.495  1.00  0.00    -0.071 C  
HETATM    4  C   UNL     1      -7.604  13.012  69.334  1.00  0.00     0.521 C  
HETATM    5  CA  UNL     1      -9.127  13.095  67.221  1.00  0.00    -0.217 C  
HETATM    6  C   UNL     1      -8.178  10.910  68.168  1.00  0.00    -0.121 C  
HETATM    7  N   UNL     1     -10.507  12.673  66.914  1.00  0.00    -0.232 N  
HETATM    8  C   UNL     1      -9.132  14.633  67.333  1.00  0.00    -0.197 C  
HETATM    9  OXT UNL     1      -8.190  15.316  67.705  1.00  0.00    -0.136 OA 
HETATM   10  O   UNL     1     -10.283  15.205  66.887  1.00  0.00    -0.252 OA 
HETATM   11  C   UNL     1     -10.734  11.461  66.308  1.00  0.00    -0.270 C  
HETATM   12  CA  UNL     1     -11.833  11.086  67.344  1.00  0.00     0.388 C  
HETATM   13  O   UNL     1     -10.115  10.935  65.412  1.00  0.00    -0.248 OA 
ENDROOT
BRANCH  12  14
HETATM   14  N   UNL     1     -11.658   9.817  68.093  1.00  0.00    -0.254 N  
HETATM   15  C   UNL     1     -10.437   9.184  68.149  1.00  0.00    -0.211 C  
HETATM   16  H   UNL     1     -12.458   9.405  68.576  1.00  0.00     0.000 HD 
HETATM   17  O   UNL     1      -9.456   9.612  67.545  1.00  0.00    -0.132 OA 
HETATM   18  C   UNL     1     -10.388   7.904  68.961  1.00  0.00    -0.223 C  
HETATM   19  C   UNL     1     -10.574   8.240  70.428  1.00  0.00    -0.224 C  
HETATM   20  C   UNL     1     -11.285   6.777  68.415  1.00  0.00    -0.146 A  
HETATM   21  C   UNL     1     -11.496   6.643  67.029  1.00  0.00     0.261 A  
HETATM   22  O   UNL     1     -11.653   8.354  70.998  1.00  0.00    -0.274 OA 
HETATM   23  C   UNL     1     -12.462   4.651  68.715  1.00  0.00    14.716 A  
HETATM   24  C   UNL     1     -12.197   5.552  66.504  1.00  0.00     4.339 A  
HETATM   25  C   UNL     1     -11.798   5.762  69.243  1.00  0.00     1.768 A  
HETATM   26  C   UNL     1     -12.664   4.548  67.345  1.00  0.00    16.602 A  
BRANCH  19  27
HETATM   27  O   UNL     1      -9.332   8.440  71.023  1.00  0.00    -0.153 OA 
BRANCH  27  28
HETATM   28  C   UNL     1      -8.331   8.810  70.116  1.00  0.00    -0.131 A  
HETATM   29  C   UNL     1      -7.536   9.026  67.874  1.00  0.00    -0.093 A  
HETATM   30  C   UNL     1      -8.503   8.582  68.751  1.00  0.00    -0.123 A  
HETATM   31  C   UNL     1      -6.443   9.754  68.325  1.00  0.00    -0.056 A  
HETATM   32  C   UNL     1      -6.283  10.028  69.678  1.00  0.00    -0.049 A  
HETATM   33  C   UNL     1      -5.581  10.189  67.186  1.00  0.00    -0.045 C  
HETATM   34  C   UNL     1      -6.260   9.561  65.954  1.00  0.00    -0.068 C  
HETATM   35  C   UNL     1      -7.237   9.545  70.585  1.00  0.00    -0.130 A  
HETATM   36  C   UNL     1      -7.533   8.831  66.398  1.00  0.00    -0.087 C  
ENDBRANCH  27  28
ENDBRANCH  19  27
ENDBRANCH  12  14
TORSDOF 3
ENDMDL
MODEL      214
REMARK 921   NORMALIZED FREE ENERGY PREDICTED BY IDOCK:   58.84 KCAL/MOL
REMARK 922        TOTAL FREE ENERGY PREDICTED BY IDOCK:   68.28 KCAL/MOL
REMARK 923 INTER-LIGAND FREE ENERGY PREDICTED BY IDOCK:   55.66 KCAL/MOL
REMARK 924 INTRA-LIGAND FREE ENERGY PREDICTED BY IDOCK:   12.62 KCAL/MOL
REMARK 927      BINDING AFFINITY PREDICTED BY RF-SCORE:    0.00 PKD
ROOT
HETATM    1  C   UNL     1      -9.576  15.299  67.329  1.00  0.00    -0.211 C  
HETATM    2  S   UNL     1      -8.773  16.953  67.324  1.00  0.00    -0.197 SA 
HETATM    3  C   UNL     1      -7.164  16.335  68.010  1.00  0.00    -0.132 C  
HETATM    4  C   UNL     1      -6.006  17.146  67.420  1.00  0.00    -0.169 C  
HETATM    5  CA  UNL     1      -7.145  14.818  67.693  1.00  0.00    -0.184 C  
HETATM    6  C   UNL     1      -7.177  16.608  69.528  1.00  0.00    -0.016 C  
HETATM    7  N   UNL     1      -8.541  14.343  67.764  1.00  0.00    -0.161 N  
HETATM    8  C   UNL     1      -6.599  14.430  66.304  1.00  0.00     4.387 C  
HETATM    9  OXT UNL     1      -5.520  14.779  65.849  1.00  0.00     5.041 OA 
HETATM   10  O   UNL     1      -7.402  13.566  65.627  1.00  0.00     4.005 OA 
HETATM   11  C   UNL     1      -9.127  14.118  68.986  1.00  0.00     0.110 C  
HETATM   12  CA  UNL     1     -10.395  14.927  68.588  1.00  0.00    -0.237 C  
HETATM   13  O   UNL     1      -8.647  13.610  69.974  1.00  0.00     1.805 OA 
ENDROOT
BRANCH  12  14
HETATM   14  N   UNL     1     -10.783  16.060  69.465  1.00  0.00    -0.273 N  
HETATM   15  C   UNL     1      -9.849  16.725  70.226  1.00  0.00     1.245 C  
HETATM   16  H   UNL     1     -11.760  16.351  69.504  1.00  0.00     0.000 HD 
HETATM   17  O   UNL     1      -8.670  16.381  70.252  1.00  0.00     1.287 OA 
HETATM   18  C   UNL     1     -10.372  17.874  71.067  1.00  0.00     2.822 C  
HETATM   19  C   UNL     1     -10.809  19.000  70.149  1.00  0.00     2.417 C  
HETATM   20  C   UNL     1     -11.393  17.455  72.142  1.00  0.00     1.548 A  
HETATM   21  C   UNL     1     -11.286  16.203  72.775  1.00  0.00     0.678 A  
HETATM   22  O   UNL     1     -11.915  19.104  69.631  1.00  0.00     6.173 OA 
HETATM   23  C   UNL     1     -13.168  18.015  73.732  1.00  0.00     5.490 A  
HETATM   24  C   UNL     1     -12.119  15.857  73.844  1.00  0.00    -0.538 A  
HETATM   25  C   UNL     1     -12.363  18.344  72.637  1.00  0.00     7.990 A  
HETATM   26  C   UNL     1     -13.048  16.769  74.334  1.00  0.00     0.736 A  
BRANCH  19  27
HETATM   27  O   UNL     1      -9.748  19.879  69.949  1.00  0.00     0.007 OA 
BRANCH  27  28
HETATM   28  C   UNL     1      -9.154  19.760  68.686  1.00  0.00    -0.216 A  
HETATM   29  C   UNL     1      -9.184  18.931  66.447  1.00  0.00    -0.324 A  
HETATM   30  C   UNL     1      -9.747  18.968  67.705  1.00  0.00    -0.373 A  
HETATM   31  C   UNL     1      -8.086  19.721  66.133  1.00  0.00    -0.357 A  
HETATM   32  C   UNL     1      -7.512  20.550  67.089  1.00  0.00    -0.375 A  
HETATM   33  C   UNL     1      -7.707  19.567  64.697  1.00  0.00     2.050 C  
HETATM   34  C   UNL     1      -8.688  18.502  64.173  1.00  0.00     9.777 C  
HETATM   35  C   UNL     1      -8.050  20.565  68.384  1.00  0.00     0.285 A  
HETATM   36  C   UNL     1      -9.654  18.110  65.297  1.00  0.00     1.571 C  
ENDBRANCH  27  28
ENDBRANCH  19  27
ENDBRANCH  12  14
TORSDOF 3
ENDMDL
MODEL      215
REMARK 921   NORMALIZED FREE ENERGY PREDICTED BY IDOCK:   59.65 KCAL/MOL
REMARK 922        TOTAL FREE ENERGY PREDICTED BY IDOCK:   69.23 KCAL/MOL
REMARK 923 INTER-LIGAND FREE ENERGY PREDICTED BY IDOCK:   67.73 KCAL/MOL
REMARK 924 INTRA-LIGAND FREE ENERGY PREDICTED BY IDOCK:    1.51 KCAL/MOL
REMARK 927      BINDING AFFINITY PREDICTED BY RF-SCORE:    0.00 PKD
ROOT
HETATM    1  C   UNL     1      -9.438  15.550  67.181  1.00  0.00    -0.215 C  
HETATM    2  S   UNL     1      -7.646  15.154  67.079  1.00  0.00     0.033 SA 
HETATM    3  C   UNL     1      -7.585  15.230  65.227  1.00  0.00     7.027 C  
HETATM    4  C   UNL     1      -6.223  15.768  64.777  1.00  0.00    12.493 C  
HETATM    5  CA  UNL     1      -8.809  16.087  64.816  1.00  0.00     4.200 C  
HETATM    6  C   UNL     1      -7.692  13.782  64.705  1.00  0.00    11.835 C  
HETATM    7  N   UNL     1      -9.877  15.815  65.798  1.00  0.00    -0.339 N  
HETATM    8  C   UNL     1      -8.583  17.612  64.796  1.00  0.00     5.086 C  
HETATM    9  OXT UNL     1      -7.684  18.183  64.197  1.00  0.00     5.275 OA 
HETATM   10  O   UNL     1      -9.546  18.312  65.453  1.00  0.00     0.076 OA 
HETATM   11  C   UNL     1     -10.612  14.657  65.709  1.00  0.00    -0.320 C  
HETATM   12  CA  UNL     1     -10.415  14.350  67.221  1.00  0.00    -0.269 C  
HETATM   13  O   UNL     1     -11.045  14.110  64.720  1.00  0.00    -0.358 OA 
ENDROOT
BRANCH  12  14
HETATM   14  N   UNL     1      -9.815  13.040  67.578  1.00  0.00    -0.205 N  
HETATM   15  C   UNL     1     -10.496  12.133  68.358  1.00  0.00    -0.231 C  
HETATM   16  H   UNL     1      -8.880  12.808  67.240  1.00  0.00     0.000 HD 
HETATM   17  O   UNL     1     -11.602  12.385  68.830  1.00  0.00    -0.278 OA 
HETATM   18  C   UNL     1      -9.779  10.826  68.637  1.00  0.00    -0.187 C  
HETATM   19  C   UNL     1      -9.673  10.033  67.347  1.00  0.00    -0.161 C  
HETATM   20  C   UNL     1      -8.470  10.983  69.433  1.00  0.00     0.160 A  
HETATM   21  C   UNL     1      -8.343  11.996  70.401  1.00  0.00     4.728 A  
HETATM   22  O   UNL     1      -8.778  10.146  66.517  1.00  0.00    -0.129 OA 
HETATM   23  C   UNL     1      -6.316  10.102  70.193  1.00  0.00    -0.107 A  
HETATM   24  C   UNL     1      -7.216  12.074  71.227  1.00  0.00     5.569 A  
HETATM   25  C   UNL     1      -7.422  10.049  69.340  1.00  0.00    -0.113 A  
HETATM   26  C   UNL     1      -6.211  11.117  71.135  1.00  0.00     0.689 A  
BRANCH  19  27
HETATM   27  O   UNL     1     -10.771   9.186  67.228  1.00  0.00    -0.262 OA 
BRANCH  27  28
HETATM   28  C   UNL     1     -11.146   8.584  68.436  1.00  0.00     0.367 A  
HETATM   29  C   UNL     1     -12.395   6.942  69.639  1.00  0.00     0.878 A  
HETATM   30  C   UNL     1     -12.101   7.569  68.447  1.00  0.00     2.777 A  
HETATM   31  C   UNL     1     -11.704   7.259  70.801  1.00  0.00    -0.333 A  
HETATM   32  C   UNL     1     -10.718   8.238  70.795  1.00  0.00    -0.244 A  
HETATM   33  C   UNL     1     -12.143   6.397  71.939  1.00  0.00    -0.362 C  
HETATM   34  C   UNL     1     -13.268   5.538  71.332  1.00  0.00     3.208 C  
HETATM   35  C   UNL     1     -10.440   8.913  69.598  1.00  0.00    -0.218 A  
HETATM   36  C   UNL     1     -13.413   5.875  69.844  1.00  0.00     7.659 C  
ENDBRANCH  27  28
ENDBRANCH  19  27
ENDBRANCH  12  14
TORSDOF 3
ENDMDL
MODEL      216
REMARK 921   NORMALIZED FREE ENERGY PREDICTED BY IDOCK:   74.94 KCAL/MOL
REMARK 922        TOTAL FREE ENERGY PREDICTED BY IDOCK:   87.20 KCAL/MOL
REMARK 923 INTER-LIGAND FREE ENERGY PREDICTED BY IDOCK:   75.75 KCAL/MOL
REMARK 924 INTRA-LIGAND FREE ENERGY PREDICTED BY IDOCK:   11.45 KCAL/MOL
REMARK 927      BINDING AFFINITY PREDICTED BY RF-SCORE:    0.00 PKD
ROOT
HETATM    1  C   UNL     1     -11.716  12.377  71.740  1.00  0.00     2.548 C  
HETATM    2  S   UNL     1     -10.164  11.441  72.046  1.00  0.00    12.421 SA 
HETATM    3  C   UNL     1      -9.055  12.789  71.419  1.00  0.00    15.567 C  
HETATM    4  C   UNL     1      -7.745  12.791  72.214  1.00  0.00    12.973 C  
HETATM    5  CA  UNL     1      -9.898  14.086  71.520  1.00  0.00     6.201 C  
HETATM    6  C   UNL     1      -8.695  12.445  69.959  1.00  0.00     3.468 C  
HETATM    7  N   UNL     1     -11.302  13.710  71.265  1.00  0.00     1.228 N  
HETATM    8  C   UNL     1      -9.856  14.808  72.881  1.00  0.00     6.101 C  
HETATM    9  OXT UNL     1      -8.839  15.142  73.471  1.00  0.00     8.121 OA 
HETATM   10  O   UNL     1     -11.087  15.136  73.359  1.00  0.00     0.409 OA 
HETATM   11  C   UNL     1     -11.730  13.488  69.978  1.00  0.00    -0.241 C  
HETATM   12  CA  UNL     1     -12.410  12.148  70.377  1.00  0.00    -0.233 C  
HETATM   13  O   UNL     1     -11.457  14.104  68.973  1.00  0.00    -0.249 OA 
ENDROOT
BRANCH  12  14
HETATM   14  N   UNL     1     -11.997  10.928  69.638  1.00  0.00    -0.327 N  
HETATM   15  C   UNL     1     -10.724  10.417  69.761  1.00  0.00    -0.278 C  
HETATM   16  H   UNL     1     -12.668  10.459  69.029  1.00  0.00     0.000 HD 
HETATM   17  O   UNL     1      -9.866  10.972  70.442  1.00  0.00     1.135 OA 
HETATM   18  C   UNL     1     -10.434   9.158  68.966  1.00  0.00    -0.238 C  
HETATM   19  C   UNL     1     -11.233   8.008  69.551  1.00  0.00     0.152 C  
HETATM   20  C   UNL     1     -10.541   9.337  67.440  1.00  0.00    -0.324 A  
HETATM   21  C   UNL     1     -10.189  10.561  66.841  1.00  0.00    -0.280 A  
HETATM   22  O   UNL     1     -12.387   7.723  69.252  1.00  0.00     1.822 OA 
HETATM   23  C   UNL     1     -10.762   8.395  65.191  1.00  0.00     5.014 A  
HETATM   24  C   UNL     1     -10.152  10.704  65.449  1.00  0.00    -0.356 A  
HETATM   25  C   UNL     1     -10.840   8.265  66.581  1.00  0.00     0.344 A  
HETATM   26  C   UNL     1     -10.421   9.616  64.625  1.00  0.00     1.622 A  
BRANCH  19  27
HETATM   27  O   UNL     1     -10.470   7.350  70.511  1.00  0.00    -0.213 OA 
BRANCH  27  28
HETATM   28  C   UNL     1      -9.135   7.164  70.133  1.00  0.00    -0.152 A  
HETATM   29  C   UNL     1      -7.258   5.732  69.771  1.00  0.00    -0.069 A  
HETATM   30  C   UNL     1      -8.549   5.902  70.223  1.00  0.00    -0.134 A  
HETATM   31  C   UNL     1      -6.569   6.776  69.169  1.00  0.00    -0.048 A  
HETATM   32  C   UNL     1      -7.157   8.028  69.032  1.00  0.00    -0.066 A  
HETATM   33  C   UNL     1      -5.225   6.330  68.695  1.00  0.00    -0.007 C  
HETATM   34  C   UNL     1      -5.144   4.863  69.157  1.00  0.00     0.000 C  
HETATM   35  C   UNL     1      -8.454   8.225  69.525  1.00  0.00    -0.125 A  
HETATM   36  C   UNL     1      -6.465   4.473  69.831  1.00  0.00    -0.032 C  
ENDBRANCH  27  28
ENDBRANCH  19  27
ENDBRANCH  12  14
TORSDOF 3
ENDMDL
MODEL      217
REMARK 921   NORMALIZED FREE ENERGY PREDICTED BY IDOCK:   75.14 KCAL/MOL
REMARK 922        TOTAL FREE ENERGY PREDICTED BY IDOCK:   87.45 KCAL/MOL
REMARK 923 INTER-LIGAND FREE ENERGY PREDICTED BY IDOCK:   77.30 KCAL/MOL
REMARK 924 INTRA-LIGAND FREE ENERGY PREDICTED BY IDOCK:   10.15 KCAL/MOL
REMARK 927      BINDING AFFINITY PREDICTED BY RF-SCORE:    0.00 PKD
ROOT
HETATM    1  C   UNL     1     -11.162  11.551  70.003  1.00  0.00    -0.026 C  
HETATM    2  S   UNL     1      -9.815  11.750  68.768  1.00  0.00    -0.016 SA 
HETATM    3  C   UNL     1      -8.529  12.199  70.026  1.00  0.00     3.123 C  
HETATM    4  C   UNL     1      -7.165  11.659  69.585  1.00  0.00     0.211 C  
HETATM    5  CA  UNL     1      -9.064  11.641  71.369  1.00  0.00    11.773 C  
HETATM    6  C   UNL     1      -8.420  13.738  70.043  1.00  0.00     2.143 C  
HETATM    7  N   UNL     1     -10.536  11.743  71.325  1.00  0.00     4.754 N  
HETATM    8  C   UNL     1      -8.716  10.169  71.670  1.00  0.00     3.659 C  
HETATM    9  OXT UNL     1      -7.591   9.693  71.650  1.00  0.00    -0.067 OA 
HETATM   10  O   UNL     1      -9.787   9.427  72.059  1.00  0.00    -0.079 OA 
HETATM   11  C   UNL     1     -11.146  12.955  71.543  1.00  0.00     4.510 C  
HETATM   12  CA  UNL     1     -12.042  12.793  70.281  1.00  0.00    -0.297 C  
HETATM   13  O   UNL     1     -10.868  13.807  72.356  1.00  0.00     3.947 OA 
ENDROOT
BRANCH  12  14
HETATM   14  N   UNL     1     -11.981  13.869  69.260  1.00  0.00    -0.341 N  
HETATM   15  C   UNL     1     -10.788  14.228  68.673  1.00  0.00    -0.253 C  
HETATM   16  H   UNL     1     -12.838  14.351  68.989  1.00  0.00     0.000 HD 
HETATM   17  O   UNL     1      -9.723  13.713  69.001  1.00  0.00    -0.003 OA 
HETATM   18  C   UNL     1     -10.865  15.331  67.634  1.00  0.00    -0.295 C  
HETATM   19  C   UNL     1     -11.608  14.814  66.417  1.00  0.00    -0.299 C  
HETATM   20  C   UNL     1     -11.348  16.685  68.186  1.00  0.00    -0.095 A  
HETATM   21  C   UNL     1     -11.028  17.073  69.501  1.00  0.00     0.072 A  
HETATM   22  O   UNL     1     -12.825  14.829  66.270  1.00  0.00     0.194 OA 
HETATM   23  C   UNL     1     -12.260  18.930  67.835  1.00  0.00     3.867 A  
HETATM   24  C   UNL     1     -11.341  18.350  69.977  1.00  0.00     3.891 A  
HETATM   25  C   UNL     1     -11.984  17.640  67.373  1.00  0.00     2.426 A  
HETATM   26  C   UNL     1     -11.941  19.284  69.140  1.00  0.00     6.343 A  
BRANCH  19  27
HETATM   27  O   UNL     1     -10.701  14.279  65.507  1.00  0.00    -0.302 OA 
BRANCH  27  28
HETATM   28  C   UNL     1     -11.235  13.246  64.727  1.00  0.00    -0.331 A  
HETATM   29  C   UNL     1     -11.162  10.997  63.925  1.00  0.00     0.175 A  
HETATM   30  C   UNL     1     -10.575  12.022  64.636  1.00  0.00    -0.351 A  
HETATM   31  C   UNL     1     -12.423  11.149  63.364  1.00  0.00     0.972 A  
HETATM   32  C   UNL     1     -13.113  12.350  63.485  1.00  0.00     0.018 A  
HETATM   33  C   UNL     1     -12.878   9.885  62.714  1.00  0.00     9.656 C  
HETATM   34  C   UNL     1     -11.679   8.934  62.887  1.00  0.00    15.230 C  
HETATM   35  C   UNL     1     -12.508  13.413  64.170  1.00  0.00    -0.312 A  
HETATM   36  C   UNL     1     -10.582   9.646  63.687  1.00  0.00     3.398 C  
ENDBRANCH  27  28
ENDBRANCH  19  27
ENDBRANCH  12  14
TORSDOF 3
ENDMDL
MODEL      218
REMARK 921   NORMALIZED FREE ENERGY PREDICTED BY IDOCK:   80.41 KCAL/MOL
REMARK 922        TOTAL FREE ENERGY PREDICTED BY IDOCK:   93.64 KCAL/MOL
REMARK 923 INTER-LIGAND FREE ENERGY PREDICTED BY IDOCK:   83.57 KCAL/MOL
REMARK 924 INTRA-LIGAND FREE ENERGY PREDICTED BY IDOCK:   10.06 KCAL/MOL
REMARK 927      BINDING AFFINITY PREDICTED BY RF-SCORE:    0.00 PKD
ROOT
HETATM    1  C   UNL     1      -9.252   4.446  67.966  1.00  0.00    -0.136 C  
HETATM    2  S   UNL     1      -9.582   5.572  69.381  1.00  0.00    -0.158 SA 
HETATM    3  C   UNL     1     -11.322   5.951  68.863  1.00  0.00     0.153 C  
HETATM    4  C   UNL     1     -12.197   6.154  70.104  1.00  0.00     0.877 C  
HETATM    5  CA  UNL     1     -11.735   4.775  67.942  1.00  0.00     5.977 C  
HETATM    6  C   UNL     1     -11.294   7.295  68.106  1.00  0.00     0.373 C  
HETATM    7  N   UNL     1     -10.521   4.341  67.222  1.00  0.00     0.328 N  
HETATM    8  C   UNL     1     -12.312   3.535  68.655  1.00  0.00    21.467 C  
HETATM    9  OXT UNL     1     -13.240   3.548  69.450  1.00  0.00    23.044 OA 
HETATM   10  O   UNL     1     -11.745   2.366  68.255  1.00  0.00    10.472 OA 
HETATM   11  C   UNL     1     -10.063   5.068  66.150  1.00  0.00    -0.236 C  
HETATM   12  CA  UNL     1      -8.611   5.079  66.708  1.00  0.00    -0.109 C  
HETATM   13  O   UNL     1     -10.698   5.590  65.262  1.00  0.00     0.664 OA 
ENDROOT
BRANCH  12  14
HETATM   14  N   UNL     1      -7.966   6.401  66.906  1.00  0.00    -0.108 N  
HETATM   15  C   UNL     1      -8.577   7.388  67.647  1.00  0.00    -0.119 C  
HETATM   16  H   UNL     1      -7.055   6.583  66.486  1.00  0.00     0.000 HD 
HETATM   17  O   UNL     1      -9.696   7.236  68.131  1.00  0.00    -0.142 OA 
HETATM   18  C   UNL     1      -7.807   8.687  67.787  1.00  0.00    -0.103 C  
HETATM   19  C   UNL     1      -6.577   8.444  68.641  1.00  0.00    -0.055 C  
HETATM   20  C   UNL     1      -7.561   9.421  66.455  1.00  0.00    -0.093 A  
HETATM   21  C   UNL     1      -8.512   9.355  65.420  1.00  0.00    -0.159 A  
HETATM   22  O   UNL     1      -5.493   8.049  68.227  1.00  0.00    -0.031 OA 
HETATM   23  C   UNL     1      -6.355  11.087  65.128  1.00  0.00     0.352 A  
HETATM   24  C   UNL     1      -8.372  10.118  64.256  1.00  0.00    -0.171 A  
HETATM   25  C   UNL     1      -6.473  10.294  66.273  1.00  0.00    -0.095 A  
HETATM   26  C   UNL     1      -7.303  10.997  64.118  1.00  0.00     0.777 A  
BRANCH  19  27
HETATM   27  O   UNL     1      -6.878   8.699  69.976  1.00  0.00    -0.041 OA 
BRANCH  27  28
HETATM   28  C   UNL     1      -7.366   9.992  70.202  1.00  0.00    -0.163 A  
HETATM   29  C   UNL     1      -7.104  12.181  71.123  1.00  0.00     4.529 A  
HETATM   30  C   UNL     1      -6.638  10.891  70.981  1.00  0.00     0.949 A  
HETATM   31  C   UNL     1      -8.239  12.608  70.446  1.00  0.00     4.934 A  
HETATM   32  C   UNL     1      -8.949  11.735  69.630  1.00  0.00     1.472 A  
HETATM   33  C   UNL     1      -8.499  14.057  70.696  1.00  0.00     3.631 C  
HETATM   34  C   UNL     1      -7.396  14.459  71.692  1.00  0.00     3.124 C  
HETATM   35  C   UNL     1      -8.509  10.409  69.511  1.00  0.00    -0.115 A  
HETATM   36  C   UNL     1      -6.484  13.254  71.949  1.00  0.00     2.487 C  
ENDBRANCH  27  28
ENDBRANCH  19  27
ENDBRANCH  12  14
TORSDOF 3
ENDMDL
MODEL      219
REMARK 921   NORMALIZED FREE ENERGY PREDICTED BY IDOCK:   93.31 KCAL/MOL
REMARK 922        TOTAL FREE ENERGY PREDICTED BY IDOCK:  108.80 KCAL/MOL
REMARK 923 INTER-LIGAND FREE ENERGY PREDICTED BY IDOCK:   99.25 KCAL/MOL
REMARK 924 INTRA-LIGAND FREE ENERGY PREDICTED BY IDOCK:    9.55 KCAL/MOL
REMARK 927      BINDING AFFINITY PREDICTED BY RF-SCORE:    0.00 PKD
ROOT
HETATM    1  C   UNL     1     -11.077  11.078  70.565  1.00  0.00     0.287 C  
HETATM    2  S   UNL     1      -9.258  11.229  70.347  1.00  0.00     3.840 SA 
HETATM    3  C   UNL     1      -9.007  12.212  71.900  1.00  0.00    19.216 C  
HETATM    4  C   UNL     1      -7.653  11.857  72.522  1.00  0.00    14.206 C  
HETATM    5  CA  UNL     1     -10.246  11.903  72.779  1.00  0.00    18.740 C  
HETATM    6  C   UNL     1      -8.941  13.699  71.496  1.00  0.00    10.514 C  
HETATM    7  N   UNL     1     -11.387  11.703  71.864  1.00  0.00     3.651 N  
HETATM    8  C   UNL     1     -10.142  10.646  73.665  1.00  0.00    16.245 C  
HETATM    9  OXT UNL     1      -9.234  10.407  74.447  1.00  0.00     9.480 OA 
HETATM   10  O   UNL     1     -11.223   9.826  73.572  1.00  0.00     5.031 OA 
HETATM   11  C   UNL     1     -12.012  12.789  71.300  1.00  0.00     0.649 C  
HETATM   12  CA  UNL     1     -11.953  12.154  69.881  1.00  0.00    -0.309 C  
HETATM   13  O   UNL     1     -12.292  13.850  71.809  1.00  0.00    -0.255 OA 
ENDROOT
BRANCH  12  14
HETATM   14  N   UNL     1     -11.290  12.941  68.810  1.00  0.00    -0.271 N  
HETATM   15  C   UNL     1      -9.940  13.208  68.853  1.00  0.00     0.081 C  
HETATM   16  H   UNL     1     -11.845  13.290  68.028  1.00  0.00     0.000 HD 
HETATM   17  O   UNL     1      -9.239  12.853  69.797  1.00  0.00     1.753 OA 
HETATM   18  C   UNL     1      -9.384  14.008  67.690  1.00  0.00    -0.203 C  
HETATM   19  C   UNL     1      -9.441  13.160  66.434  1.00  0.00    -0.220 C  
HETATM   20  C   UNL     1      -9.967  15.428  67.565  1.00  0.00    -0.226 A  
HETATM   21  C   UNL     1     -10.333  16.151  68.716  1.00  0.00    -0.248 A  
HETATM   22  O   UNL     1     -10.406  13.069  65.683  1.00  0.00    -0.277 OA 
HETATM   23  C   UNL     1     -10.383  17.456  66.259  1.00  0.00    -0.330 A  
HETATM   24  C   UNL     1     -10.740  17.487  68.634  1.00  0.00    -0.201 A  
HETATM   25  C   UNL     1     -10.018  16.109  66.336  1.00  0.00    -0.315 A  
HETATM   26  C   UNL     1     -10.748  18.144  67.409  1.00  0.00    -0.355 A  
BRANCH  19  27
HETATM   27  O   UNL     1      -8.243  12.466  66.283  1.00  0.00     0.174 OA 
BRANCH  27  28
HETATM   28  C   UNL     1      -8.395  11.074  66.325  1.00  0.00    -0.166 A  
HETATM   29  C   UNL     1      -7.843   8.952  67.272  1.00  0.00    -0.096 A  
HETATM   30  C   UNL     1      -7.619  10.310  67.196  1.00  0.00    -0.092 A  
HETATM   31  C   UNL     1      -8.871   8.357  66.553  1.00  0.00    -0.172 A  
HETATM   32  C   UNL     1      -9.682   9.114  65.715  1.00  0.00    -0.299 A  
HETATM   33  C   UNL     1      -8.965   6.898  66.858  1.00  0.00    -0.128 C  
HETATM   34  C   UNL     1      -7.792   6.652  67.825  1.00  0.00    -0.112 C  
HETATM   35  C   UNL     1      -9.437  10.489  65.597  1.00  0.00    -0.259 A  
HETATM   36  C   UNL     1      -7.084   7.981  68.108  1.00  0.00    -0.089 C  
ENDBRANCH  27  28
ENDBRANCH  19  27
ENDBRANCH  12  14
TORSDOF 3
ENDMDL
