MODEL        1
REMARK 921   NORMALIZED FREE ENERGY PREDICTED BY IDOCK:   -5.58 KCAL/MOL
REMARK 922        TOTAL FREE ENERGY PREDICTED BY IDOCK:   -9.46 KCAL/MOL
REMARK 923 INTER-LIGAND FREE ENERGY PREDICTED BY IDOCK:   -8.52 KCAL/MOL
REMARK 924 INTRA-LIGAND FREE ENERGY PREDICTED BY IDOCK:   -0.95 KCAL/MOL
REMARK 927      BINDING AFFINITY PREDICTED BY RF-SCORE:    0.00 PKD
ROOT
HETATM    1  C   UNL     1     -11.540  15.593  70.350  1.00  0.00    -0.368 C  
HETATM    2  C   UNL     1     -11.027  14.822  69.141  1.00  0.00    -0.277 C  
ENDROOT
BRANCH   2   3
HETATM    3  C   UNL     1     -12.145  14.549  68.125  1.00  0.00    -0.232 C  
BRANCH   3   4
HETATM    4  C   UNL     1     -11.719  13.769  66.842  1.00  0.00    -0.424 C  
HETATM    5  C   UNL     1     -11.546  12.269  67.159  1.00  0.00    -0.423 C  
BRANCH   4   6
HETATM    6  C   UNL     1     -10.352  14.344  66.371  1.00  0.00    -0.287 C  
BRANCH   6   7
HETATM    7  O   UNL     1     -10.475  14.957  65.074  1.00  0.00    -0.393 OA 
BRANCH   7   8
HETATM    8  C   UNL     1     -10.704  16.296  65.053  1.00  0.00    -0.298 C  
HETATM    9  H   UNL     1      -9.598  16.285  66.787  1.00  0.00     0.000 HD 
HETATM   10  O   UNL     1     -11.366  16.886  64.212  1.00  0.00    -1.202 OA 
HETATM   11  N   UNL     1     -10.071  16.881  66.107  1.00  0.00    -0.329 N  
BRANCH  11  12
HETATM   12  C   UNL     1     -10.043  18.320  66.299  1.00  0.00    -0.380 C  
HETATM   13  C   UNL     1      -8.613  18.843  66.283  1.00  0.00    -0.267 C  
HETATM   14  C   UNL     1     -10.745  18.705  67.601  1.00  0.00    -0.428 C  
ENDBRANCH  11  12
ENDBRANCH   7   8
ENDBRANCH   6   7
ENDBRANCH   4   6
BRANCH   4  15
HETATM   15  C   UNL     1     -12.763  13.917  65.706  1.00  0.00    -0.461 C  
BRANCH  15  16
HETATM   16  O   UNL     1     -12.936  12.661  65.026  1.00  0.00    -0.812 OA 
BRANCH  16  17
HETATM   17  C   UNL     1     -12.509  12.605  63.744  1.00  0.00    -0.420 C  
HETATM   18  O   UNL     1     -12.235  11.603  63.106  1.00  0.00    -0.369 OA 
HETATM   19  H1  UNL     1     -12.069  13.815  62.280  1.00  0.00     0.000 HD 
HETATM   20  N   UNL     1     -12.391  13.857  63.247  1.00  0.00    -1.148 N  
HETATM   21  H2  UNL     1     -12.592  14.714  63.762  1.00  0.00     0.000 HD 
ENDBRANCH  16  17
ENDBRANCH  15  16
ENDBRANCH   4  15
ENDBRANCH   3   4
ENDBRANCH   2   3
TORSDOF 9
ENDMDL
MODEL        2
REMARK 921   NORMALIZED FREE ENERGY PREDICTED BY IDOCK:   -5.25 KCAL/MOL
REMARK 922        TOTAL FREE ENERGY PREDICTED BY IDOCK:   -8.96 KCAL/MOL
REMARK 923 INTER-LIGAND FREE ENERGY PREDICTED BY IDOCK:   -8.38 KCAL/MOL
REMARK 924 INTRA-LIGAND FREE ENERGY PREDICTED BY IDOCK:   -0.58 KCAL/MOL
REMARK 927      BINDING AFFINITY PREDICTED BY RF-SCORE:    0.00 PKD
ROOT
HETATM    1  C   UNL     1     -12.099  11.840  70.405  1.00  0.00    -0.440 C  
HETATM    2  C   UNL     1     -11.271  12.286  69.207  1.00  0.00    -0.275 C  
ENDROOT
BRANCH   2   3
HETATM    3  C   UNL     1     -11.966  13.408  68.422  1.00  0.00    -0.359 C  
BRANCH   3   4
HETATM    4  C   UNL     1     -11.448  13.640  66.968  1.00  0.00    -0.368 C  
HETATM    5  C   UNL     1     -10.476  12.514  66.559  1.00  0.00    -0.258 C  
BRANCH   4   6
HETATM    6  C   UNL     1     -10.682  14.994  66.951  1.00  0.00    -0.308 C  
BRANCH   6   7
HETATM    7  O   UNL     1     -10.483  15.452  65.600  1.00  0.00    -0.319 OA 
BRANCH   7   8
HETATM    8  C   UNL     1     -10.620  16.786  65.383  1.00  0.00    -0.203 C  
HETATM    9  H   UNL     1      -9.458  16.952  67.072  1.00  0.00     0.000 HD 
HETATM   10  O   UNL     1     -11.268  17.292  64.478  1.00  0.00    -1.083 OA 
HETATM   11  N   UNL     1      -9.912  17.473  66.321  1.00  0.00    -0.315 N  
BRANCH  11  12
HETATM   12  C   UNL     1      -9.778  18.919  66.294  1.00  0.00    -0.344 C  
HETATM   13  C   UNL     1      -8.319  19.332  66.425  1.00  0.00    -0.330 C  
HETATM   14  C   UNL     1     -10.623  19.561  67.394  1.00  0.00    -0.607 C  
ENDBRANCH  11  12
ENDBRANCH   7   8
ENDBRANCH   6   7
ENDBRANCH   4   6
BRANCH   4  15
HETATM   15  C   UNL     1     -12.610  13.687  65.944  1.00  0.00    -0.425 C  
BRANCH  15  16
HETATM   16  O   UNL     1     -12.561  12.533  65.087  1.00  0.00    -0.631 OA 
BRANCH  16  17
HETATM   17  C   UNL     1     -12.463  12.770  63.760  1.00  0.00    -0.383 C  
HETATM   18  O   UNL     1     -12.507  13.855  63.204  1.00  0.00    -0.766 OA 
HETATM   19  H1  UNL     1     -12.260  11.780  62.093  1.00  0.00     0.000 HD 
HETATM   20  N   UNL     1     -12.334  11.601  63.094  1.00  0.00    -0.966 N  
HETATM   21  H2  UNL     1     -12.315  10.678  63.528  1.00  0.00     0.000 HD 
ENDBRANCH  16  17
ENDBRANCH  15  16
ENDBRANCH   4  15
ENDBRANCH   3   4
ENDBRANCH   2   3
TORSDOF 9
ENDMDL
MODEL        3
REMARK 921   NORMALIZED FREE ENERGY PREDICTED BY IDOCK:   -5.05 KCAL/MOL
REMARK 922        TOTAL FREE ENERGY PREDICTED BY IDOCK:   -8.65 KCAL/MOL
REMARK 923 INTER-LIGAND FREE ENERGY PREDICTED BY IDOCK:   -7.67 KCAL/MOL
REMARK 924 INTRA-LIGAND FREE ENERGY PREDICTED BY IDOCK:   -0.98 KCAL/MOL
REMARK 927      BINDING AFFINITY PREDICTED BY RF-SCORE:    0.00 PKD
ROOT
HETATM    1  C   UNL     1      -8.981  11.054  62.856  1.00  0.00    -0.292 C  
HETATM    2  C   UNL     1     -10.301  10.818  63.577  1.00  0.00    -0.231 C  
ENDROOT
BRANCH   2   3
HETATM    3  C   UNL     1     -10.419  11.679  64.842  1.00  0.00    -0.339 C  
BRANCH   3   4
HETATM    4  C   UNL     1     -11.350  12.927  64.729  1.00  0.00    -0.349 C  
HETATM    5  C   UNL     1     -12.129  12.896  63.398  1.00  0.00    -0.610 C  
BRANCH   4   6
HETATM    6  C   UNL     1     -10.446  14.193  64.753  1.00  0.00    -0.408 C  
BRANCH   6   7
HETATM    7  O   UNL     1     -10.935  15.152  65.710  1.00  0.00    -0.336 OA 
BRANCH   7   8
HETATM    8  C   UNL     1     -10.845  16.461  65.360  1.00  0.00    -0.239 C  
HETATM    9  H   UNL     1     -10.141  16.694  67.278  1.00  0.00     0.000 HD 
HETATM   10  O   UNL     1     -11.173  16.928  64.278  1.00  0.00    -1.204 OA 
HETATM   11  N   UNL     1     -10.320  17.172  66.395  1.00  0.00    -0.323 N  
BRANCH  11  12
HETATM   12  C   UNL     1     -10.005  18.587  66.290  1.00  0.00    -0.365 C  
HETATM   13  C   UNL     1      -8.502  18.817  66.376  1.00  0.00    -0.296 C  
HETATM   14  C   UNL     1     -10.737  19.385  67.368  1.00  0.00    -0.594 C  
ENDBRANCH  11  12
ENDBRANCH   7   8
ENDBRANCH   6   7
ENDBRANCH   4   6
BRANCH   4  15
HETATM   15  C   UNL     1     -12.368  12.993  65.896  1.00  0.00    -0.368 C  
BRANCH  15  16
HETATM   16  O   UNL     1     -11.914  12.182  66.994  1.00  0.00    -0.593 OA 
BRANCH  16  17
HETATM   17  C   UNL     1     -11.749  12.810  68.180  1.00  0.00    -0.345 C  
HETATM   18  O   UNL     1     -11.282  12.335  69.202  1.00  0.00    -0.243 OA 
HETATM   19  H1  UNL     1     -12.090  14.550  68.991  1.00  0.00     0.000 HD 
HETATM   20  N   UNL     1     -12.214  14.077  68.096  1.00  0.00    -0.536 N  
HETATM   21  H2  UNL     1     -12.628  14.495  67.263  1.00  0.00     0.000 HD 
ENDBRANCH  16  17
ENDBRANCH  15  16
ENDBRANCH   4  15
ENDBRANCH   3   4
ENDBRANCH   2   3
TORSDOF 9
ENDMDL
MODEL        4
REMARK 921   NORMALIZED FREE ENERGY PREDICTED BY IDOCK:   -4.99 KCAL/MOL
REMARK 922        TOTAL FREE ENERGY PREDICTED BY IDOCK:   -8.57 KCAL/MOL
REMARK 923 INTER-LIGAND FREE ENERGY PREDICTED BY IDOCK:   -7.77 KCAL/MOL
REMARK 924 INTRA-LIGAND FREE ENERGY PREDICTED BY IDOCK:   -0.80 KCAL/MOL
REMARK 927      BINDING AFFINITY PREDICTED BY RF-SCORE:    0.00 PKD
ROOT
HETATM    1  C   UNL     1      -9.282  10.134  63.959  1.00  0.00    -0.315 C  
HETATM    2  C   UNL     1     -10.218  11.316  64.177  1.00  0.00    -0.391 C  
ENDROOT
BRANCH   2   3
HETATM    3  C   UNL     1     -10.716  11.385  65.626  1.00  0.00    -0.301 C  
BRANCH   3   4
HETATM    4  C   UNL     1     -10.494  12.748  66.355  1.00  0.00    -0.265 C  
HETATM    5  C   UNL     1      -9.206  12.701  67.200  1.00  0.00    -0.214 C  
BRANCH   4   6
HETATM    6  C   UNL     1     -11.708  12.980  67.301  1.00  0.00    -0.375 C  
BRANCH   6   7
HETATM    7  O   UNL     1     -11.267  13.423  68.599  1.00  0.00    -0.240 OA 
BRANCH   7   8
HETATM    8  C   UNL     1     -11.874  14.527  69.104  1.00  0.00    -0.319 C  
HETATM    9  H   UNL     1     -12.408  13.260  70.633  1.00  0.00     0.000 HD 
HETATM   10  O   UNL     1     -11.903  15.625  68.567  1.00  0.00    -0.355 OA 
HETATM   11  N   UNL     1     -12.436  14.226  70.307  1.00  0.00    -0.356 N  
BRANCH  11  12
HETATM   12  C   UNL     1     -13.072  15.229  71.144  1.00  0.00    -0.479 C  
HETATM   13  C   UNL     1     -12.076  15.823  72.131  1.00  0.00    -0.570 C  
HETATM   14  C   UNL     1     -14.274  14.637  71.878  1.00  0.00    -0.628 C  
ENDBRANCH  11  12
ENDBRANCH   7   8
ENDBRANCH   6   7
ENDBRANCH   4   6
BRANCH   4  15
HETATM   15  C   UNL     1     -10.386  13.926  65.353  1.00  0.00    -0.348 C  
BRANCH  15  16
HETATM   16  O   UNL     1     -11.553  14.761  65.443  1.00  0.00    -0.343 OA 
BRANCH  16  17
HETATM   17  C   UNL     1     -12.065  15.210  64.275  1.00  0.00    -0.261 C  
HETATM   18  O   UNL     1     -12.171  16.372  63.920  1.00  0.00    -0.902 OA 
HETATM   19  H1  UNL     1     -12.877  14.504  62.649  1.00  0.00     0.000 HD 
HETATM   20  N   UNL     1     -12.492  14.165  63.530  1.00  0.00    -1.106 N  
HETATM   21  H2  UNL     1     -12.436  13.185  63.808  1.00  0.00     0.000 HD 
ENDBRANCH  16  17
ENDBRANCH  15  16
ENDBRANCH   4  15
ENDBRANCH   3   4
ENDBRANCH   2   3
TORSDOF 9
ENDMDL
MODEL        5
REMARK 921   NORMALIZED FREE ENERGY PREDICTED BY IDOCK:   -4.90 KCAL/MOL
REMARK 922        TOTAL FREE ENERGY PREDICTED BY IDOCK:   -8.42 KCAL/MOL
REMARK 923 INTER-LIGAND FREE ENERGY PREDICTED BY IDOCK:   -7.69 KCAL/MOL
REMARK 924 INTRA-LIGAND FREE ENERGY PREDICTED BY IDOCK:   -0.73 KCAL/MOL
REMARK 927      BINDING AFFINITY PREDICTED BY RF-SCORE:    0.00 PKD
ROOT
HETATM    1  C   UNL     1      -9.979  20.364  67.485  1.00  0.00    -0.537 C  
HETATM    2  C   UNL     1      -9.418  18.972  67.742  1.00  0.00    -0.353 C  
ENDROOT
BRANCH   2   3
HETATM    3  C   UNL     1     -10.489  17.887  67.566  1.00  0.00    -0.398 C  
BRANCH   3   4
HETATM    4  C   UNL     1      -9.998  16.416  67.740  1.00  0.00    -0.248 C  
HETATM    5  C   UNL     1      -8.815  16.358  68.727  1.00  0.00    -0.246 C  
BRANCH   4   6
HETATM    6  C   UNL     1      -9.517  15.911  66.349  1.00  0.00    -0.295 C  
BRANCH   6   7
HETATM    7  O   UNL     1     -10.202  16.605  65.288  1.00  0.00    -0.600 OA 
BRANCH   7   8
HETATM    8  C   UNL     1     -11.078  15.875  64.551  1.00  0.00    -0.269 C  
HETATM    9  H   UNL     1     -10.040  14.272  65.316  1.00  0.00     0.000 HD 
HETATM   10  O   UNL     1     -11.953  16.336  63.833  1.00  0.00    -1.003 OA 
HETATM   11  N   UNL     1     -10.839  14.548  64.745  1.00  0.00    -0.406 N  
BRANCH  11  12
HETATM   12  C   UNL     1     -11.679  13.512  64.170  1.00  0.00    -0.411 C  
HETATM   13  C   UNL     1     -12.652  12.964  65.205  1.00  0.00    -0.502 C  
HETATM   14  C   UNL     1     -10.826  12.389  63.582  1.00  0.00    -0.509 C  
ENDBRANCH  11  12
ENDBRANCH   7   8
ENDBRANCH   6   7
ENDBRANCH   4   6
BRANCH   4  15
HETATM   15  C   UNL     1     -11.127  15.491  68.265  1.00  0.00    -0.322 C  
BRANCH  15  16
HETATM   16  O   UNL     1     -11.845  16.143  69.327  1.00  0.00    -0.298 OA 
BRANCH  16  17
HETATM   17  C   UNL     1     -11.956  15.459  70.488  1.00  0.00    -0.357 C  
HETATM   18  O   UNL     1     -12.292  14.295  70.624  1.00  0.00    -0.314 OA 
HETATM   19  H1  UNL     1     -11.747  15.758  72.404  1.00  0.00     0.000 HD 
HETATM   20  N   UNL     1     -11.663  16.273  71.528  1.00  0.00    -0.623 N  
HETATM   21  H2  UNL     1     -11.400  17.255  71.448  1.00  0.00     0.000 HD 
ENDBRANCH  16  17
ENDBRANCH  15  16
ENDBRANCH   4  15
ENDBRANCH   3   4
ENDBRANCH   2   3
TORSDOF 9
ENDMDL
MODEL        6
REMARK 921   NORMALIZED FREE ENERGY PREDICTED BY IDOCK:   -4.88 KCAL/MOL
REMARK 922        TOTAL FREE ENERGY PREDICTED BY IDOCK:   -8.40 KCAL/MOL
REMARK 923 INTER-LIGAND FREE ENERGY PREDICTED BY IDOCK:   -7.81 KCAL/MOL
REMARK 924 INTRA-LIGAND FREE ENERGY PREDICTED BY IDOCK:   -0.59 KCAL/MOL
REMARK 927      BINDING AFFINITY PREDICTED BY RF-SCORE:    0.00 PKD
ROOT
HETATM    1  C   UNL     1      -9.243  10.338  67.517  1.00  0.00    -0.153 C  
HETATM    2  C   UNL     1     -10.095  10.824  66.352  1.00  0.00    -0.278 C  
ENDROOT
BRANCH   2   3
HETATM    3  C   UNL     1     -11.374  11.520  66.836  1.00  0.00    -0.324 C  
BRANCH   3   4
HETATM    4  C   UNL     1     -11.329  13.081  66.858  1.00  0.00    -0.352 C  
HETATM    5  C   UNL     1      -9.919  13.582  66.488  1.00  0.00    -0.287 C  
BRANCH   4   6
HETATM    6  C   UNL     1     -11.663  13.542  68.306  1.00  0.00    -0.359 C  
BRANCH   6   7
HETATM    7  O   UNL     1     -11.679  12.421  69.209  1.00  0.00    -0.295 OA 
BRANCH   7   8
HETATM    8  C   UNL     1     -12.263  12.622  70.419  1.00  0.00    -0.288 C  
HETATM    9  H   UNL     1     -11.741  14.584  70.092  1.00  0.00     0.000 HD 
HETATM   10  O   UNL     1     -12.751  11.749  71.122  1.00  0.00    -0.378 OA 
HETATM   11  N   UNL     1     -12.232  13.949  70.721  1.00  0.00    -0.358 N  
BRANCH  11  12
HETATM   12  C   UNL     1     -12.872  14.493  71.907  1.00  0.00    -0.338 C  
HETATM   13  C   UNL     1     -14.285  14.966  71.593  1.00  0.00    -0.633 C  
HETATM   14  C   UNL     1     -12.039  15.632  72.496  1.00  0.00    -0.563 C  
ENDBRANCH  11  12
ENDBRANCH   7   8
ENDBRANCH   6   7
ENDBRANCH   4   6
BRANCH   4  15
HETATM   15  C   UNL     1     -12.349  13.699  65.868  1.00  0.00    -0.471 C  
BRANCH  15  16
HETATM   16  O   UNL     1     -12.879  12.680  65.003  1.00  0.00    -0.765 OA 
BRANCH  16  17
HETATM   17  C   UNL     1     -12.327  12.587  63.772  1.00  0.00    -0.502 C  
HETATM   18  O   UNL     1     -11.831  11.595  63.265  1.00  0.00    -0.359 OA 
HETATM   19  H1  UNL     1     -11.952  13.721  62.231  1.00  0.00     0.000 HD 
HETATM   20  N   UNL     1     -12.368  13.792  63.160  1.00  0.00    -1.106 N  
HETATM   21  H2  UNL     1     -12.757  14.643  63.565  1.00  0.00     0.000 HD 
ENDBRANCH  16  17
ENDBRANCH  15  16
ENDBRANCH   4  15
ENDBRANCH   3   4
ENDBRANCH   2   3
TORSDOF 9
ENDMDL
MODEL        7
REMARK 921   NORMALIZED FREE ENERGY PREDICTED BY IDOCK:   -4.88 KCAL/MOL
REMARK 922        TOTAL FREE ENERGY PREDICTED BY IDOCK:   -8.39 KCAL/MOL
REMARK 923 INTER-LIGAND FREE ENERGY PREDICTED BY IDOCK:   -7.33 KCAL/MOL
REMARK 924 INTRA-LIGAND FREE ENERGY PREDICTED BY IDOCK:   -1.06 KCAL/MOL
REMARK 927      BINDING AFFINITY PREDICTED BY RF-SCORE:    0.00 PKD
ROOT
HETATM    1  C   UNL     1     -11.539  15.691  71.327  1.00  0.00    -0.485 C  
HETATM    2  C   UNL     1     -11.808  15.544  69.835  1.00  0.00    -0.380 C  
ENDROOT
BRANCH   2   3
HETATM    3  C   UNL     1     -12.032  14.079  69.439  1.00  0.00    -0.390 C  
BRANCH   3   4
HETATM    4  C   UNL     1     -11.349  13.622  68.112  1.00  0.00    -0.321 C  
HETATM    5  C   UNL     1     -10.841  12.172  68.241  1.00  0.00    -0.256 C  
BRANCH   4   6
HETATM    6  C   UNL     1     -10.133  14.560  67.861  1.00  0.00    -0.227 C  
BRANCH   6   7
HETATM    7  O   UNL     1     -10.221  15.176  66.562  1.00  0.00    -0.262 OA 
BRANCH   7   8
HETATM    8  C   UNL     1      -9.586  16.366  66.408  1.00  0.00    -0.288 C  
HETATM    9  H   UNL     1     -11.187  17.103  67.467  1.00  0.00     0.000 HD 
HETATM   10  O   UNL     1      -8.538  16.534  65.802  1.00  0.00    -0.442 OA 
HETATM   11  N   UNL     1     -10.290  17.342  67.046  1.00  0.00    -0.324 N  
BRANCH  11  12
HETATM   12  C   UNL     1      -9.810  18.709  67.148  1.00  0.00    -0.314 C  
HETATM   13  C   UNL     1      -9.980  19.239  68.566  1.00  0.00    -0.513 C  
HETATM   14  C   UNL     1     -10.528  19.610  66.144  1.00  0.00    -0.624 C  
ENDBRANCH  11  12
ENDBRANCH   7   8
ENDBRANCH   6   7
ENDBRANCH   4   6
BRANCH   4  15
HETATM   15  C   UNL     1     -12.322  13.701  66.908  1.00  0.00    -0.262 C  
BRANCH  15  16
HETATM   16  O   UNL     1     -12.241  12.494  66.128  1.00  0.00    -0.609 OA 
BRANCH  16  17
HETATM   17  C   UNL     1     -12.381  12.631  64.791  1.00  0.00    -0.489 C  
HETATM   18  O   UNL     1     -13.269  12.165  64.095  1.00  0.00    -0.740 OA 
HETATM   19  H1  UNL     1     -11.458  13.456  63.284  1.00  0.00     0.000 HD 
HETATM   20  N   UNL     1     -11.352  13.354  64.293  1.00  0.00    -0.406 N  
HETATM   21  H2  UNL     1     -10.585  13.738  64.845  1.00  0.00     0.000 HD 
ENDBRANCH  16  17
ENDBRANCH  15  16
ENDBRANCH   4  15
ENDBRANCH   3   4
ENDBRANCH   2   3
TORSDOF 9
ENDMDL
MODEL        8
REMARK 921   NORMALIZED FREE ENERGY PREDICTED BY IDOCK:   -4.88 KCAL/MOL
REMARK 922        TOTAL FREE ENERGY PREDICTED BY IDOCK:   -8.39 KCAL/MOL
REMARK 923 INTER-LIGAND FREE ENERGY PREDICTED BY IDOCK:   -7.65 KCAL/MOL
REMARK 924 INTRA-LIGAND FREE ENERGY PREDICTED BY IDOCK:   -0.74 KCAL/MOL
REMARK 927      BINDING AFFINITY PREDICTED BY RF-SCORE:    0.00 PKD
ROOT
HETATM    1  C   UNL     1     -10.287   9.076  66.929  1.00  0.00    -0.324 C  
HETATM    2  C   UNL     1     -10.073  10.582  66.861  1.00  0.00    -0.265 C  
ENDROOT
BRANCH   2   3
HETATM    3  C   UNL     1     -11.375  11.352  67.123  1.00  0.00    -0.327 C  
BRANCH   3   4
HETATM    4  C   UNL     1     -11.283  12.905  66.992  1.00  0.00    -0.329 C  
HETATM    5  C   UNL     1      -9.858  13.324  66.576  1.00  0.00    -0.281 C  
BRANCH   4   6
HETATM    6  C   UNL     1     -11.600  13.517  68.387  1.00  0.00    -0.343 C  
BRANCH   6   7
HETATM    7  O   UNL     1     -12.161  14.836  68.251  1.00  0.00    -0.258 OA 
BRANCH   7   8
HETATM    8  C   UNL     1     -11.510  15.842  68.890  1.00  0.00    -0.386 C  
HETATM    9  H   UNL     1     -10.921  16.366  66.990  1.00  0.00     0.000 HD 
HETATM   10  O   UNL     1     -11.490  16.015  70.100  1.00  0.00    -0.330 OA 
HETATM   11  N   UNL     1     -10.894  16.638  67.973  1.00  0.00    -0.350 N  
BRANCH  11  12
HETATM   12  C   UNL     1     -10.200  17.860  68.341  1.00  0.00    -0.394 C  
HETATM   13  C   UNL     1     -10.728  19.046  67.546  1.00  0.00    -0.532 C  
HETATM   14  C   UNL     1      -8.692  17.705  68.144  1.00  0.00    -0.265 C  
ENDBRANCH  11  12
ENDBRANCH   7   8
ENDBRANCH   6   7
ENDBRANCH   4   6
BRANCH   4  15
HETATM   15  C   UNL     1     -12.285  13.454  65.944  1.00  0.00    -0.450 C  
BRANCH  15  16
HETATM   16  O   UNL     1     -12.662  12.412  65.028  1.00  0.00    -0.631 OA 
BRANCH  16  17
HETATM   17  C   UNL     1     -12.410  12.640  63.719  1.00  0.00    -0.478 C  
HETATM   18  O   UNL     1     -12.573  13.685  63.112  1.00  0.00    -0.792 OA 
HETATM   19  H1  UNL     1     -11.772  11.677  62.148  1.00  0.00     0.000 HD 
HETATM   20  N   UNL     1     -11.962  11.505  63.135  1.00  0.00    -0.917 N  
HETATM   21  H2  UNL     1     -11.835  10.612  63.610  1.00  0.00     0.000 HD 
ENDBRANCH  16  17
ENDBRANCH  15  16
ENDBRANCH   4  15
ENDBRANCH   3   4
ENDBRANCH   2   3
TORSDOF 9
ENDMDL
MODEL        9
REMARK 921   NORMALIZED FREE ENERGY PREDICTED BY IDOCK:   -4.86 KCAL/MOL
REMARK 922        TOTAL FREE ENERGY PREDICTED BY IDOCK:   -8.37 KCAL/MOL
REMARK 923 INTER-LIGAND FREE ENERGY PREDICTED BY IDOCK:   -7.71 KCAL/MOL
REMARK 924 INTRA-LIGAND FREE ENERGY PREDICTED BY IDOCK:   -0.65 KCAL/MOL
REMARK 927      BINDING AFFINITY PREDICTED BY RF-SCORE:    0.00 PKD
ROOT
HETATM    1  C   UNL     1     -13.412  14.806  71.361  1.00  0.00    -0.477 C  
HETATM    2  C   UNL     1     -12.356  15.046  70.290  1.00  0.00    -0.392 C  
ENDROOT
BRANCH   2   3
HETATM    3  C   UNL     1     -12.116  13.792  69.439  1.00  0.00    -0.377 C  
BRANCH   3   4
HETATM    4  C   UNL     1     -11.391  14.025  68.076  1.00  0.00    -0.320 C  
HETATM    5  C   UNL     1      -9.900  13.651  68.191  1.00  0.00    -0.236 C  
BRANCH   4   6
HETATM    6  C   UNL     1     -11.504  15.539  67.735  1.00  0.00    -0.243 C  
BRANCH   6   7
HETATM    7  O   UNL     1     -10.206  16.100  67.462  1.00  0.00    -0.255 OA 
BRANCH   7   8
HETATM    8  C   UNL     1     -10.162  17.128  66.576  1.00  0.00    -0.322 C  
HETATM    9  H   UNL     1      -9.406  18.178  68.174  1.00  0.00     0.000 HD 
HETATM   10  O   UNL     1     -10.535  17.075  65.412  1.00  0.00    -0.619 OA 
HETATM   11  N   UNL     1      -9.625  18.224  67.179  1.00  0.00    -0.274 N  
BRANCH  11  12
HETATM   12  C   UNL     1      -9.352  19.456  66.458  1.00  0.00    -0.359 C  
HETATM   13  C   UNL     1      -7.859  19.617  66.204  1.00  0.00    -0.340 C  
HETATM   14  C   UNL     1      -9.904  20.661  67.219  1.00  0.00    -0.529 C  
ENDBRANCH  11  12
ENDBRANCH   7   8
ENDBRANCH   6   7
ENDBRANCH   4   6
BRANCH   4  15
HETATM   15  C   UNL     1     -12.025  13.188  66.936  1.00  0.00    -0.362 C  
BRANCH  15  16
HETATM   16  O   UNL     1     -12.550  14.058  65.918  1.00  0.00    -0.488 OA 
BRANCH  16  17
HETATM   17  C   UNL     1     -12.774  13.502  64.706  1.00  0.00    -0.230 C  
HETATM   18  O   UNL     1     -13.182  12.374  64.481  1.00  0.00    -0.834 OA 
HETATM   19  H1  UNL     1     -12.616  13.960  62.817  1.00  0.00     0.000 HD 
HETATM   20  N   UNL     1     -12.447  14.380  63.731  1.00  0.00    -1.058 N  
HETATM   21  H2  UNL     1     -12.085  15.320  63.887  1.00  0.00     0.000 HD 
ENDBRANCH  16  17
ENDBRANCH  15  16
ENDBRANCH   4  15
ENDBRANCH   3   4
ENDBRANCH   2   3
TORSDOF 9
ENDMDL
MODEL       10
REMARK 921   NORMALIZED FREE ENERGY PREDICTED BY IDOCK:   -4.85 KCAL/MOL
REMARK 922        TOTAL FREE ENERGY PREDICTED BY IDOCK:   -8.36 KCAL/MOL
REMARK 923 INTER-LIGAND FREE ENERGY PREDICTED BY IDOCK:   -7.45 KCAL/MOL
REMARK 924 INTRA-LIGAND FREE ENERGY PREDICTED BY IDOCK:   -0.90 KCAL/MOL
REMARK 927      BINDING AFFINITY PREDICTED BY RF-SCORE:    0.00 PKD
ROOT
HETATM    1  C   UNL     1     -11.303  10.480  70.548  1.00  0.00    -0.400 C  
HETATM    2  C   UNL     1     -12.040  11.167  69.406  1.00  0.00    -0.396 C  
ENDROOT
BRANCH   2   3
HETATM    3  C   UNL     1     -11.279  11.035  68.079  1.00  0.00    -0.372 C  
BRANCH   3   4
HETATM    4  C   UNL     1     -11.058  12.363  67.289  1.00  0.00    -0.329 C  
HETATM    5  C   UNL     1      -9.606  12.854  67.462  1.00  0.00    -0.200 C  
BRANCH   4   6
HETATM    6  C   UNL     1     -12.023  13.431  67.881  1.00  0.00    -0.323 C  
BRANCH   6   7
HETATM    7  O   UNL     1     -11.433  14.743  67.819  1.00  0.00    -0.319 OA 
BRANCH   7   8
HETATM    8  C   UNL     1     -11.645  15.556  68.885  1.00  0.00    -0.373 C  
HETATM    9  H   UNL     1     -12.862  14.027  69.525  1.00  0.00     0.000 HD 
HETATM   10  O   UNL     1     -11.165  16.671  69.031  1.00  0.00    -0.271 OA 
HETATM   11  N   UNL     1     -12.465  14.932  69.775  1.00  0.00    -0.234 N  
BRANCH  11  12
HETATM   12  C   UNL     1     -12.796  15.508  71.067  1.00  0.00    -0.482 C  
HETATM   13  C   UNL     1     -11.775  15.101  72.121  1.00  0.00    -0.502 C  
HETATM   14  C   UNL     1     -14.206  15.101  71.495  1.00  0.00    -0.647 C  
ENDBRANCH  11  12
ENDBRANCH   7   8
ENDBRANCH   6   7
ENDBRANCH   4   6
BRANCH   4  15
HETATM   15  C   UNL     1     -11.344  12.187  65.776  1.00  0.00    -0.354 C  
BRANCH  15  16
HETATM   16  O   UNL     1     -12.398  13.075  65.366  1.00  0.00    -0.444 OA 
BRANCH  16  17
HETATM   17  C   UNL     1     -12.170  13.807  64.252  1.00  0.00    -0.400 C  
HETATM   18  O   UNL     1     -12.658  13.631  63.147  1.00  0.00    -0.792 OA 
HETATM   19  H1  UNL     1     -11.100  15.333  63.679  1.00  0.00     0.000 HD 
HETATM   20  N   UNL     1     -11.272  14.782  64.519  1.00  0.00    -0.617 N  
HETATM   21  H2  UNL     1     -10.832  14.940  65.425  1.00  0.00     0.000 HD 
ENDBRANCH  16  17
ENDBRANCH  15  16
ENDBRANCH   4  15
ENDBRANCH   3   4
ENDBRANCH   2   3
TORSDOF 9
ENDMDL
MODEL       11
REMARK 921   NORMALIZED FREE ENERGY PREDICTED BY IDOCK:   -4.79 KCAL/MOL
REMARK 922        TOTAL FREE ENERGY PREDICTED BY IDOCK:   -8.26 KCAL/MOL
REMARK 923 INTER-LIGAND FREE ENERGY PREDICTED BY IDOCK:   -7.79 KCAL/MOL
REMARK 924 INTRA-LIGAND FREE ENERGY PREDICTED BY IDOCK:   -0.47 KCAL/MOL
REMARK 927      BINDING AFFINITY PREDICTED BY RF-SCORE:    0.00 PKD
ROOT
HETATM    1  C   UNL     1     -11.727  10.829  69.677  1.00  0.00    -0.395 C  
HETATM    2  C   UNL     1     -11.595  11.407  68.274  1.00  0.00    -0.376 C  
ENDROOT
BRANCH   2   3
HETATM    3  C   UNL     1     -12.013  12.882  68.226  1.00  0.00    -0.297 C  
BRANCH   3   4
HETATM    4  C   UNL     1     -11.483  13.698  67.006  1.00  0.00    -0.368 C  
HETATM    5  C   UNL     1     -10.196  13.057  66.450  1.00  0.00    -0.283 C  
BRANCH   4   6
HETATM    6  C   UNL     1     -11.153  15.135  67.506  1.00  0.00    -0.319 C  
BRANCH   6   7
HETATM    7  O   UNL     1      -9.743  15.404  67.393  1.00  0.00    -0.214 OA 
BRANCH   7   8
HETATM    8  C   UNL     1      -9.394  16.603  66.859  1.00  0.00    -0.231 C  
HETATM    9  H   UNL     1     -10.761  17.346  68.204  1.00  0.00     0.000 HD 
HETATM   10  O   UNL     1      -8.591  16.765  65.951  1.00  0.00    -0.500 OA 
HETATM   11  N   UNL     1     -10.064  17.598  67.502  1.00  0.00    -0.323 N  
BRANCH  11  12
HETATM   12  C   UNL     1      -9.826  19.004  67.225  1.00  0.00    -0.326 C  
HETATM   13  C   UNL     1     -10.231  19.868  68.413  1.00  0.00    -0.557 C  
HETATM   14  C   UNL     1     -10.568  19.440  65.962  1.00  0.00    -0.573 C  
ENDBRANCH  11  12
ENDBRANCH   7   8
ENDBRANCH   6   7
ENDBRANCH   4   6
BRANCH   4  15
HETATM   15  C   UNL     1     -12.531  13.774  65.865  1.00  0.00    -0.468 C  
BRANCH  15  16
HETATM   16  O   UNL     1     -12.541  12.543  65.122  1.00  0.00    -0.631 OA 
BRANCH  16  17
HETATM   17  C   UNL     1     -12.481  12.651  63.776  1.00  0.00    -0.420 C  
HETATM   18  O   UNL     1     -12.590  11.748  62.962  1.00  0.00    -0.413 OA 
HETATM   19  H1  UNL     1     -12.200  14.018  62.414  1.00  0.00     0.000 HD 
HETATM   20  N   UNL     1     -12.245  13.937  63.429  1.00  0.00    -1.102 N  
HETATM   21  H2  UNL     1     -12.129  14.709  64.086  1.00  0.00     0.000 HD 
ENDBRANCH  16  17
ENDBRANCH  15  16
ENDBRANCH   4  15
ENDBRANCH   3   4
ENDBRANCH   2   3
TORSDOF 9
ENDMDL
MODEL       12
REMARK 921   NORMALIZED FREE ENERGY PREDICTED BY IDOCK:   -4.74 KCAL/MOL
REMARK 922        TOTAL FREE ENERGY PREDICTED BY IDOCK:   -8.17 KCAL/MOL
REMARK 923 INTER-LIGAND FREE ENERGY PREDICTED BY IDOCK:   -7.66 KCAL/MOL
REMARK 924 INTRA-LIGAND FREE ENERGY PREDICTED BY IDOCK:   -0.51 KCAL/MOL
REMARK 927      BINDING AFFINITY PREDICTED BY RF-SCORE:    0.00 PKD
ROOT
HETATM    1  C   UNL     1      -6.727  13.669  67.775  1.00  0.00    -0.177 C  
HETATM    2  C   UNL     1      -8.052  14.242  67.290  1.00  0.00    -0.199 C  
ENDROOT
BRANCH   2   3
HETATM    3  C   UNL     1      -9.152  13.173  67.249  1.00  0.00    -0.217 C  
BRANCH   3   4
HETATM    4  C   UNL     1     -10.336  13.455  66.272  1.00  0.00    -0.291 C  
HETATM    5  C   UNL     1     -10.099  14.774  65.508  1.00  0.00    -0.409 C  
BRANCH   4   6
HETATM    6  C   UNL     1     -11.629  13.596  67.126  1.00  0.00    -0.361 C  
BRANCH   6   7
HETATM    7  O   UNL     1     -11.306  13.775  68.518  1.00  0.00    -0.251 OA 
BRANCH   7   8
HETATM    8  C   UNL     1     -11.825  14.873  69.126  1.00  0.00    -0.307 C  
HETATM    9  H   UNL     1     -12.689  13.492  70.382  1.00  0.00     0.000 HD 
HETATM   10  O   UNL     1     -11.652  16.028  68.766  1.00  0.00    -0.377 OA 
HETATM   11  N   UNL     1     -12.556  14.489  70.208  1.00  0.00    -0.343 N  
BRANCH  11  12
HETATM   12  C   UNL     1     -13.155  15.444  71.124  1.00  0.00    -0.498 C  
HETATM   13  C   UNL     1     -12.134  15.933  72.143  1.00  0.00    -0.596 C  
HETATM   14  C   UNL     1     -14.368  14.834  71.825  1.00  0.00    -0.656 C  
ENDBRANCH  11  12
ENDBRANCH   7   8
ENDBRANCH   6   7
ENDBRANCH   4   6
BRANCH   4  15
HETATM   15  C   UNL     1     -10.517  12.312  65.241  1.00  0.00    -0.282 C  
BRANCH  15  16
HETATM   16  O   UNL     1     -10.711  12.860  63.925  1.00  0.00    -0.406 OA 
BRANCH  16  17
HETATM   17  C   UNL     1     -11.977  12.855  63.451  1.00  0.00    -0.537 C  
HETATM   18  O   UNL     1     -12.743  13.802  63.397  1.00  0.00    -0.795 OA 
HETATM   19  H1  UNL     1     -13.268  11.603  62.697  1.00  0.00     0.000 HD 
HETATM   20  N   UNL     1     -12.314  11.606  63.054  1.00  0.00    -0.956 N  
HETATM   21  H2  UNL     1     -11.703  10.791  63.106  1.00  0.00     0.000 HD 
ENDBRANCH  16  17
ENDBRANCH  15  16
ENDBRANCH   4  15
ENDBRANCH   3   4
ENDBRANCH   2   3
TORSDOF 9
ENDMDL
MODEL       13
REMARK 921   NORMALIZED FREE ENERGY PREDICTED BY IDOCK:   -4.73 KCAL/MOL
REMARK 922        TOTAL FREE ENERGY PREDICTED BY IDOCK:   -8.16 KCAL/MOL
REMARK 923 INTER-LIGAND FREE ENERGY PREDICTED BY IDOCK:   -7.55 KCAL/MOL
REMARK 924 INTRA-LIGAND FREE ENERGY PREDICTED BY IDOCK:   -0.61 KCAL/MOL
REMARK 927      BINDING AFFINITY PREDICTED BY RF-SCORE:    0.00 PKD
ROOT
HETATM    1  C   UNL     1     -11.991  11.315  69.807  1.00  0.00    -0.431 C  
HETATM    2  C   UNL     1     -11.706  11.671  68.354  1.00  0.00    -0.374 C  
ENDROOT
BRANCH   2   3
HETATM    3  C   UNL     1     -11.919  13.167  68.084  1.00  0.00    -0.333 C  
BRANCH   3   4
HETATM    4  C   UNL     1     -10.784  13.879  67.284  1.00  0.00    -0.286 C  
HETATM    5  C   UNL     1      -9.421  13.224  67.587  1.00  0.00    -0.211 C  
BRANCH   4   6
HETATM    6  C   UNL     1     -10.741  15.364  67.746  1.00  0.00    -0.289 C  
BRANCH   6   7
HETATM    7  O   UNL     1      -9.489  15.663  68.394  1.00  0.00    -0.191 OA 
BRANCH   7   8
HETATM    8  C   UNL     1      -9.028  16.934  68.270  1.00  0.00    -0.235 C  
HETATM    9  H   UNL     1     -10.714  17.195  67.122  1.00  0.00     0.000 HD 
HETATM   10  O   UNL     1      -7.990  17.359  68.755  1.00  0.00    -0.270 OA 
HETATM   11  N   UNL     1      -9.909  17.666  67.534  1.00  0.00    -0.290 N  
BRANCH  11  12
HETATM   12  C   UNL     1      -9.744  19.092  67.313  1.00  0.00    -0.319 C  
HETATM   13  C   UNL     1     -10.199  19.887  68.530  1.00  0.00    -0.529 C  
HETATM   14  C   UNL     1     -10.502  19.537  66.063  1.00  0.00    -0.611 C  
ENDBRANCH  11  12
ENDBRANCH   7   8
ENDBRANCH   6   7
ENDBRANCH   4   6
BRANCH   4  15
HETATM   15  C   UNL     1     -11.033  13.820  65.755  1.00  0.00    -0.280 C  
BRANCH  15  16
HETATM   16  O   UNL     1     -10.526  15.009  65.125  1.00  0.00    -0.373 OA 
BRANCH  16  17
HETATM   17  C   UNL     1     -11.395  15.697  64.349  1.00  0.00    -0.263 C  
HETATM   18  O   UNL     1     -11.387  16.896  64.125  1.00  0.00    -1.208 OA 
HETATM   19  H1  UNL     1     -12.988  15.375  63.272  1.00  0.00     0.000 HD 
HETATM   20  N   UNL     1     -12.333  14.857  63.856  1.00  0.00    -1.064 N  
HETATM   21  H2  UNL     1     -12.378  13.855  64.042  1.00  0.00     0.000 HD 
ENDBRANCH  16  17
ENDBRANCH  15  16
ENDBRANCH   4  15
ENDBRANCH   3   4
ENDBRANCH   2   3
TORSDOF 9
ENDMDL
MODEL       14
REMARK 921   NORMALIZED FREE ENERGY PREDICTED BY IDOCK:   -4.72 KCAL/MOL
REMARK 922        TOTAL FREE ENERGY PREDICTED BY IDOCK:   -8.14 KCAL/MOL
REMARK 923 INTER-LIGAND FREE ENERGY PREDICTED BY IDOCK:   -7.14 KCAL/MOL
REMARK 924 INTRA-LIGAND FREE ENERGY PREDICTED BY IDOCK:   -1.00 KCAL/MOL
REMARK 927      BINDING AFFINITY PREDICTED BY RF-SCORE:    0.00 PKD
ROOT
HETATM    1  C   UNL     1     -12.350  11.891  63.424  1.00  0.00    -0.577 C  
HETATM    2  C   UNL     1     -12.235  13.336  63.891  1.00  0.00    -0.491 C  
ENDROOT
BRANCH   2   3
HETATM    3  C   UNL     1     -12.510  13.470  65.395  1.00  0.00    -0.540 C  
BRANCH   3   4
HETATM    4  C   UNL     1     -11.309  13.963  66.262  1.00  0.00    -0.329 C  
HETATM    5  C   UNL     1     -10.044  13.141  65.942  1.00  0.00    -0.292 C  
BRANCH   4   6
HETATM    6  C   UNL     1     -11.685  13.745  67.756  1.00  0.00    -0.358 C  
BRANCH   6   7
HETATM    7  O   UNL     1     -11.992  14.999  68.395  1.00  0.00    -0.291 OA 
BRANCH   7   8
HETATM    8  C   UNL     1     -11.778  15.068  69.734  1.00  0.00    -0.307 C  
HETATM    9  H   UNL     1     -13.668  14.267  69.851  1.00  0.00     0.000 HD 
HETATM   10  O   UNL     1     -10.771  15.512  70.267  1.00  0.00    -0.308 OA 
HETATM   11  N   UNL     1     -12.852  14.552  70.392  1.00  0.00    -0.322 N  
BRANCH  11  12
HETATM   12  C   UNL     1     -12.880  14.392  71.836  1.00  0.00    -0.349 C  
HETATM   13  C   UNL     1     -13.650  13.139  72.229  1.00  0.00    -0.677 C  
HETATM   14  C   UNL     1     -13.480  15.629  72.505  1.00  0.00    -0.630 C  
ENDBRANCH  11  12
ENDBRANCH   7   8
ENDBRANCH   6   7
ENDBRANCH   4   6
BRANCH   4  15
HETATM   15  C   UNL     1     -11.000  15.462  66.018  1.00  0.00    -0.286 C  
BRANCH  15  16
HETATM   16  O   UNL     1      -9.622  15.628  65.642  1.00  0.00    -0.333 OA 
BRANCH  16  17
HETATM   17  C   UNL     1      -8.932  16.595  66.288  1.00  0.00    -0.305 C  
HETATM   18  O   UNL     1      -8.063  17.312  65.822  1.00  0.00    -0.527 OA 
HETATM   19  H1  UNL     1      -8.803  17.378  68.070  1.00  0.00     0.000 HD 
HETATM   20  N   UNL     1      -9.323  16.649  67.582  1.00  0.00    -0.223 N  
HETATM   21  H2  UNL     1     -10.031  16.050  68.006  1.00  0.00     0.000 HD 
ENDBRANCH  16  17
ENDBRANCH  15  16
ENDBRANCH   4  15
ENDBRANCH   3   4
ENDBRANCH   2   3
TORSDOF 9
ENDMDL
MODEL       15
REMARK 921   NORMALIZED FREE ENERGY PREDICTED BY IDOCK:   -4.69 KCAL/MOL
REMARK 922        TOTAL FREE ENERGY PREDICTED BY IDOCK:   -8.10 KCAL/MOL
REMARK 923 INTER-LIGAND FREE ENERGY PREDICTED BY IDOCK:   -7.48 KCAL/MOL
REMARK 924 INTRA-LIGAND FREE ENERGY PREDICTED BY IDOCK:   -0.63 KCAL/MOL
REMARK 927      BINDING AFFINITY PREDICTED BY RF-SCORE:    0.00 PKD
ROOT
HETATM    1  C   UNL     1      -9.918  16.850  66.686  1.00  0.00    -0.302 C  
HETATM    2  C   UNL     1     -10.411  15.748  65.758  1.00  0.00    -0.384 C  
ENDROOT
BRANCH   2   3
HETATM    3  C   UNL     1      -9.818  14.383  66.133  1.00  0.00    -0.340 C  
BRANCH   3   4
HETATM    4  C   UNL     1     -10.831  13.333  66.688  1.00  0.00    -0.289 C  
HETATM    5  C   UNL     1     -12.160  14.018  67.066  1.00  0.00    -0.455 C  
BRANCH   4   6
HETATM    6  C   UNL     1     -10.207  12.707  67.969  1.00  0.00    -0.230 C  
BRANCH   6   7
HETATM    7  O   UNL     1     -11.231  12.364  68.922  1.00  0.00    -0.249 OA 
BRANCH   7   8
HETATM    8  C   UNL     1     -11.395  11.043  69.190  1.00  0.00    -0.280 C  
HETATM    9  H   UNL     1     -11.794  11.709  71.094  1.00  0.00     0.000 HD 
HETATM   10  O   UNL     1     -11.248  10.135  68.384  1.00  0.00    -0.244 OA 
HETATM   11  N   UNL     1     -11.763  10.887  70.491  1.00  0.00    -0.337 N  
BRANCH  11  12
HETATM   12  C   UNL     1     -12.113   9.594  71.053  1.00  0.00    -0.337 C  
HETATM   13  C   UNL     1     -13.258   9.725  72.047  1.00  0.00    -0.557 C  
HETATM   14  C   UNL     1     -10.896   8.944  71.712  1.00  0.00    -0.436 C  
ENDBRANCH  11  12
ENDBRANCH   7   8
ENDBRANCH   6   7
ENDBRANCH   4   6
BRANCH   4  15
HETATM   15  C   UNL     1     -11.127  12.216  65.655  1.00  0.00    -0.316 C  
BRANCH  15  16
HETATM   16  O   UNL     1     -12.437  12.399  65.090  1.00  0.00    -0.583 OA 
BRANCH  16  17
HETATM   17  C   UNL     1     -12.489  12.707  63.775  1.00  0.00    -0.420 C  
HETATM   18  O   UNL     1     -12.691  13.806  63.287  1.00  0.00    -0.783 OA 
HETATM   19  H1  UNL     1     -12.350  11.821  62.043  1.00  0.00     0.000 HD 
HETATM   20  N   UNL     1     -12.311  11.588  63.035  1.00  0.00    -0.935 N  
HETATM   21  H2  UNL     1     -12.161  10.653  63.414  1.00  0.00     0.000 HD 
ENDBRANCH  16  17
ENDBRANCH  15  16
ENDBRANCH   4  15
ENDBRANCH   3   4
ENDBRANCH   2   3
TORSDOF 9
ENDMDL
MODEL       16
REMARK 921   NORMALIZED FREE ENERGY PREDICTED BY IDOCK:   -4.65 KCAL/MOL
REMARK 922        TOTAL FREE ENERGY PREDICTED BY IDOCK:   -8.05 KCAL/MOL
REMARK 923 INTER-LIGAND FREE ENERGY PREDICTED BY IDOCK:   -7.10 KCAL/MOL
REMARK 924 INTRA-LIGAND FREE ENERGY PREDICTED BY IDOCK:   -0.95 KCAL/MOL
REMARK 927      BINDING AFFINITY PREDICTED BY RF-SCORE:    0.00 PKD
ROOT
HETATM    1  C   UNL     1      -9.315  10.186  63.844  1.00  0.00    -0.336 C  
HETATM    2  C   UNL     1     -10.602  10.968  64.068  1.00  0.00    -0.395 C  
ENDROOT
BRANCH   2   3
HETATM    3  C   UNL     1     -10.457  11.986  65.207  1.00  0.00    -0.323 C  
BRANCH   3   4
HETATM    4  C   UNL     1     -11.266  13.310  65.041  1.00  0.00    -0.325 C  
HETATM    5  C   UNL     1     -12.028  13.308  63.701  1.00  0.00    -0.547 C  
BRANCH   4   6
HETATM    6  C   UNL     1     -10.249  14.488  65.039  1.00  0.00    -0.365 C  
BRANCH   6   7
HETATM    7  O   UNL     1     -10.763  15.610  65.782  1.00  0.00    -0.323 OA 
BRANCH   7   8
HETATM    8  C   UNL     1      -9.884  16.605  66.065  1.00  0.00    -0.309 C  
HETATM    9  H   UNL     1     -11.539  17.534  66.859  1.00  0.00     0.000 HD 
HETATM   10  O   UNL     1      -8.695  16.601  65.780  1.00  0.00    -0.482 OA 
HETATM   11  N   UNL     1     -10.529  17.604  66.729  1.00  0.00    -0.320 N  
BRANCH  11  12
HETATM   12  C   UNL     1      -9.834  18.764  67.259  1.00  0.00    -0.317 C  
HETATM   13  C   UNL     1     -10.130  18.944  68.742  1.00  0.00    -0.415 C  
HETATM   14  C   UNL     1     -10.208  20.022  66.476  1.00  0.00    -0.598 C  
ENDBRANCH  11  12
ENDBRANCH   7   8
ENDBRANCH   6   7
ENDBRANCH   4   6
BRANCH   4  15
HETATM   15  C   UNL     1     -12.287  13.509  66.190  1.00  0.00    -0.407 C  
BRANCH  15  16
HETATM   16  O   UNL     1     -11.902  12.726  67.334  1.00  0.00    -0.361 OA 
BRANCH  16  17
HETATM   17  C   UNL     1     -11.910  13.359  68.528  1.00  0.00    -0.366 C  
HETATM   18  O   UNL     1     -11.742  12.855  69.626  1.00  0.00    -0.300 OA 
HETATM   19  H1  UNL     1     -12.173  15.152  69.249  1.00  0.00     0.000 HD 
HETATM   20  N   UNL     1     -12.168  14.675  68.348  1.00  0.00    -0.610 N  
HETATM   21  H2  UNL     1     -12.332  15.121  67.446  1.00  0.00     0.000 HD 
ENDBRANCH  16  17
ENDBRANCH  15  16
ENDBRANCH   4  15
ENDBRANCH   3   4
ENDBRANCH   2   3
TORSDOF 9
ENDMDL
MODEL       17
REMARK 921   NORMALIZED FREE ENERGY PREDICTED BY IDOCK:   -4.64 KCAL/MOL
REMARK 922        TOTAL FREE ENERGY PREDICTED BY IDOCK:   -8.02 KCAL/MOL
REMARK 923 INTER-LIGAND FREE ENERGY PREDICTED BY IDOCK:   -7.47 KCAL/MOL
REMARK 924 INTRA-LIGAND FREE ENERGY PREDICTED BY IDOCK:   -0.55 KCAL/MOL
REMARK 927      BINDING AFFINITY PREDICTED BY RF-SCORE:    0.00 PKD
ROOT
HETATM    1  C   UNL     1      -9.060  17.856  67.020  1.00  0.00    -0.256 C  
HETATM    2  C   UNL     1      -9.491  16.816  68.045  1.00  0.00    -0.233 C  
ENDROOT
BRANCH   2   3
HETATM    3  C   UNL     1      -9.720  15.443  67.399  1.00  0.00    -0.215 C  
BRANCH   3   4
HETATM    4  C   UNL     1     -11.029  14.704  67.822  1.00  0.00    -0.291 C  
HETATM    5  C   UNL     1     -11.795  15.531  68.875  1.00  0.00    -0.357 C  
BRANCH   4   6
HETATM    6  C   UNL     1     -10.619  13.342  68.453  1.00  0.00    -0.248 C  
BRANCH   6   7
HETATM    7  O   UNL     1     -11.622  12.885  69.380  1.00  0.00    -0.285 OA 
BRANCH   7   8
HETATM    8  C   UNL     1     -11.871  11.551  69.398  1.00  0.00    -0.350 C  
HETATM    9  H   UNL     1     -11.396  11.716  71.392  1.00  0.00     0.000 HD 
HETATM   10  O   UNL     1     -12.187  10.878  68.427  1.00  0.00    -0.540 OA 
HETATM   11  N   UNL     1     -11.727  11.079  70.667  1.00  0.00    -0.321 N  
BRANCH  11  12
HETATM   12  C   UNL     1     -12.027   9.704  71.027  1.00  0.00    -0.343 C  
HETATM   13  C   UNL     1     -13.210   9.639  71.983  1.00  0.00    -0.546 C  
HETATM   14  C   UNL     1     -10.801   9.025  71.637  1.00  0.00    -0.437 C  
ENDBRANCH  11  12
ENDBRANCH   7   8
ENDBRANCH   6   7
ENDBRANCH   4   6
BRANCH   4  15
HETATM   15  C   UNL     1     -11.965  14.454  66.612  1.00  0.00    -0.392 C  
BRANCH  15  16
HETATM   16  O   UNL     1     -11.210  14.483  65.388  1.00  0.00    -0.318 OA 
BRANCH  16  17
HETATM   17  C   UNL     1     -11.769  15.143  64.350  1.00  0.00    -0.295 C  
HETATM   18  O   UNL     1     -11.750  16.346  64.151  1.00  0.00    -0.921 OA 
HETATM   19  H1  UNL     1     -12.829  14.766  62.757  1.00  0.00     0.000 HD 
HETATM   20  N   UNL     1     -12.407  14.267  63.540  1.00  0.00    -1.122 N  
HETATM   21  H2  UNL     1     -12.458  13.260  63.691  1.00  0.00     0.000 HD 
ENDBRANCH  16  17
ENDBRANCH  15  16
ENDBRANCH   4  15
ENDBRANCH   3   4
ENDBRANCH   2   3
TORSDOF 9
ENDMDL
MODEL       18
REMARK 921   NORMALIZED FREE ENERGY PREDICTED BY IDOCK:   -4.62 KCAL/MOL
REMARK 922        TOTAL FREE ENERGY PREDICTED BY IDOCK:   -8.00 KCAL/MOL
REMARK 923 INTER-LIGAND FREE ENERGY PREDICTED BY IDOCK:   -7.56 KCAL/MOL
REMARK 924 INTRA-LIGAND FREE ENERGY PREDICTED BY IDOCK:   -0.44 KCAL/MOL
REMARK 927      BINDING AFFINITY PREDICTED BY RF-SCORE:    0.00 PKD
ROOT
HETATM    1  C   UNL     1     -11.283  11.749  63.623  1.00  0.00    -0.519 C  
HETATM    2  C   UNL     1     -12.231  12.157  64.743  1.00  0.00    -0.341 C  
ENDROOT
BRANCH   2   3
HETATM    3  C   UNL     1     -11.617  11.907  66.126  1.00  0.00    -0.299 C  
BRANCH   3   4
HETATM    4  C   UNL     1     -10.984  13.153  66.823  1.00  0.00    -0.298 C  
HETATM    5  C   UNL     1      -9.471  13.219  66.531  1.00  0.00    -0.251 C  
BRANCH   4   6
HETATM    6  C   UNL     1     -11.193  12.993  68.356  1.00  0.00    -0.269 C  
BRANCH   6   7
HETATM    7  O   UNL     1     -11.819  11.731  68.659  1.00  0.00    -0.309 OA 
BRANCH   7   8
HETATM    8  C   UNL     1     -11.955  11.419  69.973  1.00  0.00    -0.363 C  
HETATM    9  H   UNL     1     -11.249   9.581  69.380  1.00  0.00     0.000 HD 
HETATM   10  O   UNL     1     -12.384  12.171  70.837  1.00  0.00    -0.373 OA 
HETATM   11  N   UNL     1     -11.528  10.144  70.184  1.00  0.00    -0.279 N  
BRANCH  11  12
HETATM   12  C   UNL     1     -11.454   9.555  71.510  1.00  0.00    -0.395 C  
HETATM   13  C   UNL     1     -10.230   8.657  71.638  1.00  0.00    -0.366 C  
HETATM   14  C   UNL     1     -12.731   8.777  71.828  1.00  0.00    -0.408 C  
ENDBRANCH  11  12
ENDBRANCH   7   8
ENDBRANCH   6   7
ENDBRANCH   4   6
BRANCH   4  15
HETATM   15  C   UNL     1     -11.639  14.474  66.345  1.00  0.00    -0.364 C  
BRANCH  15  16
HETATM   16  O   UNL     1     -10.845  15.071  65.305  1.00  0.00    -0.334 OA 
BRANCH  16  17
HETATM   17  C   UNL     1     -11.480  15.934  64.481  1.00  0.00    -0.283 C  
HETATM   18  O   UNL     1     -11.299  17.137  64.399  1.00  0.00    -1.115 OA 
HETATM   19  H1  UNL     1     -12.885  15.924  63.128  1.00  0.00     0.000 HD 
HETATM   20  N   UNL     1     -12.405  15.272  63.749  1.00  0.00    -0.993 N  
HETATM   21  H2  UNL     1     -12.595  14.272  63.810  1.00  0.00     0.000 HD 
ENDBRANCH  16  17
ENDBRANCH  15  16
ENDBRANCH   4  15
ENDBRANCH   3   4
ENDBRANCH   2   3
TORSDOF 9
ENDMDL
MODEL       19
REMARK 921   NORMALIZED FREE ENERGY PREDICTED BY IDOCK:   -4.61 KCAL/MOL
REMARK 922        TOTAL FREE ENERGY PREDICTED BY IDOCK:   -7.98 KCAL/MOL
REMARK 923 INTER-LIGAND FREE ENERGY PREDICTED BY IDOCK:   -7.40 KCAL/MOL
REMARK 924 INTRA-LIGAND FREE ENERGY PREDICTED BY IDOCK:   -0.58 KCAL/MOL
REMARK 927      BINDING AFFINITY PREDICTED BY RF-SCORE:    0.00 PKD
ROOT
HETATM    1  C   UNL     1     -10.451  19.705  66.301  1.00  0.00    -0.621 C  
HETATM    2  C   UNL     1     -10.756  18.614  67.319  1.00  0.00    -0.449 C  
ENDROOT
BRANCH   2   3
HETATM    3  C   UNL     1     -10.335  17.229  66.809  1.00  0.00    -0.308 C  
BRANCH   3   4
HETATM    4  C   UNL     1     -10.320  16.089  67.876  1.00  0.00    -0.269 C  
HETATM    5  C   UNL     1      -9.060  16.197  68.758  1.00  0.00    -0.229 C  
BRANCH   4   6
HETATM    6  C   UNL     1     -10.287  14.732  67.117  1.00  0.00    -0.255 C  
BRANCH   6   7
HETATM    7  O   UNL     1     -11.486  13.975  67.368  1.00  0.00    -0.312 OA 
BRANCH   7   8
HETATM    8  C   UNL     1     -11.628  12.814  66.680  1.00  0.00    -0.370 C  
HETATM    9  H   UNL     1     -11.230  13.995  65.045  1.00  0.00     0.000 HD 
HETATM   10  O   UNL     1     -11.910  11.730  67.172  1.00  0.00    -0.599 OA 
HETATM   11  N   UNL     1     -11.394  13.038  65.358  1.00  0.00    -0.292 N  
BRANCH  11  12
HETATM   12  C   UNL     1     -11.371  11.967  64.377  1.00  0.00    -0.345 C  
HETATM   13  C   UNL     1     -10.139  12.072  63.487  1.00  0.00    -0.448 C  
HETATM   14  C   UNL     1     -12.647  11.975  63.536  1.00  0.00    -0.625 C  
ENDBRANCH  11  12
ENDBRANCH   7   8
ENDBRANCH   6   7
ENDBRANCH   4   6
BRANCH   4  15
HETATM   15  C   UNL     1     -11.570  16.141  68.791  1.00  0.00    -0.297 C  
BRANCH  15  16
HETATM   16  O   UNL     1     -11.202  15.842  70.149  1.00  0.00    -0.306 OA 
BRANCH  16  17
HETATM   17  C   UNL     1     -12.160  16.015  71.086  1.00  0.00    -0.360 C  
HETATM   18  O   UNL     1     -12.004  16.404  72.232  1.00  0.00    -0.524 OA 
HETATM   19  H1  UNL     1     -14.087  15.789  71.289  1.00  0.00     0.000 HD 
HETATM   20  N   UNL     1     -13.364  15.659  70.582  1.00  0.00    -0.792 N  
HETATM   21  H2  UNL     1     -13.523  15.311  69.637  1.00  0.00     0.000 HD 
ENDBRANCH  16  17
ENDBRANCH  15  16
ENDBRANCH   4  15
ENDBRANCH   3   4
ENDBRANCH   2   3
TORSDOF 9
ENDMDL
MODEL       20
REMARK 921   NORMALIZED FREE ENERGY PREDICTED BY IDOCK:   -4.57 KCAL/MOL
REMARK 922        TOTAL FREE ENERGY PREDICTED BY IDOCK:   -7.92 KCAL/MOL
REMARK 923 INTER-LIGAND FREE ENERGY PREDICTED BY IDOCK:   -7.20 KCAL/MOL
REMARK 924 INTRA-LIGAND FREE ENERGY PREDICTED BY IDOCK:   -0.72 KCAL/MOL
REMARK 927      BINDING AFFINITY PREDICTED BY RF-SCORE:    0.00 PKD
ROOT
HETATM    1  C   UNL     1      -9.364   9.870  64.805  1.00  0.00    -0.339 C  
HETATM    2  C   UNL     1      -9.386  10.469  66.205  1.00  0.00    -0.210 C  
ENDROOT
BRANCH   2   3
HETATM    3  C   UNL     1     -10.801  10.899  66.616  1.00  0.00    -0.258 C  
BRANCH   3   4
HETATM    4  C   UNL     1     -10.980  12.415  66.944  1.00  0.00    -0.307 C  
HETATM    5  C   UNL     1      -9.695  13.194  66.599  1.00  0.00    -0.261 C  
BRANCH   4   6
HETATM    6  C   UNL     1     -11.247  12.538  68.472  1.00  0.00    -0.283 C  
BRANCH   6   7
HETATM    7  O   UNL     1     -12.209  11.557  68.905  1.00  0.00    -0.415 OA 
BRANCH   7   8
HETATM    8  C   UNL     1     -12.107  11.131  70.190  1.00  0.00    -0.362 C  
HETATM    9  H   UNL     1     -10.920   9.664  69.374  1.00  0.00     0.000 HD 
HETATM   10  O   UNL     1     -12.663  11.644  71.150  1.00  0.00    -0.381 OA 
HETATM   11  N   UNL     1     -11.280  10.051  70.246  1.00  0.00    -0.290 N  
BRANCH  11  12
HETATM   12  C   UNL     1     -10.891   9.430  71.500  1.00  0.00    -0.328 C  
HETATM   13  C   UNL     1      -9.500   8.820  71.396  1.00  0.00    -0.330 C  
HETATM   14  C   UNL     1     -11.915   8.376  71.922  1.00  0.00    -0.397 C  
ENDBRANCH  11  12
ENDBRANCH   7   8
ENDBRANCH   6   7
ENDBRANCH   4   6
BRANCH   4  15
HETATM   15  C   UNL     1     -12.163  13.038  66.159  1.00  0.00    -0.360 C  
BRANCH  15  16
HETATM   16  O   UNL     1     -12.549  12.171  65.078  1.00  0.00    -0.514 OA 
BRANCH  16  17
HETATM   17  C   UNL     1     -12.420  12.672  63.829  1.00  0.00    -0.420 C  
HETATM   18  O   UNL     1     -12.580  13.831  63.483  1.00  0.00    -0.814 OA 
HETATM   19  H1  UNL     1     -12.011  12.056  62.025  1.00  0.00     0.000 HD 
HETATM   20  N   UNL     1     -12.108  11.678  62.967  1.00  0.00    -0.927 N  
HETATM   21  H2  UNL     1     -11.988  10.697  63.222  1.00  0.00     0.000 HD 
ENDBRANCH  16  17
ENDBRANCH  15  16
ENDBRANCH   4  15
ENDBRANCH   3   4
ENDBRANCH   2   3
TORSDOF 9
ENDMDL
MODEL       21
REMARK 921   NORMALIZED FREE ENERGY PREDICTED BY IDOCK:   -4.55 KCAL/MOL
REMARK 922        TOTAL FREE ENERGY PREDICTED BY IDOCK:   -7.90 KCAL/MOL
REMARK 923 INTER-LIGAND FREE ENERGY PREDICTED BY IDOCK:   -7.24 KCAL/MOL
REMARK 924 INTRA-LIGAND FREE ENERGY PREDICTED BY IDOCK:   -0.66 KCAL/MOL
REMARK 927      BINDING AFFINITY PREDICTED BY RF-SCORE:    0.00 PKD
ROOT
HETATM    1  C   UNL     1     -11.870  11.899  63.458  1.00  0.00    -0.560 C  
HETATM    2  C   UNL     1     -11.962  13.267  64.119  1.00  0.00    -0.505 C  
ENDROOT
BRANCH   2   3
HETATM    3  C   UNL     1     -10.588  13.763  64.591  1.00  0.00    -0.443 C  
BRANCH   3   4
HETATM    4  C   UNL     1     -10.606  14.800  65.758  1.00  0.00    -0.338 C  
HETATM    5  C   UNL     1      -9.293  14.723  66.564  1.00  0.00    -0.316 C  
BRANCH   4   6
HETATM    6  C   UNL     1     -11.793  14.436  66.695  1.00  0.00    -0.398 C  
BRANCH   6   7
HETATM    7  O   UNL     1     -11.316  13.840  67.917  1.00  0.00    -0.271 OA 
BRANCH   7   8
HETATM    8  C   UNL     1     -11.703  12.562  68.161  1.00  0.00    -0.348 C  
HETATM    9  H   UNL     1     -11.327  13.060  70.120  1.00  0.00     0.000 HD 
HETATM   10  O   UNL     1     -12.033  11.748  67.310  1.00  0.00    -0.618 OA 
HETATM   11  N   UNL     1     -11.681  12.330  69.502  1.00  0.00    -0.321 N  
BRANCH  11  12
HETATM   12  C   UNL     1     -12.142  11.081  70.085  1.00  0.00    -0.356 C  
HETATM   13  C   UNL     1     -12.907  11.335  71.377  1.00  0.00    -0.515 C  
HETATM   14  C   UNL     1     -10.968  10.133  70.330  1.00  0.00    -0.380 C  
ENDBRANCH  11  12
ENDBRANCH   7   8
ENDBRANCH   6   7
ENDBRANCH   4   6
BRANCH   4  15
HETATM   15  C   UNL     1     -10.782  16.249  65.236  1.00  0.00    -0.332 C  
BRANCH  15  16
HETATM   16  O   UNL     1     -10.636  17.185  66.318  1.00  0.00    -0.285 OA 
BRANCH  16  17
HETATM   17  C   UNL     1      -9.855  18.263  66.082  1.00  0.00    -0.260 C  
HETATM   18  O   UNL     1      -8.637  18.286  66.021  1.00  0.00    -0.494 OA 
HETATM   19  H1  UNL     1     -10.035  20.179  65.770  1.00  0.00     0.000 HD 
HETATM   20  N   UNL     1     -10.625  19.367  65.948  1.00  0.00    -0.498 N  
HETATM   21  H2  UNL     1     -11.642  19.383  66.014  1.00  0.00     0.000 HD 
ENDBRANCH  16  17
ENDBRANCH  15  16
ENDBRANCH   4  15
ENDBRANCH   3   4
ENDBRANCH   2   3
TORSDOF 9
ENDMDL
MODEL       22
REMARK 921   NORMALIZED FREE ENERGY PREDICTED BY IDOCK:   -4.51 KCAL/MOL
REMARK 922        TOTAL FREE ENERGY PREDICTED BY IDOCK:   -7.83 KCAL/MOL
REMARK 923 INTER-LIGAND FREE ENERGY PREDICTED BY IDOCK:   -7.10 KCAL/MOL
REMARK 924 INTRA-LIGAND FREE ENERGY PREDICTED BY IDOCK:   -0.72 KCAL/MOL
REMARK 927      BINDING AFFINITY PREDICTED BY RF-SCORE:    0.00 PKD
ROOT
HETATM    1  C   UNL     1      -9.793   8.884  66.061  1.00  0.00    -0.277 C  
HETATM    2  C   UNL     1     -10.164  10.265  66.586  1.00  0.00    -0.294 C  
ENDROOT
BRANCH   2   3
HETATM    3  C   UNL     1     -10.356  11.273  65.445  1.00  0.00    -0.328 C  
BRANCH   3   4
HETATM    4  C   UNL     1     -11.133  12.576  65.815  1.00  0.00    -0.343 C  
HETATM    5  C   UNL     1     -12.497  12.610  65.097  1.00  0.00    -0.531 C  
BRANCH   4   6
HETATM    6  C   UNL     1     -10.281  13.786  65.333  1.00  0.00    -0.326 C  
BRANCH   6   7
HETATM    7  O   UNL     1     -11.075  14.684  64.534  1.00  0.00    -0.343 OA 
BRANCH   7   8
HETATM    8  C   UNL     1     -10.964  16.008  64.815  1.00  0.00    -0.356 C  
HETATM    9  H   UNL     1     -10.051  15.338  66.531  1.00  0.00     0.000 HD 
HETATM   10  O   UNL     1     -11.383  16.916  64.112  1.00  0.00    -1.208 OA 
HETATM   11  N   UNL     1     -10.301  16.167  65.993  1.00  0.00    -0.341 N  
BRANCH  11  12
HETATM   12  C   UNL     1      -9.936  17.474  66.512  1.00  0.00    -0.321 C  
HETATM   13  C   UNL     1      -8.427  17.591  66.679  1.00  0.00    -0.288 C  
HETATM   14  C   UNL     1     -10.649  17.749  67.836  1.00  0.00    -0.389 C  
ENDBRANCH  11  12
ENDBRANCH   7   8
ENDBRANCH   6   7
ENDBRANCH   4   6
BRANCH   4  15
HETATM   15  C   UNL     1     -11.375  12.687  67.343  1.00  0.00    -0.313 C  
BRANCH  15  16
HETATM   16  O   UNL     1     -11.950  13.967  67.660  1.00  0.00    -0.366 OA 
BRANCH  16  17
HETATM   17  C   UNL     1     -11.663  14.471  68.880  1.00  0.00    -0.319 C  
HETATM   18  O   UNL     1     -10.556  14.726  69.326  1.00  0.00    -0.239 OA 
HETATM   19  H1  UNL     1     -12.586  15.018  70.509  1.00  0.00     0.000 HD 
HETATM   20  N   UNL     1     -12.803  14.637  69.588  1.00  0.00    -0.520 N  
HETATM   21  H2  UNL     1     -13.740  14.414  69.251  1.00  0.00     0.000 HD 
ENDBRANCH  16  17
ENDBRANCH  15  16
ENDBRANCH   4  15
ENDBRANCH   3   4
ENDBRANCH   2   3
TORSDOF 9
ENDMDL
MODEL       23
REMARK 921   NORMALIZED FREE ENERGY PREDICTED BY IDOCK:   -4.50 KCAL/MOL
REMARK 922        TOTAL FREE ENERGY PREDICTED BY IDOCK:   -7.82 KCAL/MOL
REMARK 923 INTER-LIGAND FREE ENERGY PREDICTED BY IDOCK:   -7.13 KCAL/MOL
REMARK 924 INTRA-LIGAND FREE ENERGY PREDICTED BY IDOCK:   -0.70 KCAL/MOL
REMARK 927      BINDING AFFINITY PREDICTED BY RF-SCORE:    0.00 PKD
ROOT
HETATM    1  C   UNL     1      -8.166  12.421  67.452  1.00  0.00    -0.180 C  
HETATM    2  C   UNL     1      -9.318  12.359  66.457  1.00  0.00    -0.233 C  
ENDROOT
BRANCH   2   3
HETATM    3  C   UNL     1     -10.117  13.668  66.432  1.00  0.00    -0.295 C  
BRANCH   3   4
HETATM    4  C   UNL     1     -11.589  13.575  66.942  1.00  0.00    -0.398 C  
HETATM    5  C   UNL     1     -11.781  14.458  68.192  1.00  0.00    -0.377 C  
BRANCH   4   6
HETATM    6  C   UNL     1     -11.862  12.092  67.328  1.00  0.00    -0.223 C  
BRANCH   6   7
HETATM    7  O   UNL     1     -11.685  11.891  68.743  1.00  0.00    -0.279 OA 
BRANCH   7   8
HETATM    8  C   UNL     1     -11.336  10.640  69.140  1.00  0.00    -0.273 C  
HETATM    9  H   UNL     1     -12.093  11.247  70.953  1.00  0.00     0.000 HD 
HETATM   10  O   UNL     1     -10.789   9.802  68.437  1.00  0.00    -0.233 OA 
HETATM   11  N   UNL     1     -11.701  10.459  70.439  1.00  0.00    -0.305 N  
BRANCH  11  12
HETATM   12  C   UNL     1     -11.552   9.184  71.120  1.00  0.00    -0.317 C  
HETATM   13  C   UNL     1     -12.636   9.002  72.174  1.00  0.00    -0.461 C  
HETATM   14  C   UNL     1     -10.163   9.064  71.746  1.00  0.00    -0.389 C  
ENDBRANCH  11  12
ENDBRANCH   7   8
ENDBRANCH   6   7
ENDBRANCH   4   6
BRANCH   4  15
HETATM   15  C   UNL     1     -12.604  14.024  65.860  1.00  0.00    -0.449 C  
BRANCH  15  16
HETATM   16  O   UNL     1     -13.053  12.888  65.101  1.00  0.00    -0.753 OA 
BRANCH  16  17
HETATM   17  C   UNL     1     -12.585  12.783  63.837  1.00  0.00    -0.289 C  
HETATM   18  O   UNL     1     -12.404  11.756  63.205  1.00  0.00    -0.518 OA 
HETATM   19  H1  UNL     1     -11.950  13.934  62.397  1.00  0.00     0.000 HD 
HETATM   20  N   UNL     1     -12.303  14.013  63.350  1.00  0.00    -1.154 N  
HETATM   21  H2  UNL     1     -12.424  14.888  63.861  1.00  0.00     0.000 HD 
ENDBRANCH  16  17
ENDBRANCH  15  16
ENDBRANCH   4  15
ENDBRANCH   3   4
ENDBRANCH   2   3
TORSDOF 9
ENDMDL
MODEL       24
REMARK 921   NORMALIZED FREE ENERGY PREDICTED BY IDOCK:   -4.49 KCAL/MOL
REMARK 922        TOTAL FREE ENERGY PREDICTED BY IDOCK:   -7.79 KCAL/MOL
REMARK 923 INTER-LIGAND FREE ENERGY PREDICTED BY IDOCK:   -7.13 KCAL/MOL
REMARK 924 INTRA-LIGAND FREE ENERGY PREDICTED BY IDOCK:   -0.66 KCAL/MOL
REMARK 927      BINDING AFFINITY PREDICTED BY RF-SCORE:    0.00 PKD
ROOT
HETATM    1  C   UNL     1      -9.541  18.555  67.004  1.00  0.00    -0.305 C  
HETATM    2  C   UNL     1     -10.505  17.427  66.661  1.00  0.00    -0.253 C  
ENDROOT
BRANCH   2   3
HETATM    3  C   UNL     1     -10.817  16.555  67.885  1.00  0.00    -0.326 C  
BRANCH   3   4
HETATM    4  C   UNL     1     -10.876  15.017  67.624  1.00  0.00    -0.291 C  
HETATM    5  C   UNL     1      -9.491  14.380  67.854  1.00  0.00    -0.214 C  
BRANCH   4   6
HETATM    6  C   UNL     1     -11.285  14.806  66.137  1.00  0.00    -0.337 C  
BRANCH   6   7
HETATM    7  O   UNL     1     -12.439  13.949  66.041  1.00  0.00    -0.463 OA 
BRANCH   7   8
HETATM    8  C   UNL     1     -12.357  12.916  65.163  1.00  0.00    -0.493 C  
HETATM    9  H   UNL     1     -10.379  12.888  65.726  1.00  0.00     0.000 HD 
HETATM   10  O   UNL     1     -13.280  12.491  64.484  1.00  0.00    -0.832 OA 
HETATM   11  N   UNL     1     -11.090  12.416  65.168  1.00  0.00    -0.300 N  
BRANCH  11  12
HETATM   12  C   UNL     1     -10.714  11.237  64.407  1.00  0.00    -0.339 C  
HETATM   13  C   UNL     1      -9.935  10.257  65.273  1.00  0.00    -0.387 C  
HETATM   14  C   UNL     1      -9.905  11.628  63.170  1.00  0.00    -0.407 C  
ENDBRANCH  11  12
ENDBRANCH   7   8
ENDBRANCH   6   7
ENDBRANCH   4   6
BRANCH   4  15
HETATM   15  C   UNL     1     -11.904  14.316  68.549  1.00  0.00    -0.347 C  
BRANCH  15  16
HETATM   16  O   UNL     1     -12.034  15.043  69.783  1.00  0.00    -0.296 OA 
BRANCH  16  17
HETATM   17  C   UNL     1     -12.910  14.547  70.686  1.00  0.00    -0.340 C  
HETATM   18  O   UNL     1     -12.829  13.484  71.278  1.00  0.00    -0.346 OA 
HETATM   19  H1  UNL     1     -14.609  15.026  71.513  1.00  0.00     0.000 HD 
HETATM   20  N   UNL     1     -13.949  15.400  70.832  1.00  0.00    -0.857 N  
HETATM   21  H2  UNL     1     -14.055  16.285  70.336  1.00  0.00     0.000 HD 
ENDBRANCH  16  17
ENDBRANCH  15  16
ENDBRANCH   4  15
ENDBRANCH   3   4
ENDBRANCH   2   3
TORSDOF 9
ENDMDL
MODEL       25
REMARK 921   NORMALIZED FREE ENERGY PREDICTED BY IDOCK:   -4.48 KCAL/MOL
REMARK 922        TOTAL FREE ENERGY PREDICTED BY IDOCK:   -7.79 KCAL/MOL
REMARK 923 INTER-LIGAND FREE ENERGY PREDICTED BY IDOCK:   -7.15 KCAL/MOL
REMARK 924 INTRA-LIGAND FREE ENERGY PREDICTED BY IDOCK:   -0.64 KCAL/MOL
REMARK 927      BINDING AFFINITY PREDICTED BY RF-SCORE:    0.00 PKD
ROOT
HETATM    1  C   UNL     1     -12.301  12.196  63.365  1.00  0.00    -0.648 C  
HETATM    2  C   UNL     1     -12.244  13.633  63.864  1.00  0.00    -0.429 C  
ENDROOT
BRANCH   2   3
HETATM    3  C   UNL     1     -12.654  13.738  65.339  1.00  0.00    -0.534 C  
BRANCH   3   4
HETATM    4  C   UNL     1     -11.490  13.984  66.350  1.00  0.00    -0.361 C  
HETATM    5  C   UNL     1     -12.019  14.689  67.616  1.00  0.00    -0.307 C  
BRANCH   4   6
HETATM    6  C   UNL     1     -10.451  14.911  65.657  1.00  0.00    -0.349 C  
BRANCH   6   7
HETATM    7  O   UNL     1      -9.580  15.521  66.629  1.00  0.00    -0.229 OA 
BRANCH   7   8
HETATM    8  C   UNL     1      -9.189  16.797  66.380  1.00  0.00    -0.279 C  
HETATM    9  H   UNL     1     -11.006  17.279  67.214  1.00  0.00     0.000 HD 
HETATM   10  O   UNL     1      -8.142  17.123  65.839  1.00  0.00    -0.516 OA 
HETATM   11  N   UNL     1     -10.138  17.660  66.837  1.00  0.00    -0.318 N  
BRANCH  11  12
HETATM   12  C   UNL     1      -9.961  19.101  66.807  1.00  0.00    -0.361 C  
HETATM   13  C   UNL     1     -10.483  19.739  68.088  1.00  0.00    -0.494 C  
HETATM   14  C   UNL     1     -10.649  19.705  65.583  1.00  0.00    -0.462 C  
ENDBRANCH  11  12
ENDBRANCH   7   8
ENDBRANCH   6   7
ENDBRANCH   4   6
BRANCH   4  15
HETATM   15  C   UNL     1     -10.804  12.660  66.772  1.00  0.00    -0.250 C  
BRANCH  15  16
HETATM   16  O   UNL     1     -11.794  11.642  67.001  1.00  0.00    -0.591 OA 
BRANCH  16  17
HETATM   17  C   UNL     1     -11.613  10.859  68.088  1.00  0.00    -0.241 C  
HETATM   18  O   UNL     1     -11.944  11.109  69.235  1.00  0.00    -0.322 OA 
HETATM   19  H1  UNL     1     -10.826   9.137  68.555  1.00  0.00     0.000 HD 
HETATM   20  N   UNL     1     -10.963   9.727  67.735  1.00  0.00    -0.460 N  
HETATM   21  H2  UNL     1     -10.655   9.499  66.789  1.00  0.00     0.000 HD 
ENDBRANCH  16  17
ENDBRANCH  15  16
ENDBRANCH   4  15
ENDBRANCH   3   4
ENDBRANCH   2   3
TORSDOF 9
ENDMDL
MODEL       26
REMARK 921   NORMALIZED FREE ENERGY PREDICTED BY IDOCK:   -4.46 KCAL/MOL
REMARK 922        TOTAL FREE ENERGY PREDICTED BY IDOCK:   -7.76 KCAL/MOL
REMARK 923 INTER-LIGAND FREE ENERGY PREDICTED BY IDOCK:   -7.22 KCAL/MOL
REMARK 924 INTRA-LIGAND FREE ENERGY PREDICTED BY IDOCK:   -0.54 KCAL/MOL
REMARK 927      BINDING AFFINITY PREDICTED BY RF-SCORE:    0.00 PKD
ROOT
HETATM    1  C   UNL     1     -10.199  11.226  63.271  1.00  0.00    -0.417 C  
HETATM    2  C   UNL     1     -11.128  12.288  63.844  1.00  0.00    -0.475 C  
ENDROOT
BRANCH   2   3
HETATM    3  C   UNL     1     -10.365  13.309  64.698  1.00  0.00    -0.394 C  
BRANCH   3   4
HETATM    4  C   UNL     1     -11.247  14.321  65.495  1.00  0.00    -0.320 C  
HETATM    5  C   UNL     1     -12.742  14.057  65.226  1.00  0.00    -0.468 C  
BRANCH   4   6
HETATM    6  C   UNL     1     -10.891  15.751  64.997  1.00  0.00    -0.443 C  
BRANCH   6   7
HETATM    7  O   UNL     1      -9.837  16.323  65.795  1.00  0.00    -0.380 OA 
BRANCH   7   8
HETATM    8  C   UNL     1      -9.940  17.647  66.080  1.00  0.00    -0.272 C  
HETATM    9  H   UNL     1      -8.597  17.200  67.573  1.00  0.00     0.000 HD 
HETATM   10  O   UNL     1     -10.660  18.443  65.494  1.00  0.00    -0.627 OA 
HETATM   11  N   UNL     1      -9.107  17.954  67.113  1.00  0.00    -0.247 N  
BRANCH  11  12
HETATM   12  C   UNL     1      -8.917  19.316  67.583  1.00  0.00    -0.298 C  
HETATM   13  C   UNL     1      -7.508  19.510  68.128  1.00  0.00    -0.335 C  
HETATM   14  C   UNL     1      -9.960  19.673  68.641  1.00  0.00    -0.553 C  
ENDBRANCH  11  12
ENDBRANCH   7   8
ENDBRANCH   6   7
ENDBRANCH   4   6
BRANCH   4  15
HETATM   15  C   UNL     1     -10.995  14.226  67.022  1.00  0.00    -0.303 C  
BRANCH  15  16
HETATM   16  O   UNL     1     -12.030  13.446  67.646  1.00  0.00    -0.348 OA 
BRANCH  16  17
HETATM   17  C   UNL     1     -11.646  12.281  68.216  1.00  0.00    -0.331 C  
HETATM   18  O   UNL     1     -12.231  11.212  68.164  1.00  0.00    -0.612 OA 
HETATM   19  H1  UNL     1     -10.210  11.587  69.337  1.00  0.00     0.000 HD 
HETATM   20  N   UNL     1     -10.499  12.466  68.907  1.00  0.00    -0.402 N  
HETATM   21  H2  UNL     1      -9.998  13.351  68.986  1.00  0.00     0.000 HD 
ENDBRANCH  16  17
ENDBRANCH  15  16
ENDBRANCH   4  15
ENDBRANCH   3   4
ENDBRANCH   2   3
TORSDOF 9
ENDMDL
MODEL       27
REMARK 921   NORMALIZED FREE ENERGY PREDICTED BY IDOCK:   -4.45 KCAL/MOL
REMARK 922        TOTAL FREE ENERGY PREDICTED BY IDOCK:   -7.74 KCAL/MOL
REMARK 923 INTER-LIGAND FREE ENERGY PREDICTED BY IDOCK:   -6.82 KCAL/MOL
REMARK 924 INTRA-LIGAND FREE ENERGY PREDICTED BY IDOCK:   -0.92 KCAL/MOL
REMARK 927      BINDING AFFINITY PREDICTED BY RF-SCORE:    0.00 PKD
ROOT
HETATM    1  C   UNL     1      -9.988  11.037  63.293  1.00  0.00    -0.414 C  
HETATM    2  C   UNL     1     -11.066  12.080  63.559  1.00  0.00    -0.519 C  
ENDROOT
BRANCH   2   3
HETATM    3  C   UNL     1     -10.539  13.234  64.423  1.00  0.00    -0.438 C  
BRANCH   3   4
HETATM    4  C   UNL     1     -11.197  13.383  65.830  1.00  0.00    -0.314 C  
HETATM    5  C   UNL     1     -12.680  13.783  65.689  1.00  0.00    -0.523 C  
BRANCH   4   6
HETATM    6  C   UNL     1     -10.442  14.513  66.587  1.00  0.00    -0.274 C  
BRANCH   6   7
HETATM    7  O   UNL     1     -11.290  15.117  67.583  1.00  0.00    -0.317 OA 
BRANCH   7   8
HETATM    8  C   UNL     1     -10.825  16.249  68.172  1.00  0.00    -0.342 C  
HETATM    9  H   UNL     1     -10.111  16.667  66.289  1.00  0.00     0.000 HD 
HETATM   10  O   UNL     1     -10.947  16.531  69.355  1.00  0.00    -0.310 OA 
HETATM   11  N   UNL     1     -10.214  17.028  67.237  1.00  0.00    -0.303 N  
BRANCH  11  12
HETATM   12  C   UNL     1      -9.704  18.354  67.541  1.00  0.00    -0.297 C  
HETATM   13  C   UNL     1     -10.741  19.422  67.220  1.00  0.00    -0.603 C  
HETATM   14  C   UNL     1      -8.403  18.619  66.783  1.00  0.00    -0.287 C  
ENDBRANCH  11  12
ENDBRANCH   7   8
ENDBRANCH   6   7
ENDBRANCH   4   6
BRANCH   4  15
HETATM   15  C   UNL     1     -11.116  12.067  66.646  1.00  0.00    -0.310 C  
BRANCH  15  16
HETATM   16  O   UNL     1     -12.097  12.076  67.697  1.00  0.00    -0.547 OA 
BRANCH  16  17
HETATM   17  C   UNL     1     -11.657  11.760  68.936  1.00  0.00    -0.309 C  
HETATM   18  O   UNL     1     -11.445  10.642  69.375  1.00  0.00    -0.250 OA 
HETATM   19  H1  UNL     1     -11.173  12.647  70.603  1.00  0.00     0.000 HD 
HETATM   20  N   UNL     1     -11.505  12.886  69.669  1.00  0.00    -0.462 N  
HETATM   21  H2  UNL     1     -11.694  13.832  69.337  1.00  0.00     0.000 HD 
ENDBRANCH  16  17
ENDBRANCH  15  16
ENDBRANCH   4  15
ENDBRANCH   3   4
ENDBRANCH   2   3
TORSDOF 9
ENDMDL
MODEL       28
REMARK 921   NORMALIZED FREE ENERGY PREDICTED BY IDOCK:   -4.45 KCAL/MOL
REMARK 922        TOTAL FREE ENERGY PREDICTED BY IDOCK:   -7.74 KCAL/MOL
REMARK 923 INTER-LIGAND FREE ENERGY PREDICTED BY IDOCK:   -7.08 KCAL/MOL
REMARK 924 INTRA-LIGAND FREE ENERGY PREDICTED BY IDOCK:   -0.65 KCAL/MOL
REMARK 927      BINDING AFFINITY PREDICTED BY RF-SCORE:    0.00 PKD
ROOT
HETATM    1  C   UNL     1      -7.946  14.725  67.221  1.00  0.00    -0.232 C  
HETATM    2  C   UNL     1      -9.273  14.593  67.957  1.00  0.00    -0.197 C  
ENDROOT
BRANCH   2   3
HETATM    3  C   UNL     1      -9.748  13.135  68.013  1.00  0.00    -0.224 C  
BRANCH   3   4
HETATM    4  C   UNL     1     -11.293  12.922  67.955  1.00  0.00    -0.333 C  
HETATM    5  C   UNL     1     -12.028  14.258  68.187  1.00  0.00    -0.343 C  
BRANCH   4   6
HETATM    6  C   UNL     1     -11.677  11.934  69.094  1.00  0.00    -0.319 C  
BRANCH   6   7
HETATM    7  O   UNL     1     -12.227  12.642  70.222  1.00  0.00    -0.331 OA 
BRANCH   7   8
HETATM    8  C   UNL     1     -12.725  11.883  71.232  1.00  0.00    -0.298 C  
HETATM    9  H   UNL     1     -11.885  10.330  70.179  1.00  0.00     0.000 HD 
HETATM   10  O   UNL     1     -13.376  12.305  72.177  1.00  0.00    -0.526 OA 
HETATM   11  N   UNL     1     -12.375  10.582  71.037  1.00  0.00    -0.362 N  
BRANCH  11  12
HETATM   12  C   UNL     1     -12.675   9.541  72.004  1.00  0.00    -0.396 C  
HETATM   13  C   UNL     1     -11.511   8.567  72.132  1.00  0.00    -0.446 C  
HETATM   14  C   UNL     1     -13.958   8.803  71.624  1.00  0.00    -0.450 C  
ENDBRANCH  11  12
ENDBRANCH   7   8
ENDBRANCH   6   7
ENDBRANCH   4   6
BRANCH   4  15
HETATM   15  C   UNL     1     -11.743  12.341  66.590  1.00  0.00    -0.349 C  
BRANCH  15  16
HETATM   16  O   UNL     1     -12.237  13.393  65.743  1.00  0.00    -0.411 OA 
BRANCH  16  17
HETATM   17  C   UNL     1     -11.571  13.596  64.584  1.00  0.00    -0.371 C  
HETATM   18  O   UNL     1     -10.451  13.204  64.304  1.00  0.00    -0.414 OA 
HETATM   19  H1  UNL     1     -11.822  14.501  62.875  1.00  0.00     0.000 HD 
HETATM   20  N   UNL     1     -12.324  14.348  63.749  1.00  0.00    -1.079 N  
HETATM   21  H2  UNL     1     -13.254  14.708  63.963  1.00  0.00     0.000 HD 
ENDBRANCH  16  17
ENDBRANCH  15  16
ENDBRANCH   4  15
ENDBRANCH   3   4
ENDBRANCH   2   3
TORSDOF 9
ENDMDL
MODEL       29
REMARK 921   NORMALIZED FREE ENERGY PREDICTED BY IDOCK:   -4.45 KCAL/MOL
REMARK 922        TOTAL FREE ENERGY PREDICTED BY IDOCK:   -7.73 KCAL/MOL
REMARK 923 INTER-LIGAND FREE ENERGY PREDICTED BY IDOCK:   -6.85 KCAL/MOL
REMARK 924 INTRA-LIGAND FREE ENERGY PREDICTED BY IDOCK:   -0.89 KCAL/MOL
REMARK 927      BINDING AFFINITY PREDICTED BY RF-SCORE:    0.00 PKD
ROOT
HETATM    1  C   UNL     1     -12.097  11.908  63.218  1.00  0.00    -0.466 C  
HETATM    2  C   UNL     1     -12.134  13.215  64.000  1.00  0.00    -0.511 C  
ENDROOT
BRANCH   2   3
HETATM    3  C   UNL     1     -12.425  12.978  65.488  1.00  0.00    -0.496 C  
BRANCH   3   4
HETATM    4  C   UNL     1     -11.331  13.483  66.481  1.00  0.00    -0.340 C  
HETATM    5  C   UNL     1     -10.093  13.981  65.708  1.00  0.00    -0.345 C  
BRANCH   4   6
HETATM    6  C   UNL     1     -10.915  12.280  67.376  1.00  0.00    -0.253 C  
BRANCH   6   7
HETATM    7  O   UNL     1     -12.061  11.717  68.041  1.00  0.00    -0.597 OA 
BRANCH   7   8
HETATM    8  C   UNL     1     -11.984  11.599  69.392  1.00  0.00    -0.316 C  
HETATM    9  H   UNL     1     -11.641   9.615  68.974  1.00  0.00     0.000 HD 
HETATM   10  O   UNL     1     -12.142  12.511  70.191  1.00  0.00    -0.340 OA 
HETATM   11  N   UNL     1     -11.688  10.311  69.718  1.00  0.00    -0.222 N  
BRANCH  11  12
HETATM   12  C   UNL     1     -11.438   9.890  71.086  1.00  0.00    -0.383 C  
HETATM   13  C   UNL     1     -10.271   8.915  71.150  1.00  0.00    -0.336 C  
HETATM   14  C   UNL     1     -12.694   9.272  71.700  1.00  0.00    -0.442 C  
ENDBRANCH  11  12
ENDBRANCH   7   8
ENDBRANCH   6   7
ENDBRANCH   4   6
BRANCH   4  15
HETATM   15  C   UNL     1     -11.854  14.637  67.374  1.00  0.00    -0.348 C  
BRANCH  15  16
HETATM   16  O   UNL     1     -10.806  15.105  68.241  1.00  0.00    -0.247 OA 
BRANCH  16  17
HETATM   17  C   UNL     1     -11.168  15.438  69.500  1.00  0.00    -0.285 C  
HETATM   18  O   UNL     1     -10.426  15.707  70.429  1.00  0.00    -0.315 OA 
HETATM   19  H1  UNL     1     -12.789  15.655  70.563  1.00  0.00     0.000 HD 
HETATM   20  N   UNL     1     -12.516  15.404  69.613  1.00  0.00    -0.605 N  
HETATM   21  H2  UNL     1     -13.161  15.163  68.861  1.00  0.00     0.000 HD 
ENDBRANCH  16  17
ENDBRANCH  15  16
ENDBRANCH   4  15
ENDBRANCH   3   4
ENDBRANCH   2   3
TORSDOF 9
ENDMDL
MODEL       30
REMARK 921   NORMALIZED FREE ENERGY PREDICTED BY IDOCK:   -4.44 KCAL/MOL
REMARK 922        TOTAL FREE ENERGY PREDICTED BY IDOCK:   -7.72 KCAL/MOL
REMARK 923 INTER-LIGAND FREE ENERGY PREDICTED BY IDOCK:   -7.13 KCAL/MOL
REMARK 924 INTRA-LIGAND FREE ENERGY PREDICTED BY IDOCK:   -0.59 KCAL/MOL
REMARK 927      BINDING AFFINITY PREDICTED BY RF-SCORE:    0.00 PKD
ROOT
HETATM    1  C   UNL     1     -11.316  14.421  69.157  1.00  0.00    -0.308 C  
HETATM    2  C   UNL     1     -10.629  15.773  69.298  1.00  0.00    -0.244 C  
ENDROOT
BRANCH   2   3
HETATM    3  C   UNL     1     -11.134  16.778  68.254  1.00  0.00    -0.259 C  
BRANCH   3   4
HETATM    4  C   UNL     1     -10.044  17.394  67.323  1.00  0.00    -0.310 C  
HETATM    5  C   UNL     1     -10.534  18.734  66.736  1.00  0.00    -0.478 C  
BRANCH   4   6
HETATM    6  C   UNL     1      -9.799  16.395  66.156  1.00  0.00    -0.338 C  
BRANCH   6   7
HETATM    7  O   UNL     1     -10.553  16.776  64.989  1.00  0.00    -0.695 OA 
BRANCH   7   8
HETATM    8  C   UNL     1     -11.491  15.894  64.556  1.00  0.00    -0.283 C  
HETATM    9  H   UNL     1     -10.428  14.550  65.693  1.00  0.00     0.000 HD 
HETATM   10  O   UNL     1     -12.407  16.157  63.791  1.00  0.00    -0.864 OA 
HETATM   11  N   UNL     1     -11.261  14.675  65.118  1.00  0.00    -0.355 N  
BRANCH  11  12
HETATM   12  C   UNL     1     -12.157  13.548  64.927  1.00  0.00    -0.397 C  
HETATM   13  C   UNL     1     -11.925  12.484  65.992  1.00  0.00    -0.456 C  
HETATM   14  C   UNL     1     -11.993  12.957  63.528  1.00  0.00    -0.629 C  
ENDBRANCH  11  12
ENDBRANCH   7   8
ENDBRANCH   6   7
ENDBRANCH   4   6
BRANCH   4  15
HETATM   15  C   UNL     1      -8.714  17.643  68.080  1.00  0.00    -0.265 C  
BRANCH  15  16
HETATM   16  O   UNL     1      -8.723  18.952  68.677  1.00  0.00    -0.341 OA 
BRANCH  16  17
HETATM   17  C   UNL     1      -7.637  19.724  68.453  1.00  0.00    -0.301 C  
HETATM   18  O   UNL     1      -7.313  20.246  67.399  1.00  0.00    -0.274 OA 
HETATM   19  H1  UNL     1      -6.085  20.409  69.416  1.00  0.00     0.000 HD 
HETATM   20  N   UNL     1      -6.905  19.826  69.586  1.00  0.00    -0.329 N  
HETATM   21  H2  UNL     1      -7.138  19.385  70.475  1.00  0.00     0.000 HD 
ENDBRANCH  16  17
ENDBRANCH  15  16
ENDBRANCH   4  15
ENDBRANCH   3   4
ENDBRANCH   2   3
TORSDOF 9
ENDMDL
MODEL       31
REMARK 921   NORMALIZED FREE ENERGY PREDICTED BY IDOCK:   -4.44 KCAL/MOL
REMARK 922        TOTAL FREE ENERGY PREDICTED BY IDOCK:   -7.72 KCAL/MOL
REMARK 923 INTER-LIGAND FREE ENERGY PREDICTED BY IDOCK:   -7.18 KCAL/MOL
REMARK 924 INTRA-LIGAND FREE ENERGY PREDICTED BY IDOCK:   -0.53 KCAL/MOL
REMARK 927      BINDING AFFINITY PREDICTED BY RF-SCORE:    0.00 PKD
ROOT
HETATM    1  C   UNL     1      -7.220  13.682  68.429  1.00  0.00    -0.109 C  
HETATM    2  C   UNL     1      -8.605  13.259  67.956  1.00  0.00    -0.178 C  
ENDROOT
BRANCH   2   3
HETATM    3  C   UNL     1      -9.082  14.106  66.769  1.00  0.00    -0.266 C  
BRANCH   3   4
HETATM    4  C   UNL     1     -10.347  14.984  67.027  1.00  0.00    -0.269 C  
HETATM    5  C   UNL     1      -9.953  16.299  67.729  1.00  0.00    -0.246 C  
BRANCH   4   6
HETATM    6  C   UNL     1     -11.297  14.180  67.961  1.00  0.00    -0.299 C  
BRANCH   6   7
HETATM    7  O   UNL     1     -11.367  14.789  69.265  1.00  0.00    -0.263 OA 
BRANCH   7   8
HETATM    8  C   UNL     1     -11.847  14.015  70.272  1.00  0.00    -0.303 C  
HETATM    9  H   UNL     1     -11.940  15.797  71.295  1.00  0.00     0.000 HD 
HETATM   10  O   UNL     1     -11.989  12.802  70.225  1.00  0.00    -0.343 OA 
HETATM   11  N   UNL     1     -12.160  14.802  71.339  1.00  0.00    -0.329 N  
BRANCH  11  12
HETATM   12  C   UNL     1     -12.793  14.277  72.536  1.00  0.00    -0.357 C  
HETATM   13  C   UNL     1     -14.272  14.004  72.293  1.00  0.00    -0.599 C  
HETATM   14  C   UNL     1     -12.606  15.236  73.711  1.00  0.00    -0.736 C  
ENDBRANCH  11  12
ENDBRANCH   7   8
ENDBRANCH   6   7
ENDBRANCH   4   6
BRANCH   4  15
HETATM   15  C   UNL     1     -11.086  15.329  65.709  1.00  0.00    -0.301 C  
BRANCH  15  16
HETATM   16  O   UNL     1     -11.041  14.208  64.809  1.00  0.00    -0.358 OA 
BRANCH  16  17
HETATM   17  C   UNL     1     -12.229  13.660  64.469  1.00  0.00    -0.401 C  
HETATM   18  O   UNL     1     -12.941  12.960  65.171  1.00  0.00    -0.758 OA 
HETATM   19  H1  UNL     1     -13.425  13.559  62.932  1.00  0.00     0.000 HD 
HETATM   20  N   UNL     1     -12.529  13.973  63.188  1.00  0.00    -1.070 N  
HETATM   21  H2  UNL     1     -11.946  14.538  62.571  1.00  0.00     0.000 HD 
ENDBRANCH  16  17
ENDBRANCH  15  16
ENDBRANCH   4  15
ENDBRANCH   3   4
ENDBRANCH   2   3
TORSDOF 9
ENDMDL
MODEL       32
REMARK 921   NORMALIZED FREE ENERGY PREDICTED BY IDOCK:   -4.43 KCAL/MOL
REMARK 922        TOTAL FREE ENERGY PREDICTED BY IDOCK:   -7.71 KCAL/MOL
REMARK 923 INTER-LIGAND FREE ENERGY PREDICTED BY IDOCK:   -6.85 KCAL/MOL
REMARK 924 INTRA-LIGAND FREE ENERGY PREDICTED BY IDOCK:   -0.86 KCAL/MOL
REMARK 927      BINDING AFFINITY PREDICTED BY RF-SCORE:    0.00 PKD
ROOT
HETATM    1  C   UNL     1     -12.020  12.379  63.223  1.00  0.00    -0.509 C  
HETATM    2  C   UNL     1     -11.020  11.942  64.284  1.00  0.00    -0.411 C  
ENDROOT
BRANCH   2   3
HETATM    3  C   UNL     1     -10.538  13.126  65.133  1.00  0.00    -0.332 C  
BRANCH   3   4
HETATM    4  C   UNL     1     -11.046  13.154  66.609  1.00  0.00    -0.316 C  
HETATM    5  C   UNL     1     -12.534  13.557  66.656  1.00  0.00    -0.263 C  
BRANCH   4   6
HETATM    6  C   UNL     1     -10.212  14.221  67.375  1.00  0.00    -0.247 C  
BRANCH   6   7
HETATM    7  O   UNL     1     -10.450  14.135  68.793  1.00  0.00    -0.244 OA 
BRANCH   7   8
HETATM    8  C   UNL     1     -11.248  15.091  69.335  1.00  0.00    -0.284 C  
HETATM    9  H   UNL     1     -11.807  13.582  70.615  1.00  0.00     0.000 HD 
HETATM   10  O   UNL     1     -11.346  16.241  68.932  1.00  0.00    -0.342 OA 
HETATM   11  N   UNL     1     -11.913  14.574  70.405  1.00  0.00    -0.298 N  
BRANCH  11  12
HETATM   12  C   UNL     1     -12.767  15.383  71.257  1.00  0.00    -0.436 C  
HETATM   13  C   UNL     1     -11.963  16.028  72.377  1.00  0.00    -0.644 C  
HETATM   14  C   UNL     1     -13.912  14.545  71.826  1.00  0.00    -0.556 C  
ENDBRANCH  11  12
ENDBRANCH   7   8
ENDBRANCH   6   7
ENDBRANCH   4   6
BRANCH   4  15
HETATM   15  C   UNL     1     -10.885  11.775  67.299  1.00  0.00    -0.253 C  
BRANCH  15  16
HETATM   16  O   UNL     1     -12.076  11.450  68.036  1.00  0.00    -0.629 OA 
BRANCH  16  17
HETATM   17  C   UNL     1     -11.901  11.018  69.305  1.00  0.00    -0.340 C  
HETATM   18  O   UNL     1     -12.771  10.708  70.101  1.00  0.00    -0.308 OA 
HETATM   19  H1  UNL     1     -10.450  10.677  70.563  1.00  0.00     0.000 HD 
HETATM   20  N   UNL     1     -10.582  11.002  69.606  1.00  0.00    -0.439 N  
HETATM   21  H2  UNL     1      -9.833  11.275  68.969  1.00  0.00     0.000 HD 
ENDBRANCH  16  17
ENDBRANCH  15  16
ENDBRANCH   4  15
ENDBRANCH   3   4
ENDBRANCH   2   3
TORSDOF 9
ENDMDL
MODEL       33
REMARK 921   NORMALIZED FREE ENERGY PREDICTED BY IDOCK:   -4.41 KCAL/MOL
REMARK 922        TOTAL FREE ENERGY PREDICTED BY IDOCK:   -7.68 KCAL/MOL
REMARK 923 INTER-LIGAND FREE ENERGY PREDICTED BY IDOCK:   -6.89 KCAL/MOL
REMARK 924 INTRA-LIGAND FREE ENERGY PREDICTED BY IDOCK:   -0.78 KCAL/MOL
REMARK 927      BINDING AFFINITY PREDICTED BY RF-SCORE:    0.00 PKD
ROOT
HETATM    1  C   UNL     1     -12.477  12.039  63.438  1.00  0.00    -0.625 C  
HETATM    2  C   UNL     1     -12.038  13.327  64.122  1.00  0.00    -0.494 C  
ENDROOT
BRANCH   2   3
HETATM    3  C   UNL     1     -12.513  13.386  65.580  1.00  0.00    -0.534 C  
BRANCH   3   4
HETATM    4  C   UNL     1     -11.388  13.340  66.661  1.00  0.00    -0.353 C  
HETATM    5  C   UNL     1     -11.769  12.361  67.790  1.00  0.00    -0.413 C  
BRANCH   4   6
HETATM    6  C   UNL     1     -11.251  14.770  67.261  1.00  0.00    -0.346 C  
BRANCH   6   7
HETATM    7  O   UNL     1     -10.012  15.379  66.853  1.00  0.00    -0.236 OA 
BRANCH   7   8
HETATM    8  C   UNL     1     -10.103  16.568  66.204  1.00  0.00    -0.348 C  
HETATM    9  H   UNL     1      -9.123  17.293  67.860  1.00  0.00     0.000 HD 
HETATM   10  O   UNL     1     -10.644  16.742  65.121  1.00  0.00    -0.663 OA 
HETATM   11  N   UNL     1      -9.486  17.535  66.938  1.00  0.00    -0.265 N  
BRANCH  11  12
HETATM   12  C   UNL     1      -9.328  18.897  66.458  1.00  0.00    -0.335 C  
HETATM   13  C   UNL     1      -8.063  19.528  67.025  1.00  0.00    -0.302 C  
HETATM   14  C   UNL     1     -10.555  19.739  66.805  1.00  0.00    -0.586 C  
ENDBRANCH  11  12
ENDBRANCH   7   8
ENDBRANCH   6   7
ENDBRANCH   4   6
BRANCH   4  15
HETATM   15  C   UNL     1     -10.029  12.898  66.061  1.00  0.00    -0.272 C  
BRANCH  15  16
HETATM   16  O   UNL     1      -9.778  11.516  66.372  1.00  0.00    -0.197 OA 
BRANCH  16  17
HETATM   17  C   UNL     1      -9.604  10.684  65.321  1.00  0.00    -0.241 C  
HETATM   18  O   UNL     1      -9.852   9.490  65.282  1.00  0.00    -0.282 OA 
HETATM   19  H1  UNL     1      -8.937  10.736  63.489  1.00  0.00     0.000 HD 
HETATM   20  N   UNL     1      -9.068  11.364  64.281  1.00  0.00    -0.401 N  
HETATM   21  H2  UNL     1      -8.831  12.356  64.290  1.00  0.00     0.000 HD 
ENDBRANCH  16  17
ENDBRANCH  15  16
ENDBRANCH   4  15
ENDBRANCH   3   4
ENDBRANCH   2   3
TORSDOF 9
ENDMDL
MODEL       34
REMARK 921   NORMALIZED FREE ENERGY PREDICTED BY IDOCK:   -4.38 KCAL/MOL
REMARK 922        TOTAL FREE ENERGY PREDICTED BY IDOCK:   -7.63 KCAL/MOL
REMARK 923 INTER-LIGAND FREE ENERGY PREDICTED BY IDOCK:   -7.01 KCAL/MOL
REMARK 924 INTRA-LIGAND FREE ENERGY PREDICTED BY IDOCK:   -0.62 KCAL/MOL
REMARK 927      BINDING AFFINITY PREDICTED BY RF-SCORE:    0.00 PKD
ROOT
HETATM    1  C   UNL     1     -12.136  15.235  70.270  1.00  0.00    -0.388 C  
HETATM    2  C   UNL     1     -11.220  14.699  69.177  1.00  0.00    -0.291 C  
ENDROOT
BRANCH   2   3
HETATM    3  C   UNL     1     -11.886  13.566  68.384  1.00  0.00    -0.408 C  
BRANCH   3   4
HETATM    4  C   UNL     1     -11.312  13.312  66.954  1.00  0.00    -0.351 C  
HETATM    5  C   UNL     1      -9.775  13.439  66.963  1.00  0.00    -0.239 C  
BRANCH   4   6
HETATM    6  C   UNL     1     -11.901  14.398  66.009  1.00  0.00    -0.372 C  
BRANCH   6   7
HETATM    7  O   UNL     1     -10.868  14.975  65.187  1.00  0.00    -0.351 OA 
BRANCH   7   8
HETATM    8  C   UNL     1     -10.870  16.328  65.067  1.00  0.00    -0.320 C  
HETATM    9  H   UNL     1      -9.851  16.262  66.853  1.00  0.00     0.000 HD 
HETATM   10  O   UNL     1     -11.390  16.956  64.157  1.00  0.00    -1.208 OA 
HETATM   11  N   UNL     1     -10.191  16.876  66.112  1.00  0.00    -0.335 N  
BRANCH  11  12
HETATM   12  C   UNL     1      -9.932  18.302  66.211  1.00  0.00    -0.357 C  
HETATM   13  C   UNL     1      -8.453  18.570  66.458  1.00  0.00    -0.291 C  
HETATM   14  C   UNL     1     -10.786  18.931  67.312  1.00  0.00    -0.523 C  
ENDBRANCH  11  12
ENDBRANCH   7   8
ENDBRANCH   6   7
ENDBRANCH   4   6
BRANCH   4  15
HETATM   15  C   UNL     1     -11.690  11.904  66.425  1.00  0.00    -0.155 C  
BRANCH  15  16
HETATM   16  O   UNL     1     -11.418  10.910  67.429  1.00  0.00    -0.479 OA 
BRANCH  16  17
HETATM   17  C   UNL     1     -10.774   9.796  67.014  1.00  0.00    -0.166 C  
HETATM   18  O   UNL     1     -10.134   9.659  65.986  1.00  0.00    -0.283 OA 
HETATM   19  H1  UNL     1     -10.478   7.958  67.596  1.00  0.00     0.000 HD 
HETATM   20  N   UNL     1     -10.964   8.798  67.908  1.00  0.00    -0.491 N  
HETATM   21  H2  UNL     1     -11.510   8.876  68.766  1.00  0.00     0.000 HD 
ENDBRANCH  16  17
ENDBRANCH  15  16
ENDBRANCH   4  15
ENDBRANCH   3   4
ENDBRANCH   2   3
TORSDOF 9
ENDMDL
MODEL       35
REMARK 921   NORMALIZED FREE ENERGY PREDICTED BY IDOCK:   -4.34 KCAL/MOL
REMARK 922        TOTAL FREE ENERGY PREDICTED BY IDOCK:   -7.57 KCAL/MOL
REMARK 923 INTER-LIGAND FREE ENERGY PREDICTED BY IDOCK:   -6.96 KCAL/MOL
REMARK 924 INTRA-LIGAND FREE ENERGY PREDICTED BY IDOCK:   -0.61 KCAL/MOL
REMARK 927      BINDING AFFINITY PREDICTED BY RF-SCORE:    0.00 PKD
ROOT
HETATM    1  C   UNL     1      -9.908  16.793  65.838  1.00  0.00    -0.276 C  
HETATM    2  C   UNL     1      -9.545  15.316  65.921  1.00  0.00    -0.377 C  
ENDROOT
BRANCH   2   3
HETATM    3  C   UNL     1     -10.503  14.449  65.092  1.00  0.00    -0.437 C  
BRANCH   3   4
HETATM    4  C   UNL     1     -11.422  13.486  65.906  1.00  0.00    -0.338 C  
HETATM    5  C   UNL     1     -12.888  13.960  65.841  1.00  0.00    -0.387 C  
BRANCH   4   6
HETATM    6  C   UNL     1     -10.948  13.521  67.388  1.00  0.00    -0.272 C  
BRANCH   6   7
HETATM    7  O   UNL     1     -12.072  13.631  68.282  1.00  0.00    -0.357 OA 
BRANCH   7   8
HETATM    8  C   UNL     1     -12.137  14.754  69.043  1.00  0.00    -0.221 C  
HETATM    9  H   UNL     1     -13.105  13.524  70.377  1.00  0.00     0.000 HD 
HETATM   10  O   UNL     1     -11.715  15.854  68.716  1.00  0.00    -0.387 OA 
HETATM   11  N   UNL     1     -12.731  14.462  70.233  1.00  0.00    -0.322 N  
BRANCH  11  12
HETATM   12  C   UNL     1     -12.853  15.436  71.303  1.00  0.00    -0.452 C  
HETATM   13  C   UNL     1     -11.738  15.263  72.326  1.00  0.00    -0.539 C  
HETATM   14  C   UNL     1     -14.223  15.333  71.974  1.00  0.00    -0.679 C  
ENDBRANCH  11  12
ENDBRANCH   7   8
ENDBRANCH   6   7
ENDBRANCH   4   6
BRANCH   4  15
HETATM   15  C   UNL     1     -11.348  12.032  65.373  1.00  0.00    -0.321 C  
BRANCH  15  16
HETATM   16  O   UNL     1     -10.006  11.728  64.953  1.00  0.00    -0.245 OA 
BRANCH  16  17
HETATM   17  C   UNL     1      -9.860  10.672  64.121  1.00  0.00    -0.335 C  
HETATM   18  O   UNL     1      -9.215   9.658  64.329  1.00  0.00    -0.246 OA 
HETATM   19  H1  UNL     1     -10.413  10.108  62.337  1.00  0.00     0.000 HD 
HETATM   20  N   UNL     1     -10.523  10.905  62.965  1.00  0.00    -0.769 N  
HETATM   21  H2  UNL     1     -11.054  11.750  62.753  1.00  0.00     0.000 HD 
ENDBRANCH  16  17
ENDBRANCH  15  16
ENDBRANCH   4  15
ENDBRANCH   3   4
ENDBRANCH   2   3
TORSDOF 9
ENDMDL
MODEL       36
REMARK 921   NORMALIZED FREE ENERGY PREDICTED BY IDOCK:   -4.33 KCAL/MOL
REMARK 922        TOTAL FREE ENERGY PREDICTED BY IDOCK:   -7.55 KCAL/MOL
REMARK 923 INTER-LIGAND FREE ENERGY PREDICTED BY IDOCK:   -6.63 KCAL/MOL
REMARK 924 INTRA-LIGAND FREE ENERGY PREDICTED BY IDOCK:   -0.93 KCAL/MOL
REMARK 927      BINDING AFFINITY PREDICTED BY RF-SCORE:    0.00 PKD
ROOT
HETATM    1  C   UNL     1     -12.567  11.968  63.331  1.00  0.00    -0.592 C  
HETATM    2  C   UNL     1     -12.059  13.265  63.947  1.00  0.00    -0.531 C  
ENDROOT
BRANCH   2   3
HETATM    3  C   UNL     1     -12.553  13.440  65.389  1.00  0.00    -0.528 C  
BRANCH   3   4
HETATM    4  C   UNL     1     -11.442  13.479  66.486  1.00  0.00    -0.365 C  
HETATM    5  C   UNL     1     -11.840  12.593  67.683  1.00  0.00    -0.390 C  
BRANCH   4   6
HETATM    6  C   UNL     1     -11.311  14.951  66.971  1.00  0.00    -0.342 C  
BRANCH   6   7
HETATM    7  O   UNL     1     -10.957  15.821  65.879  1.00  0.00    -0.287 OA 
BRANCH   7   8
HETATM    8  C   UNL     1      -9.955  16.709  66.109  1.00  0.00    -0.337 C  
HETATM    9  H   UNL     1     -11.473  17.894  66.829  1.00  0.00     0.000 HD 
HETATM   10  O   UNL     1      -8.777  16.531  65.835  1.00  0.00    -0.456 OA 
HETATM   11  N   UNL     1     -10.464  17.822  66.704  1.00  0.00    -0.331 N  
BRANCH  11  12
HETATM   12  C   UNL     1      -9.622  18.912  67.167  1.00  0.00    -0.306 C  
HETATM   13  C   UNL     1      -9.751  19.095  68.674  1.00  0.00    -0.478 C  
HETATM   14  C   UNL     1      -9.965  20.209  66.434  1.00  0.00    -0.573 C  
ENDBRANCH  11  12
ENDBRANCH   7   8
ENDBRANCH   6   7
ENDBRANCH   4   6
BRANCH   4  15
HETATM   15  C   UNL     1     -10.077  12.989  65.939  1.00  0.00    -0.288 C  
BRANCH  15  16
HETATM   16  O   UNL     1      -9.396  12.210  66.938  1.00  0.00    -0.191 OA 
BRANCH  16  17
HETATM   17  C   UNL     1      -8.083  12.478  67.120  1.00  0.00    -0.156 C  
HETATM   18  O   UNL     1      -7.200  11.676  67.374  1.00  0.00    -0.109 OA 
HETATM   19  H1  UNL     1      -6.878  14.011  67.150  1.00  0.00     0.000 HD 
HETATM   20  N   UNL     1      -7.868  13.809  67.012  1.00  0.00    -0.368 N  
HETATM   21  H2  UNL     1      -8.588  14.505  66.822  1.00  0.00     0.000 HD 
ENDBRANCH  16  17
ENDBRANCH  15  16
ENDBRANCH   4  15
ENDBRANCH   3   4
ENDBRANCH   2   3
TORSDOF 9
ENDMDL
MODEL       37
REMARK 921   NORMALIZED FREE ENERGY PREDICTED BY IDOCK:   -4.32 KCAL/MOL
REMARK 922        TOTAL FREE ENERGY PREDICTED BY IDOCK:   -7.54 KCAL/MOL
REMARK 923 INTER-LIGAND FREE ENERGY PREDICTED BY IDOCK:   -6.87 KCAL/MOL
REMARK 924 INTRA-LIGAND FREE ENERGY PREDICTED BY IDOCK:   -0.67 KCAL/MOL
REMARK 927      BINDING AFFINITY PREDICTED BY RF-SCORE:    0.00 PKD
ROOT
HETATM    1  C   UNL     1     -12.065  13.112  69.497  1.00  0.00    -0.296 C  
HETATM    2  C   UNL     1     -11.157  13.267  68.285  1.00  0.00    -0.294 C  
ENDROOT
BRANCH   2   3
HETATM    3  C   UNL     1     -11.622  14.407  67.369  1.00  0.00    -0.398 C  
BRANCH   3   4
HETATM    4  C   UNL     1     -10.539  14.991  66.408  1.00  0.00    -0.310 C  
HETATM    5  C   UNL     1      -9.211  14.222  66.567  1.00  0.00    -0.259 C  
BRANCH   4   6
HETATM    6  C   UNL     1     -10.309  16.478  66.803  1.00  0.00    -0.296 C  
BRANCH   6   7
HETATM    7  O   UNL     1      -9.513  17.154  65.811  1.00  0.00    -0.525 OA 
BRANCH   7   8
HETATM    8  C   UNL     1      -8.322  17.658  66.226  1.00  0.00    -0.216 C  
HETATM    9  H   UNL     1      -9.074  17.284  68.103  1.00  0.00     0.000 HD 
HETATM   10  O   UNL     1      -7.442  18.085  65.493  1.00  0.00    -0.538 OA 
HETATM   11  N   UNL     1      -8.254  17.600  67.585  1.00  0.00    -0.222 N  
BRANCH  11  12
HETATM   12  C   UNL     1      -7.060  17.973  68.322  1.00  0.00    -0.241 C  
HETATM   13  C   UNL     1      -6.650  16.868  69.287  1.00  0.00    -0.232 C  
HETATM   14  C   UNL     1      -7.273  19.290  69.068  1.00  0.00    -0.388 C  
ENDBRANCH  11  12
ENDBRANCH   7   8
ENDBRANCH   6   7
ENDBRANCH   4   6
BRANCH   4  15
HETATM   15  C   UNL     1     -10.982  14.910  64.925  1.00  0.00    -0.408 C  
BRANCH  15  16
HETATM   16  O   UNL     1     -10.610  13.638  64.366  1.00  0.00    -0.423 OA 
BRANCH  16  17
HETATM   17  C   UNL     1     -11.585  12.950  63.731  1.00  0.00    -0.475 C  
HETATM   18  O   UNL     1     -12.781  13.188  63.750  1.00  0.00    -0.688 OA 
HETATM   19  H1  UNL     1     -11.785  11.382  62.590  1.00  0.00     0.000 HD 
HETATM   20  N   UNL     1     -11.049  11.900  63.068  1.00  0.00    -0.663 N  
HETATM   21  H2  UNL     1     -10.057  11.664  63.051  1.00  0.00     0.000 HD 
ENDBRANCH  16  17
ENDBRANCH  15  16
ENDBRANCH   4  15
ENDBRANCH   3   4
ENDBRANCH   2   3
TORSDOF 9
ENDMDL
MODEL       38
REMARK 921   NORMALIZED FREE ENERGY PREDICTED BY IDOCK:   -4.28 KCAL/MOL
REMARK 922        TOTAL FREE ENERGY PREDICTED BY IDOCK:   -7.48 KCAL/MOL
REMARK 923 INTER-LIGAND FREE ENERGY PREDICTED BY IDOCK:   -6.81 KCAL/MOL
REMARK 924 INTRA-LIGAND FREE ENERGY PREDICTED BY IDOCK:   -0.68 KCAL/MOL
REMARK 927      BINDING AFFINITY PREDICTED BY RF-SCORE:    0.00 PKD
ROOT
HETATM    1  C   UNL     1      -6.902  16.005  67.731  1.00  0.00    -0.168 C  
HETATM    2  C   UNL     1      -8.308  15.432  67.615  1.00  0.00    -0.174 C  
ENDROOT
BRANCH   2   3
HETATM    3  C   UNL     1      -8.890  15.635  66.210  1.00  0.00    -0.364 C  
BRANCH   3   4
HETATM    4  C   UNL     1     -10.379  16.099  66.153  1.00  0.00    -0.350 C  
HETATM    5  C   UNL     1     -11.126  15.664  67.431  1.00  0.00    -0.260 C  
BRANCH   4   6
HETATM    6  C   UNL     1     -11.042  15.411  64.925  1.00  0.00    -0.423 C  
BRANCH   6   7
HETATM    7  O   UNL     1     -12.150  14.587  65.337  1.00  0.00    -0.365 OA 
BRANCH   7   8
HETATM    8  C   UNL     1     -12.153  13.305  64.890  1.00  0.00    -0.397 C  
HETATM    9  H   UNL     1     -10.120  13.583  64.757  1.00  0.00     0.000 HD 
HETATM   10  O   UNL     1     -13.149  12.613  64.734  1.00  0.00    -0.852 OA 
HETATM   11  N   UNL     1     -10.873  12.903  64.655  1.00  0.00    -0.322 N  
BRANCH  11  12
HETATM   12  C   UNL     1     -10.542  11.543  64.266  1.00  0.00    -0.347 C  
HETATM   13  C   UNL     1      -9.944  10.773  65.435  1.00  0.00    -0.330 C  
HETATM   14  C   UNL     1      -9.587  11.541  63.072  1.00  0.00    -0.371 C  
ENDBRANCH  11  12
ENDBRANCH   7   8
ENDBRANCH   6   7
ENDBRANCH   4   6
BRANCH   4  15
HETATM   15  C   UNL     1     -10.497  17.638  66.012  1.00  0.00    -0.278 C  
BRANCH  15  16
HETATM   16  O   UNL     1      -9.189  18.234  65.995  1.00  0.00    -0.508 OA 
BRANCH  16  17
HETATM   17  C   UNL     1      -9.039  19.380  66.697  1.00  0.00    -0.346 C  
HETATM   18  O   UNL     1      -8.579  19.495  67.821  1.00  0.00    -0.300 OA 
HETATM   19  H1  UNL     1      -9.398  21.287  66.509  1.00  0.00     0.000 HD 
HETATM   20  N   UNL     1      -9.511  20.423  65.979  1.00  0.00    -0.651 N  
HETATM   21  H2  UNL     1      -9.919  20.356  65.046  1.00  0.00     0.000 HD 
ENDBRANCH  16  17
ENDBRANCH  15  16
ENDBRANCH   4  15
ENDBRANCH   3   4
ENDBRANCH   2   3
TORSDOF 9
ENDMDL
MODEL       39
REMARK 921   NORMALIZED FREE ENERGY PREDICTED BY IDOCK:   -4.27 KCAL/MOL
REMARK 922        TOTAL FREE ENERGY PREDICTED BY IDOCK:   -7.46 KCAL/MOL
REMARK 923 INTER-LIGAND FREE ENERGY PREDICTED BY IDOCK:   -6.72 KCAL/MOL
REMARK 924 INTRA-LIGAND FREE ENERGY PREDICTED BY IDOCK:   -0.74 KCAL/MOL
REMARK 927      BINDING AFFINITY PREDICTED BY RF-SCORE:    0.00 PKD
ROOT
HETATM    1  C   UNL     1     -10.938  16.018  70.292  1.00  0.00    -0.360 C  
HETATM    2  C   UNL     1     -10.159  16.574  69.107  1.00  0.00    -0.287 C  
ENDROOT
BRANCH   2   3
HETATM    3  C   UNL     1     -10.907  16.359  67.784  1.00  0.00    -0.306 C  
BRANCH   3   4
HETATM    4  C   UNL     1     -10.013  16.058  66.540  1.00  0.00    -0.293 C  
HETATM    5  C   UNL     1     -10.781  16.371  65.240  1.00  0.00    -0.312 C  
BRANCH   4   6
HETATM    6  C   UNL     1      -9.665  14.542  66.565  1.00  0.00    -0.285 C  
BRANCH   6   7
HETATM    7  O   UNL     1     -10.680  13.795  67.262  1.00  0.00    -0.279 OA 
BRANCH   7   8
HETATM    8  C   UNL     1     -11.266  12.778  66.577  1.00  0.00    -0.307 C  
HETATM    9  H   UNL     1     -10.270  13.586  64.970  1.00  0.00     0.000 HD 
HETATM   10  O   UNL     1     -12.030  11.952  67.055  1.00  0.00    -0.615 OA 
HETATM   11  N   UNL     1     -10.859  12.813  65.278  1.00  0.00    -0.285 N  
BRANCH  11  12
HETATM   12  C   UNL     1     -11.235  11.792  64.316  1.00  0.00    -0.344 C  
HETATM   13  C   UNL     1     -10.058  11.431  63.420  1.00  0.00    -0.444 C  
HETATM   14  C   UNL     1     -12.430  12.249  63.481  1.00  0.00    -0.642 C  
ENDBRANCH  11  12
ENDBRANCH   7   8
ENDBRANCH   6   7
ENDBRANCH   4   6
BRANCH   4  15
HETATM   15  C   UNL     1      -8.706  16.891  66.556  1.00  0.00    -0.269 C  
BRANCH  15  16
HETATM   16  O   UNL     1      -8.890  18.114  65.821  1.00  0.00    -0.462 OA 
BRANCH  16  17
HETATM   17  C   UNL     1      -8.819  19.261  66.533  1.00  0.00    -0.346 C  
HETATM   18  O   UNL     1      -8.076  19.497  67.471  1.00  0.00    -0.276 OA 
HETATM   19  H1  UNL     1      -9.682  21.008  66.610  1.00  0.00     0.000 HD 
HETATM   20  N   UNL     1      -9.736  20.143  66.073  1.00  0.00    -0.611 N  
HETATM   21  H2  UNL     1     -10.384  19.968  65.305  1.00  0.00     0.000 HD 
ENDBRANCH  16  17
ENDBRANCH  15  16
ENDBRANCH   4  15
ENDBRANCH   3   4
ENDBRANCH   2   3
TORSDOF 9
ENDMDL
MODEL       40
REMARK 921   NORMALIZED FREE ENERGY PREDICTED BY IDOCK:   -4.24 KCAL/MOL
REMARK 922        TOTAL FREE ENERGY PREDICTED BY IDOCK:   -7.42 KCAL/MOL
REMARK 923 INTER-LIGAND FREE ENERGY PREDICTED BY IDOCK:   -6.81 KCAL/MOL
REMARK 924 INTRA-LIGAND FREE ENERGY PREDICTED BY IDOCK:   -0.61 KCAL/MOL
REMARK 927      BINDING AFFINITY PREDICTED BY RF-SCORE:    0.00 PKD
ROOT
HETATM    1  C   UNL     1     -10.598  17.100  68.247  1.00  0.00    -0.375 C  
HETATM    2  C   UNL     1     -10.502  16.213  67.013  1.00  0.00    -0.306 C  
ENDROOT
BRANCH   2   3
HETATM    3  C   UNL     1     -10.344  14.733  67.389  1.00  0.00    -0.242 C  
BRANCH   3   4
HETATM    4  C   UNL     1     -11.038  13.713  66.433  1.00  0.00    -0.307 C  
HETATM    5  C   UNL     1     -12.523  14.081  66.241  1.00  0.00    -0.439 C  
BRANCH   4   6
HETATM    6  C   UNL     1     -10.950  12.309  67.097  1.00  0.00    -0.262 C  
BRANCH   6   7
HETATM    7  O   UNL     1     -12.146  12.022  67.847  1.00  0.00    -0.531 OA 
BRANCH   7   8
HETATM    8  C   UNL     1     -12.030  12.021  69.200  1.00  0.00    -0.268 C  
HETATM    9  H   UNL     1     -12.315   9.994  68.999  1.00  0.00     0.000 HD 
HETATM   10  O   UNL     1     -11.866  13.013  69.896  1.00  0.00    -0.322 OA 
HETATM   11  N   UNL     1     -12.112  10.743  69.661  1.00  0.00    -0.308 N  
BRANCH  11  12
HETATM   12  C   UNL     1     -11.921  10.405  71.061  1.00  0.00    -0.382 C  
HETATM   13  C   UNL     1     -10.949   9.242  71.212  1.00  0.00    -0.421 C  
HETATM   14  C   UNL     1     -13.258  10.081  71.727  1.00  0.00    -0.540 C  
ENDBRANCH  11  12
ENDBRANCH   7   8
ENDBRANCH   6   7
ENDBRANCH   4   6
BRANCH   4  15
HETATM   15  C   UNL     1     -10.355  13.672  65.042  1.00  0.00    -0.374 C  
BRANCH  15  16
HETATM   16  O   UNL     1      -9.980  12.322  64.715  1.00  0.00    -0.259 OA 
BRANCH  16  17
HETATM   17  C   UNL     1     -10.161  11.940  63.431  1.00  0.00    -0.449 C  
HETATM   18  O   UNL     1      -9.384  11.305  62.738  1.00  0.00    -0.345 OA 
HETATM   19  H1  UNL     1     -11.488  12.109  62.012  1.00  0.00     0.000 HD 
HETATM   20  N   UNL     1     -11.352  12.398  62.980  1.00  0.00    -0.679 N  
HETATM   21  H2  UNL     1     -12.014  12.948  63.528  1.00  0.00     0.000 HD 
ENDBRANCH  16  17
ENDBRANCH  15  16
ENDBRANCH   4  15
ENDBRANCH   3   4
ENDBRANCH   2   3
TORSDOF 9
ENDMDL
MODEL       41
REMARK 921   NORMALIZED FREE ENERGY PREDICTED BY IDOCK:   -4.23 KCAL/MOL
REMARK 922        TOTAL FREE ENERGY PREDICTED BY IDOCK:   -7.41 KCAL/MOL
REMARK 923 INTER-LIGAND FREE ENERGY PREDICTED BY IDOCK:   -6.46 KCAL/MOL
REMARK 924 INTRA-LIGAND FREE ENERGY PREDICTED BY IDOCK:   -0.95 KCAL/MOL
REMARK 927      BINDING AFFINITY PREDICTED BY RF-SCORE:    0.00 PKD
ROOT
HETATM    1  C   UNL     1      -8.774  11.575  68.387  1.00  0.00    -0.160 C  
HETATM    2  C   UNL     1      -9.782  12.579  67.844  1.00  0.00    -0.205 C  
ENDROOT
BRANCH   2   3
HETATM    3  C   UNL     1      -9.218  14.007  67.845  1.00  0.00    -0.195 C  
BRANCH   3   4
HETATM    4  C   UNL     1     -10.271  15.152  67.972  1.00  0.00    -0.230 C  
HETATM    5  C   UNL     1     -10.820  15.218  69.412  1.00  0.00    -0.263 C  
BRANCH   4   6
HETATM    6  C   UNL     1     -11.443  14.825  67.002  1.00  0.00    -0.353 C  
BRANCH   6   7
HETATM    7  O   UNL     1     -11.245  15.465  65.727  1.00  0.00    -0.298 OA 
BRANCH   7   8
HETATM    8  C   UNL     1     -11.683  14.789  64.633  1.00  0.00    -0.422 C  
HETATM    9  H   UNL     1     -10.153  13.495  65.097  1.00  0.00     0.000 HD 
HETATM   10  O   UNL     1     -12.606  15.137  63.910  1.00  0.00    -0.794 OA 
HETATM   11  N   UNL     1     -10.944  13.657  64.473  1.00  0.00    -0.393 N  
BRANCH  11  12
HETATM   12  C   UNL     1     -11.239  12.671  63.448  1.00  0.00    -0.344 C  
HETATM   13  C   UNL     1     -12.492  11.881  63.798  1.00  0.00    -0.537 C  
HETATM   14  C   UNL     1     -10.049  11.735  63.240  1.00  0.00    -0.448 C  
ENDBRANCH  11  12
ENDBRANCH   7   8
ENDBRANCH   6   7
ENDBRANCH   4   6
BRANCH   4  15
HETATM   15  C   UNL     1      -9.667  16.532  67.609  1.00  0.00    -0.239 C  
BRANCH  15  16
HETATM   16  O   UNL     1     -10.463  17.586  68.180  1.00  0.00    -0.357 OA 
BRANCH  16  17
HETATM   17  C   UNL     1     -10.575  18.719  67.451  1.00  0.00    -0.443 C  
HETATM   18  O   UNL     1     -10.775  19.845  67.874  1.00  0.00    -0.352 OA 
HETATM   19  H1  UNL     1     -10.550  19.284  65.585  1.00  0.00     0.000 HD 
HETATM   20  N   UNL     1     -10.465  18.430  66.135  1.00  0.00    -0.428 N  
HETATM   21  H2  UNL     1     -10.319  17.496  65.750  1.00  0.00     0.000 HD 
ENDBRANCH  16  17
ENDBRANCH  15  16
ENDBRANCH   4  15
ENDBRANCH   3   4
ENDBRANCH   2   3
TORSDOF 9
ENDMDL
MODEL       42
REMARK 921   NORMALIZED FREE ENERGY PREDICTED BY IDOCK:   -4.23 KCAL/MOL
REMARK 922        TOTAL FREE ENERGY PREDICTED BY IDOCK:   -7.41 KCAL/MOL
REMARK 923 INTER-LIGAND FREE ENERGY PREDICTED BY IDOCK:   -6.48 KCAL/MOL
REMARK 924 INTRA-LIGAND FREE ENERGY PREDICTED BY IDOCK:   -0.93 KCAL/MOL
REMARK 927      BINDING AFFINITY PREDICTED BY RF-SCORE:    0.00 PKD
ROOT
HETATM    1  C   UNL     1     -12.590  11.921  63.301  1.00  0.00    -0.473 C  
HETATM    2  C   UNL     1     -11.647  12.724  64.186  1.00  0.00    -0.456 C  
ENDROOT
BRANCH   2   3
HETATM    3  C   UNL     1     -12.164  12.816  65.629  1.00  0.00    -0.503 C  
BRANCH   3   4
HETATM    4  C   UNL     1     -11.118  12.499  66.744  1.00  0.00    -0.323 C  
HETATM    5  C   UNL     1     -10.730  11.007  66.709  1.00  0.00    -0.319 C  
BRANCH   4   6
HETATM    6  C   UNL     1     -11.783  12.813  68.116  1.00  0.00    -0.345 C  
BRANCH   6   7
HETATM    7  O   UNL     1     -11.013  13.787  68.846  1.00  0.00    -0.244 OA 
BRANCH   7   8
HETATM    8  C   UNL     1     -11.709  14.791  69.439  1.00  0.00    -0.323 C  
HETATM    9  H   UNL     1     -12.216  13.335  70.800  1.00  0.00     0.000 HD 
HETATM   10  O   UNL     1     -11.789  15.938  69.022  1.00  0.00    -0.389 OA 
HETATM   11  N   UNL     1     -12.293  14.327  70.578  1.00  0.00    -0.338 N  
BRANCH  11  12
HETATM   12  C   UNL     1     -13.023  15.192  71.489  1.00  0.00    -0.382 C  
HETATM   13  C   UNL     1     -12.111  15.714  72.591  1.00  0.00    -0.565 C  
HETATM   14  C   UNL     1     -14.225  14.460  72.084  1.00  0.00    -0.626 C  
ENDBRANCH  11  12
ENDBRANCH   7   8
ENDBRANCH   6   7
ENDBRANCH   4   6
BRANCH   4  15
HETATM   15  C   UNL     1      -9.832  13.349  66.585  1.00  0.00    -0.278 C  
BRANCH  15  16
HETATM   16  O   UNL     1      -8.670  12.537  66.828  1.00  0.00    -0.200 OA 
BRANCH  16  17
HETATM   17  C   UNL     1      -7.702  13.084  67.597  1.00  0.00    -0.161 C  
HETATM   18  O   UNL     1      -6.703  13.668  67.213  1.00  0.00    -0.222 OA 
HETATM   19  H1  UNL     1      -7.247  13.279  69.483  1.00  0.00     0.000 HD 
HETATM   20  N   UNL     1      -7.977  12.866  68.903  1.00  0.00    -0.329 N  
HETATM   21  H2  UNL     1      -8.792  12.364  69.255  1.00  0.00     0.000 HD 
ENDBRANCH  16  17
ENDBRANCH  15  16
ENDBRANCH   4  15
ENDBRANCH   3   4
ENDBRANCH   2   3
TORSDOF 9
ENDMDL
MODEL       43
REMARK 921   NORMALIZED FREE ENERGY PREDICTED BY IDOCK:   -4.22 KCAL/MOL
REMARK 922        TOTAL FREE ENERGY PREDICTED BY IDOCK:   -7.38 KCAL/MOL
REMARK 923 INTER-LIGAND FREE ENERGY PREDICTED BY IDOCK:   -6.65 KCAL/MOL
REMARK 924 INTRA-LIGAND FREE ENERGY PREDICTED BY IDOCK:   -0.73 KCAL/MOL
REMARK 927      BINDING AFFINITY PREDICTED BY RF-SCORE:    0.00 PKD
ROOT
HETATM    1  C   UNL     1     -10.443  19.800  66.255  1.00  0.00    -0.614 C  
HETATM    2  C   UNL     1      -9.621  18.565  66.598  1.00  0.00    -0.328 C  
ENDROOT
BRANCH   2   3
HETATM    3  C   UNL     1     -10.401  17.271  66.328  1.00  0.00    -0.323 C  
BRANCH   3   4
HETATM    4  C   UNL     1     -10.353  16.201  67.464  1.00  0.00    -0.286 C  
HETATM    5  C   UNL     1      -8.894  15.814  67.776  1.00  0.00    -0.173 C  
BRANCH   4   6
HETATM    6  C   UNL     1     -11.110  14.939  66.955  1.00  0.00    -0.338 C  
BRANCH   6   7
HETATM    7  O   UNL     1     -10.394  13.739  67.304  1.00  0.00    -0.250 OA 
BRANCH   7   8
HETATM    8  C   UNL     1     -11.144  12.669  67.674  1.00  0.00    -0.263 C  
HETATM    9  H   UNL     1      -9.771  12.516  69.197  1.00  0.00     0.000 HD 
HETATM   10  O   UNL     1     -12.130  12.258  67.079  1.00  0.00    -0.575 OA 
HETATM   11  N   UNL     1     -10.638  12.133  68.818  1.00  0.00    -0.224 N  
BRANCH  11  12
HETATM   12  C   UNL     1     -11.284  11.037  69.519  1.00  0.00    -0.279 C  
HETATM   13  C   UNL     1     -12.192  11.560  70.625  1.00  0.00    -0.473 C  
HETATM   14  C   UNL     1     -10.245  10.069  70.085  1.00  0.00    -0.297 C  
ENDBRANCH  11  12
ENDBRANCH   7   8
ENDBRANCH   6   7
ENDBRANCH   4   6
BRANCH   4  15
HETATM   15  C   UNL     1     -11.019  16.715  68.766  1.00  0.00    -0.309 C  
BRANCH  15  16
HETATM   16  O   UNL     1     -12.153  15.895  69.098  1.00  0.00    -0.339 OA 
BRANCH  16  17
HETATM   17  C   UNL     1     -12.285  15.545  70.397  1.00  0.00    -0.406 C  
HETATM   18  O   UNL     1     -11.390  15.239  71.168  1.00  0.00    -0.328 OA 
HETATM   19  H1  UNL     1     -13.691  15.283  71.723  1.00  0.00     0.000 HD 
HETATM   20  N   UNL     1     -13.592  15.547  70.743  1.00  0.00    -0.847 N  
HETATM   21  H2  UNL     1     -14.363  15.779  70.116  1.00  0.00     0.000 HD 
ENDBRANCH  16  17
ENDBRANCH  15  16
ENDBRANCH   4  15
ENDBRANCH   3   4
ENDBRANCH   2   3
TORSDOF 9
ENDMDL
MODEL       44
REMARK 921   NORMALIZED FREE ENERGY PREDICTED BY IDOCK:   -4.21 KCAL/MOL
REMARK 922        TOTAL FREE ENERGY PREDICTED BY IDOCK:   -7.37 KCAL/MOL
REMARK 923 INTER-LIGAND FREE ENERGY PREDICTED BY IDOCK:   -6.75 KCAL/MOL
REMARK 924 INTRA-LIGAND FREE ENERGY PREDICTED BY IDOCK:   -0.62 KCAL/MOL
REMARK 927      BINDING AFFINITY PREDICTED BY RF-SCORE:    0.00 PKD
ROOT
HETATM    1  C   UNL     1     -11.387  11.960  63.398  1.00  0.00    -0.465 C  
HETATM    2  C   UNL     1     -12.312  12.407  64.522  1.00  0.00    -0.519 C  
ENDROOT
BRANCH   2   3
HETATM    3  C   UNL     1     -11.784  11.979  65.897  1.00  0.00    -0.312 C  
BRANCH   3   4
HETATM    4  C   UNL     1     -11.295  13.134  66.826  1.00  0.00    -0.353 C  
HETATM    5  C   UNL     1     -11.911  12.990  68.232  1.00  0.00    -0.381 C  
BRANCH   4   6
HETATM    6  C   UNL     1     -11.776  14.476  66.202  1.00  0.00    -0.350 C  
BRANCH   6   7
HETATM    7  O   UNL     1     -10.729  15.081  65.420  1.00  0.00    -0.321 OA 
BRANCH   7   8
HETATM    8  C   UNL     1     -10.823  16.419  65.209  1.00  0.00    -0.258 C  
HETATM    9  H   UNL     1      -9.806  16.545  66.991  1.00  0.00     0.000 HD 
HETATM   10  O   UNL     1     -11.384  16.947  64.259  1.00  0.00    -1.202 OA 
HETATM   11  N   UNL     1     -10.185  17.083  66.212  1.00  0.00    -0.323 N  
BRANCH  11  12
HETATM   12  C   UNL     1     -10.024  18.527  66.213  1.00  0.00    -0.365 C  
HETATM   13  C   UNL     1      -8.552  18.909  66.284  1.00  0.00    -0.267 C  
HETATM   14  C   UNL     1     -10.803  19.156  67.368  1.00  0.00    -0.533 C  
ENDBRANCH  11  12
ENDBRANCH   7   8
ENDBRANCH   6   7
ENDBRANCH   4   6
BRANCH   4  15
HETATM   15  C   UNL     1      -9.751  13.149  66.961  1.00  0.00    -0.241 C  
BRANCH  15  16
HETATM   16  O   UNL     1      -9.182  12.031  66.258  1.00  0.00    -0.225 OA 
BRANCH  16  17
HETATM   17  C   UNL     1      -8.240  11.320  66.918  1.00  0.00    -0.153 C  
HETATM   18  O   UNL     1      -8.429  10.425  67.725  1.00  0.00    -0.114 OA 
HETATM   19  H1  UNL     1      -6.299  11.230  67.078  1.00  0.00     0.000 HD 
HETATM   20  N   UNL     1      -7.009  11.766  66.580  1.00  0.00    -0.373 N  
HETATM   21  H2  UNL     1      -6.820  12.525  65.925  1.00  0.00     0.000 HD 
ENDBRANCH  16  17
ENDBRANCH  15  16
ENDBRANCH   4  15
ENDBRANCH   3   4
ENDBRANCH   2   3
TORSDOF 9
ENDMDL
MODEL       45
REMARK 921   NORMALIZED FREE ENERGY PREDICTED BY IDOCK:   -4.19 KCAL/MOL
REMARK 922        TOTAL FREE ENERGY PREDICTED BY IDOCK:   -7.34 KCAL/MOL
REMARK 923 INTER-LIGAND FREE ENERGY PREDICTED BY IDOCK:   -6.61 KCAL/MOL
REMARK 924 INTRA-LIGAND FREE ENERGY PREDICTED BY IDOCK:   -0.73 KCAL/MOL
REMARK 927      BINDING AFFINITY PREDICTED BY RF-SCORE:    0.00 PKD
ROOT
HETATM    1  C   UNL     1     -10.554   8.372  67.413  1.00  0.00    -0.313 C  
HETATM    2  C   UNL     1      -9.576   9.469  67.812  1.00  0.00    -0.156 C  
ENDROOT
BRANCH   2   3
HETATM    3  C   UNL     1     -10.300  10.691  68.392  1.00  0.00    -0.197 C  
BRANCH   3   4
HETATM    4  C   UNL     1     -10.350  11.950  67.469  1.00  0.00    -0.219 C  
HETATM    5  C   UNL     1      -9.263  11.860  66.379  1.00  0.00    -0.218 C  
BRANCH   4   6
HETATM    6  C   UNL     1     -10.069  13.197  68.357  1.00  0.00    -0.231 C  
BRANCH   6   7
HETATM    7  O   UNL     1     -11.207  14.079  68.375  1.00  0.00    -0.244 OA 
BRANCH   7   8
HETATM    8  C   UNL     1     -11.558  14.594  69.582  1.00  0.00    -0.307 C  
HETATM    9  H   UNL     1     -13.003  13.131  69.534  1.00  0.00     0.000 HD 
HETATM   10  O   UNL     1     -11.024  15.551  70.124  1.00  0.00    -0.271 OA 
HETATM   11  N   UNL     1     -12.589  13.871  70.101  1.00  0.00    -0.281 N  
BRANCH  11  12
HETATM   12  C   UNL     1     -13.120  14.115  71.431  1.00  0.00    -0.358 C  
HETATM   13  C   UNL     1     -13.436  12.804  72.138  1.00  0.00    -0.591 C  
HETATM   14  C   UNL     1     -14.361  15.005  71.362  1.00  0.00    -0.594 C  
ENDBRANCH  11  12
ENDBRANCH   7   8
ENDBRANCH   6   7
ENDBRANCH   4   6
BRANCH   4  15
HETATM   15  C   UNL     1     -11.730  12.104  66.781  1.00  0.00    -0.305 C  
BRANCH  15  16
HETATM   16  O   UNL     1     -11.578  12.051  65.351  1.00  0.00    -0.343 OA 
BRANCH  16  17
HETATM   17  C   UNL     1     -12.572  12.600  64.618  1.00  0.00    -0.440 C  
HETATM   18  O   UNL     1     -13.019  12.185  63.562  1.00  0.00    -0.794 OA 
HETATM   19  H1  UNL     1     -13.756  14.150  64.659  1.00  0.00     0.000 HD 
HETATM   20  N   UNL     1     -13.006  13.735  65.212  1.00  0.00    -0.754 N  
HETATM   21  H2  UNL     1     -12.638  14.118  66.083  1.00  0.00     0.000 HD 
ENDBRANCH  16  17
ENDBRANCH  15  16
ENDBRANCH   4  15
ENDBRANCH   3   4
ENDBRANCH   2   3
TORSDOF 9
ENDMDL
MODEL       46
REMARK 921   NORMALIZED FREE ENERGY PREDICTED BY IDOCK:   -4.18 KCAL/MOL
REMARK 922        TOTAL FREE ENERGY PREDICTED BY IDOCK:   -7.33 KCAL/MOL
REMARK 923 INTER-LIGAND FREE ENERGY PREDICTED BY IDOCK:   -6.50 KCAL/MOL
REMARK 924 INTRA-LIGAND FREE ENERGY PREDICTED BY IDOCK:   -0.82 KCAL/MOL
REMARK 927      BINDING AFFINITY PREDICTED BY RF-SCORE:    0.00 PKD
ROOT
HETATM    1  C   UNL     1     -10.426  15.961  66.536  1.00  0.00    -0.305 C  
HETATM    2  C   UNL     1     -10.831  15.461  65.155  1.00  0.00    -0.447 C  
ENDROOT
BRANCH   2   3
HETATM    3  C   UNL     1     -10.258  14.067  64.866  1.00  0.00    -0.377 C  
BRANCH   3   4
HETATM    4  C   UNL     1     -11.288  12.894  64.877  1.00  0.00    -0.340 C  
HETATM    5  C   UNL     1     -12.728  13.446  64.878  1.00  0.00    -0.365 C  
BRANCH   4   6
HETATM    6  C   UNL     1     -11.061  12.080  66.184  1.00  0.00    -0.322 C  
BRANCH   6   7
HETATM    7  O   UNL     1     -12.089  12.368  67.151  1.00  0.00    -0.532 OA 
BRANCH   7   8
HETATM    8  C   UNL     1     -11.676  12.614  68.421  1.00  0.00    -0.333 C  
HETATM    9  H   UNL     1     -12.582  14.436  68.124  1.00  0.00     0.000 HD 
HETATM   10  O   UNL     1     -11.030  11.843  69.116  1.00  0.00    -0.234 OA 
HETATM   11  N   UNL     1     -12.105  13.847  68.806  1.00  0.00    -0.351 N  
BRANCH  11  12
HETATM   12  C   UNL     1     -11.907  14.356  70.153  1.00  0.00    -0.314 C  
HETATM   13  C   UNL     1     -13.221  14.847  70.746  1.00  0.00    -0.377 C  
HETATM   14  C   UNL     1     -10.861  15.471  70.162  1.00  0.00    -0.346 C  
ENDBRANCH  11  12
ENDBRANCH   7   8
ENDBRANCH   6   7
ENDBRANCH   4   6
BRANCH   4  15
HETATM   15  C   UNL     1     -11.116  11.964  63.649  1.00  0.00    -0.440 C  
BRANCH  15  16
HETATM   16  O   UNL     1      -9.816  12.156  63.063  1.00  0.00    -0.365 OA 
BRANCH  16  17
HETATM   17  C   UNL     1      -9.130  11.038  62.738  1.00  0.00    -0.337 C  
HETATM   18  O   UNL     1      -7.953  10.964  62.427  1.00  0.00    -0.182 OA 
HETATM   19  H1  UNL     1      -9.438   9.124  62.528  1.00  0.00     0.000 HD 
HETATM   20  N   UNL     1      -9.956   9.967  62.773  1.00  0.00    -0.532 N  
HETATM   21  H2  UNL     1     -10.948  10.000  63.009  1.00  0.00     0.000 HD 
ENDBRANCH  16  17
ENDBRANCH  15  16
ENDBRANCH   4  15
ENDBRANCH   3   4
ENDBRANCH   2   3
TORSDOF 9
ENDMDL
MODEL       47
REMARK 921   NORMALIZED FREE ENERGY PREDICTED BY IDOCK:   -4.17 KCAL/MOL
REMARK 922        TOTAL FREE ENERGY PREDICTED BY IDOCK:   -7.31 KCAL/MOL
REMARK 923 INTER-LIGAND FREE ENERGY PREDICTED BY IDOCK:   -6.71 KCAL/MOL
REMARK 924 INTRA-LIGAND FREE ENERGY PREDICTED BY IDOCK:   -0.60 KCAL/MOL
REMARK 927      BINDING AFFINITY PREDICTED BY RF-SCORE:    0.00 PKD
ROOT
HETATM    1  C   UNL     1     -13.148  14.576  70.901  1.00  0.00    -0.405 C  
HETATM    2  C   UNL     1     -12.074  14.045  69.960  1.00  0.00    -0.412 C  
ENDROOT
BRANCH   2   3
HETATM    3  C   UNL     1     -11.596  15.123  68.979  1.00  0.00    -0.350 C  
BRANCH   3   4
HETATM    4  C   UNL     1     -10.915  14.599  67.675  1.00  0.00    -0.296 C  
HETATM    5  C   UNL     1     -11.829  13.580  66.966  1.00  0.00    -0.447 C  
BRANCH   4   6
HETATM    6  C   UNL     1      -9.593  13.889  68.085  1.00  0.00    -0.218 C  
BRANCH   6   7
HETATM    7  O   UNL     1      -9.542  12.553  67.548  1.00  0.00    -0.180 OA 
BRANCH   7   8
HETATM    8  C   UNL     1      -9.142  11.572  68.397  1.00  0.00    -0.185 C  
HETATM    9  H   UNL     1     -11.155  11.174  68.529  1.00  0.00     0.000 HD 
HETATM   10  O   UNL     1      -7.985  11.350  68.725  1.00  0.00    -0.143 OA 
HETATM   11  N   UNL     1     -10.227  10.863  68.814  1.00  0.00    -0.188 N  
BRANCH  11  12
HETATM   12  C   UNL     1     -10.111   9.681  69.651  1.00  0.00    -0.224 C  
HETATM   13  C   UNL     1     -10.534   8.432  68.889  1.00  0.00    -0.208 C  
HETATM   14  C   UNL     1     -10.935   9.840  70.928  1.00  0.00    -0.411 C  
ENDBRANCH  11  12
ENDBRANCH   7   8
ENDBRANCH   6   7
ENDBRANCH   4   6
BRANCH   4  15
HETATM   15  C   UNL     1     -10.600  15.752  66.688  1.00  0.00    -0.307 C  
BRANCH  15  16
HETATM   16  O   UNL     1     -10.637  15.267  65.334  1.00  0.00    -0.334 OA 
BRANCH  16  17
HETATM   17  C   UNL     1     -11.392  15.972  64.461  1.00  0.00    -0.295 C  
HETATM   18  O   UNL     1     -11.409  17.184  64.320  1.00  0.00    -1.126 OA 
HETATM   19  H1  UNL     1     -12.751  15.664  63.098  1.00  0.00     0.000 HD 
HETATM   20  N   UNL     1     -12.182  15.132  63.756  1.00  0.00    -0.980 N  
HETATM   21  H2  UNL     1     -12.206  14.118  63.866  1.00  0.00     0.000 HD 
ENDBRANCH  16  17
ENDBRANCH  15  16
ENDBRANCH   4  15
ENDBRANCH   3   4
ENDBRANCH   2   3
TORSDOF 9
ENDMDL
MODEL       48
REMARK 921   NORMALIZED FREE ENERGY PREDICTED BY IDOCK:   -4.15 KCAL/MOL
REMARK 922        TOTAL FREE ENERGY PREDICTED BY IDOCK:   -7.28 KCAL/MOL
REMARK 923 INTER-LIGAND FREE ENERGY PREDICTED BY IDOCK:   -6.57 KCAL/MOL
REMARK 924 INTRA-LIGAND FREE ENERGY PREDICTED BY IDOCK:   -0.71 KCAL/MOL
REMARK 927      BINDING AFFINITY PREDICTED BY RF-SCORE:    0.00 PKD
ROOT
HETATM    1  C   UNL     1     -10.048  20.044  68.247  1.00  0.00    -0.531 C  
HETATM    2  C   UNL     1     -10.702  18.946  67.418  1.00  0.00    -0.519 C  
ENDROOT
BRANCH   2   3
HETATM    3  C   UNL     1     -10.448  17.556  68.016  1.00  0.00    -0.387 C  
BRANCH   3   4
HETATM    4  C   UNL     1      -9.950  16.468  67.014  1.00  0.00    -0.268 C  
HETATM    5  C   UNL     1     -10.468  16.770  65.594  1.00  0.00    -0.284 C  
BRANCH   4   6
HETATM    6  C   UNL     1     -10.528  15.099  67.479  1.00  0.00    -0.258 C  
BRANCH   6   7
HETATM    7  O   UNL     1     -11.710  14.761  66.728  1.00  0.00    -0.366 OA 
BRANCH   7   8
HETATM    8  C   UNL     1     -11.828  13.469  66.329  1.00  0.00    -0.392 C  
HETATM    9  H   UNL     1     -11.311  14.224  64.488  1.00  0.00     0.000 HD 
HETATM   10  O   UNL     1     -12.157  12.535  67.047  1.00  0.00    -0.521 OA 
HETATM   11  N   UNL     1     -11.510  13.371  65.009  1.00  0.00    -0.304 N  
BRANCH  11  12
HETATM   12  C   UNL     1     -11.443  12.096  64.315  1.00  0.00    -0.367 C  
HETATM   13  C   UNL     1     -10.128  11.956  63.560  1.00  0.00    -0.464 C  
HETATM   14  C   UNL     1     -12.631  11.933  63.368  1.00  0.00    -0.555 C  
ENDBRANCH  11  12
ENDBRANCH   7   8
ENDBRANCH   6   7
ENDBRANCH   4   6
BRANCH   4  15
HETATM   15  C   UNL     1      -8.403  16.390  66.971  1.00  0.00    -0.199 C  
BRANCH  15  16
HETATM   16  O   UNL     1      -7.909  17.034  65.784  1.00  0.00    -0.397 OA 
BRANCH  16  17
HETATM   17  C   UNL     1      -7.093  18.096  65.969  1.00  0.00    -0.283 C  
HETATM   18  O   UNL     1      -7.406  19.275  65.941  1.00  0.00    -0.275 OA 
HETATM   19  H1  UNL     1      -5.210  18.472  66.309  1.00  0.00     0.000 HD 
HETATM   20  N   UNL     1      -5.825  17.670  66.169  1.00  0.00    -0.205 N  
HETATM   21  H2  UNL     1      -5.529  16.694  66.178  1.00  0.00     0.000 HD 
ENDBRANCH  16  17
ENDBRANCH  15  16
ENDBRANCH   4  15
ENDBRANCH   3   4
ENDBRANCH   2   3
TORSDOF 9
ENDMDL
MODEL       49
REMARK 921   NORMALIZED FREE ENERGY PREDICTED BY IDOCK:   -4.15 KCAL/MOL
REMARK 922        TOTAL FREE ENERGY PREDICTED BY IDOCK:   -7.28 KCAL/MOL
REMARK 923 INTER-LIGAND FREE ENERGY PREDICTED BY IDOCK:   -6.68 KCAL/MOL
REMARK 924 INTRA-LIGAND FREE ENERGY PREDICTED BY IDOCK:   -0.59 KCAL/MOL
REMARK 927      BINDING AFFINITY PREDICTED BY RF-SCORE:    0.00 PKD
ROOT
HETATM    1  C   UNL     1      -7.449  13.533  68.268  1.00  0.00    -0.122 C  
HETATM    2  C   UNL     1      -8.881  13.197  67.874  1.00  0.00    -0.196 C  
ENDROOT
BRANCH   2   3
HETATM    3  C   UNL     1      -9.841  14.354  68.182  1.00  0.00    -0.223 C  
BRANCH   3   4
HETATM    4  C   UNL     1     -11.307  13.946  68.527  1.00  0.00    -0.311 C  
HETATM    5  C   UNL     1     -11.343  12.520  69.114  1.00  0.00    -0.331 C  
BRANCH   4   6
HETATM    6  C   UNL     1     -12.126  13.965  67.204  1.00  0.00    -0.387 C  
BRANCH   6   7
HETATM    7  O   UNL     1     -11.527  14.856  66.244  1.00  0.00    -0.337 OA 
BRANCH   7   8
HETATM    8  C   UNL     1     -11.641  14.509  64.936  1.00  0.00    -0.401 C  
HETATM    9  H   UNL     1     -10.807  12.738  65.567  1.00  0.00     0.000 HD 
HETATM   10  O   UNL     1     -12.075  15.229  64.049  1.00  0.00    -0.565 OA 
HETATM   11  N   UNL     1     -11.211  13.228  64.768  1.00  0.00    -0.318 N  
BRANCH  11  12
HETATM   12  C   UNL     1     -11.304  12.534  63.495  1.00  0.00    -0.486 C  
HETATM   13  C   UNL     1     -12.666  11.870  63.338  1.00  0.00    -0.496 C  
HETATM   14  C   UNL     1     -10.182  11.506  63.356  1.00  0.00    -0.462 C  
ENDBRANCH  11  12
ENDBRANCH   7   8
ENDBRANCH   6   7
ENDBRANCH   4   6
BRANCH   4  15
HETATM   15  C   UNL     1     -11.951  14.918  69.549  1.00  0.00    -0.310 C  
BRANCH  15  16
HETATM   16  O   UNL     1     -12.785  14.189  70.466  1.00  0.00    -0.340 OA 
BRANCH  16  17
HETATM   17  C   UNL     1     -12.556  14.395  71.783  1.00  0.00    -0.351 C  
HETATM   18  O   UNL     1     -13.292  14.101  72.709  1.00  0.00    -0.508 OA 
HETATM   19  H1  UNL     1     -11.197  15.178  72.942  1.00  0.00     0.000 HD 
HETATM   20  N   UNL     1     -11.370  15.023  71.949  1.00  0.00    -0.540 N  
HETATM   21  H2  UNL     1     -10.742  15.300  71.193  1.00  0.00     0.000 HD 
ENDBRANCH  16  17
ENDBRANCH  15  16
ENDBRANCH   4  15
ENDBRANCH   3   4
ENDBRANCH   2   3
TORSDOF 9
ENDMDL
MODEL       50
REMARK 921   NORMALIZED FREE ENERGY PREDICTED BY IDOCK:   -4.15 KCAL/MOL
REMARK 922        TOTAL FREE ENERGY PREDICTED BY IDOCK:   -7.27 KCAL/MOL
REMARK 923 INTER-LIGAND FREE ENERGY PREDICTED BY IDOCK:   -6.49 KCAL/MOL
REMARK 924 INTRA-LIGAND FREE ENERGY PREDICTED BY IDOCK:   -0.78 KCAL/MOL
REMARK 927      BINDING AFFINITY PREDICTED BY RF-SCORE:    0.00 PKD
ROOT
HETATM    1  C   UNL     1      -7.795  14.880  67.201  1.00  0.00    -0.203 C  
HETATM    2  C   UNL     1      -8.894  14.063  67.869  1.00  0.00    -0.185 C  
ENDROOT
BRANCH   2   3
HETATM    3  C   UNL     1      -9.932  13.569  66.852  1.00  0.00    -0.256 C  
BRANCH   3   4
HETATM    4  C   UNL     1     -11.426  13.745  67.269  1.00  0.00    -0.367 C  
HETATM    5  C   UNL     1     -11.702  15.207  67.673  1.00  0.00    -0.233 C  
BRANCH   4   6
HETATM    6  C   UNL     1     -11.684  12.827  68.499  1.00  0.00    -0.333 C  
BRANCH   6   7
HETATM    7  O   UNL     1     -12.147  11.529  68.080  1.00  0.00    -0.604 OA 
BRANCH   7   8
HETATM    8  C   UNL     1     -11.328  10.478  68.340  1.00  0.00    -0.262 C  
HETATM    9  H   UNL     1     -11.047  10.482  66.303  1.00  0.00     0.000 HD 
HETATM   10  O   UNL     1     -11.124   9.997  69.445  1.00  0.00    -0.232 OA 
HETATM   11  N   UNL     1     -10.757  10.051  67.180  1.00  0.00    -0.239 N  
BRANCH  11  12
HETATM   12  C   UNL     1      -9.751   9.003  67.146  1.00  0.00    -0.181 C  
HETATM   13  C   UNL     1      -8.629   9.359  66.179  1.00  0.00    -0.147 C  
HETATM   14  C   UNL     1     -10.380   7.661  66.773  1.00  0.00    -0.343 C  
ENDBRANCH  11  12
ENDBRANCH   7   8
ENDBRANCH   6   7
ENDBRANCH   4   6
BRANCH   4  15
HETATM   15  C   UNL     1     -12.393  13.358  66.121  1.00  0.00    -0.380 C  
BRANCH  15  16
HETATM   16  O   UNL     1     -11.652  12.826  65.009  1.00  0.00    -0.312 OA 
BRANCH  16  17
HETATM   17  C   UNL     1     -12.239  12.918  63.794  1.00  0.00    -0.476 C  
HETATM   18  O   UNL     1     -12.661  13.929  63.258  1.00  0.00    -0.824 OA 
HETATM   19  H1  UNL     1     -12.774  11.758  62.321  1.00  0.00     0.000 HD 
HETATM   20  N   UNL     1     -12.331  11.689  63.237  1.00  0.00    -0.915 N  
HETATM   21  H2  UNL     1     -12.007  10.824  63.668  1.00  0.00     0.000 HD 
ENDBRANCH  16  17
ENDBRANCH  15  16
ENDBRANCH   4  15
ENDBRANCH   3   4
ENDBRANCH   2   3
TORSDOF 9
ENDMDL
MODEL       51
REMARK 921   NORMALIZED FREE ENERGY PREDICTED BY IDOCK:   -4.14 KCAL/MOL
REMARK 922        TOTAL FREE ENERGY PREDICTED BY IDOCK:   -7.27 KCAL/MOL
REMARK 923 INTER-LIGAND FREE ENERGY PREDICTED BY IDOCK:   -6.59 KCAL/MOL
REMARK 924 INTRA-LIGAND FREE ENERGY PREDICTED BY IDOCK:   -0.68 KCAL/MOL
REMARK 927      BINDING AFFINITY PREDICTED BY RF-SCORE:    0.00 PKD
ROOT
HETATM    1  C   UNL     1     -11.352  16.214  64.578  1.00  0.00    -0.273 C  
HETATM    2  C   UNL     1     -10.725  15.073  65.369  1.00  0.00    -0.389 C  
ENDROOT
BRANCH   2   3
HETATM    3  C   UNL     1     -10.525  13.823  64.501  1.00  0.00    -0.378 C  
BRANCH   3   4
HETATM    4  C   UNL     1     -11.431  12.602  64.852  1.00  0.00    -0.361 C  
HETATM    5  C   UNL     1     -12.530  12.425  63.785  1.00  0.00    -0.593 C  
BRANCH   4   6
HETATM    6  C   UNL     1     -12.105  12.894  66.224  1.00  0.00    -0.365 C  
BRANCH   6   7
HETATM    7  O   UNL     1     -11.941  11.779  67.122  1.00  0.00    -0.617 OA 
BRANCH   7   8
HETATM    8  C   UNL     1     -11.599  12.075  68.402  1.00  0.00    -0.311 C  
HETATM    9  H   UNL     1     -12.903  10.554  68.865  1.00  0.00     0.000 HD 
HETATM   10  O   UNL     1     -10.831  12.964  68.741  1.00  0.00    -0.249 OA 
HETATM   11  N   UNL     1     -12.232  11.219  69.250  1.00  0.00    -0.291 N  
BRANCH  11  12
HETATM   12  C   UNL     1     -11.988  11.217  70.683  1.00  0.00    -0.360 C  
HETATM   13  C   UNL     1     -12.041   9.801  71.241  1.00  0.00    -0.470 C  
HETATM   14  C   UNL     1     -12.989  12.120  71.403  1.00  0.00    -0.357 C  
ENDBRANCH  11  12
ENDBRANCH   7   8
ENDBRANCH   6   7
ENDBRANCH   4   6
BRANCH   4  15
HETATM   15  C   UNL     1     -10.615  11.287  64.945  1.00  0.00    -0.300 C  
BRANCH  15  16
HETATM   16  O   UNL     1     -10.377  10.760  63.628  1.00  0.00    -0.327 OA 
BRANCH  16  17
HETATM   17  C   UNL     1      -9.114  10.364  63.356  1.00  0.00    -0.260 C  
HETATM   18  O   UNL     1      -8.570   9.339  63.732  1.00  0.00    -0.197 OA 
HETATM   19  H1  UNL     1      -7.537  11.003  62.402  1.00  0.00     0.000 HD 
HETATM   20  N   UNL     1      -8.491  11.302  62.607  1.00  0.00    -0.493 N  
HETATM   21  H2  UNL     1      -8.912  12.177  62.294  1.00  0.00     0.000 HD 
ENDBRANCH  16  17
ENDBRANCH  15  16
ENDBRANCH   4  15
ENDBRANCH   3   4
ENDBRANCH   2   3
TORSDOF 9
ENDMDL
MODEL       52
REMARK 921   NORMALIZED FREE ENERGY PREDICTED BY IDOCK:   -4.14 KCAL/MOL
REMARK 922        TOTAL FREE ENERGY PREDICTED BY IDOCK:   -7.26 KCAL/MOL
REMARK 923 INTER-LIGAND FREE ENERGY PREDICTED BY IDOCK:   -6.70 KCAL/MOL
REMARK 924 INTRA-LIGAND FREE ENERGY PREDICTED BY IDOCK:   -0.55 KCAL/MOL
REMARK 927      BINDING AFFINITY PREDICTED BY RF-SCORE:    0.00 PKD
ROOT
HETATM    1  C   UNL     1      -9.413  16.209  66.028  1.00  0.00    -0.374 C  
HETATM    2  C   UNL     1      -9.358  14.847  66.707  1.00  0.00    -0.270 C  
ENDROOT
BRANCH   2   3
HETATM    3  C   UNL     1     -10.174  13.797  65.940  1.00  0.00    -0.322 C  
BRANCH   3   4
HETATM    4  C   UNL     1     -11.542  13.403  66.578  1.00  0.00    -0.394 C  
HETATM    5  C   UNL     1     -11.754  14.160  67.905  1.00  0.00    -0.402 C  
BRANCH   4   6
HETATM    6  C   UNL     1     -11.503  11.875  66.872  1.00  0.00    -0.322 C  
BRANCH   6   7
HETATM    7  O   UNL     1     -10.832  11.611  68.119  1.00  0.00    -0.196 OA 
BRANCH   7   8
HETATM    8  C   UNL     1     -10.443  10.329  68.341  1.00  0.00    -0.200 C  
HETATM    9  H   UNL     1      -9.499  11.137  69.980  1.00  0.00     0.000 HD 
HETATM   10  O   UNL     1     -10.711   9.375  67.625  1.00  0.00    -0.273 OA 
HETATM   11  N   UNL     1      -9.719  10.268  69.493  1.00  0.00    -0.228 N  
BRANCH  11  12
HETATM   12  C   UNL     1      -9.249   9.013  70.052  1.00  0.00    -0.180 C  
HETATM   13  C   UNL     1      -9.699   8.861  71.499  1.00  0.00    -0.372 C  
HETATM   14  C   UNL     1      -7.728   8.909  69.945  1.00  0.00    -0.076 C  
ENDBRANCH  11  12
ENDBRANCH   7   8
ENDBRANCH   6   7
ENDBRANCH   4   6
BRANCH   4  15
HETATM   15  C   UNL     1     -12.730  13.719  65.634  1.00  0.00    -0.478 C  
BRANCH  15  16
HETATM   16  O   UNL     1     -13.000  12.589  64.785  1.00  0.00    -0.827 OA 
BRANCH  16  17
HETATM   17  C   UNL     1     -12.574  12.682  63.505  1.00  0.00    -0.311 C  
HETATM   18  O   UNL     1     -12.461  13.699  62.842  1.00  0.00    -0.610 OA 
HETATM   19  H1  UNL     1     -11.986  11.517  62.056  1.00  0.00     0.000 HD 
HETATM   20  N   UNL     1     -12.307  11.447  63.021  1.00  0.00    -0.869 N  
HETATM   21  H2  UNL     1     -12.412  10.578  63.544  1.00  0.00     0.000 HD 
ENDBRANCH  16  17
ENDBRANCH  15  16
ENDBRANCH   4  15
ENDBRANCH   3   4
ENDBRANCH   2   3
TORSDOF 9
ENDMDL
MODEL       53
REMARK 921   NORMALIZED FREE ENERGY PREDICTED BY IDOCK:   -4.12 KCAL/MOL
REMARK 922        TOTAL FREE ENERGY PREDICTED BY IDOCK:   -7.24 KCAL/MOL
REMARK 923 INTER-LIGAND FREE ENERGY PREDICTED BY IDOCK:   -6.21 KCAL/MOL
REMARK 924 INTRA-LIGAND FREE ENERGY PREDICTED BY IDOCK:   -1.02 KCAL/MOL
REMARK 927      BINDING AFFINITY PREDICTED BY RF-SCORE:    0.00 PKD
ROOT
HETATM    1  C   UNL     1     -11.485  14.269  68.849  1.00  0.00    -0.318 C  
HETATM    2  C   UNL     1     -10.206  14.956  68.389  1.00  0.00    -0.231 C  
ENDROOT
BRANCH   2   3
HETATM    3  C   UNL     1     -10.452  16.425  68.021  1.00  0.00    -0.303 C  
BRANCH   3   4
HETATM    4  C   UNL     1      -9.628  16.969  66.812  1.00  0.00    -0.274 C  
HETATM    5  C   UNL     1     -10.285  18.243  66.243  1.00  0.00    -0.414 C  
BRANCH   4   6
HETATM    6  C   UNL     1      -9.626  15.870  65.710  1.00  0.00    -0.304 C  
BRANCH   6   7
HETATM    7  O   UNL     1     -10.719  16.064  64.792  1.00  0.00    -0.611 OA 
BRANCH   7   8
HETATM    8  C   UNL     1     -11.529  14.995  64.576  1.00  0.00    -0.318 C  
HETATM    9  H   UNL     1      -9.976  13.935  65.408  1.00  0.00     0.000 HD 
HETATM   10  O   UNL     1     -12.632  15.039  64.051  1.00  0.00    -0.817 OA 
HETATM   11  N   UNL     1     -10.927  13.868  65.046  1.00  0.00    -0.347 N  
BRANCH  11  12
HETATM   12  C   UNL     1     -11.589  12.575  65.052  1.00  0.00    -0.349 C  
HETATM   13  C   UNL     1     -11.062  11.699  66.180  1.00  0.00    -0.335 C  
HETATM   14  C   UNL     1     -11.422  11.877  63.702  1.00  0.00    -0.551 C  
ENDBRANCH  11  12
ENDBRANCH   7   8
ENDBRANCH   6   7
ENDBRANCH   4   6
BRANCH   4  15
HETATM   15  C   UNL     1      -8.168  17.302  67.214  1.00  0.00    -0.196 C  
BRANCH  15  16
HETATM   16  O   UNL     1      -7.289  16.238  66.810  1.00  0.00    -0.217 OA 
BRANCH  16  17
HETATM   17  C   UNL     1      -6.381  15.827  67.724  1.00  0.00    -0.153 C  
HETATM   18  O   UNL     1      -5.329  15.251  67.504  1.00  0.00    -0.312 OA 
HETATM   19  H1  UNL     1      -6.133  15.812  69.658  1.00  0.00     0.000 HD 
HETATM   20  N   UNL     1      -6.818  16.122  68.969  1.00  0.00    -0.163 N  
HETATM   21  H2  UNL     1      -7.701  16.584  69.186  1.00  0.00     0.000 HD 
ENDBRANCH  16  17
ENDBRANCH  15  16
ENDBRANCH   4  15
ENDBRANCH   3   4
ENDBRANCH   2   3
TORSDOF 9
ENDMDL
MODEL       54
REMARK 921   NORMALIZED FREE ENERGY PREDICTED BY IDOCK:   -4.09 KCAL/MOL
REMARK 922        TOTAL FREE ENERGY PREDICTED BY IDOCK:   -7.20 KCAL/MOL
REMARK 923 INTER-LIGAND FREE ENERGY PREDICTED BY IDOCK:   -6.42 KCAL/MOL
REMARK 924 INTRA-LIGAND FREE ENERGY PREDICTED BY IDOCK:   -0.77 KCAL/MOL
REMARK 927      BINDING AFFINITY PREDICTED BY RF-SCORE:    0.00 PKD
ROOT
HETATM    1  C   UNL     1     -10.879  16.323  69.810  1.00  0.00    -0.356 C  
HETATM    2  C   UNL     1     -11.071  14.823  69.635  1.00  0.00    -0.299 C  
ENDROOT
BRANCH   2   3
HETATM    3  C   UNL     1     -12.129  14.506  68.569  1.00  0.00    -0.257 C  
BRANCH   3   4
HETATM    4  C   UNL     1     -11.680  13.531  67.436  1.00  0.00    -0.419 C  
HETATM    5  C   UNL     1     -11.830  12.068  67.897  1.00  0.00    -0.320 C  
BRANCH   4   6
HETATM    6  C   UNL     1     -10.180  13.813  67.138  1.00  0.00    -0.244 C  
BRANCH   6   7
HETATM    7  O   UNL     1     -10.040  14.871  66.170  1.00  0.00    -0.268 OA 
BRANCH   7   8
HETATM    8  C   UNL     1      -9.120  15.831  66.446  1.00  0.00    -0.322 C  
HETATM    9  H   UNL     1      -8.686  14.634  68.062  1.00  0.00     0.000 HD 
HETATM   10  O   UNL     1      -8.944  16.850  65.794  1.00  0.00    -0.524 OA 
HETATM   11  N   UNL     1      -8.414  15.476  67.555  1.00  0.00    -0.165 N  
BRANCH  11  12
HETATM   12  C   UNL     1      -7.287  16.253  68.043  1.00  0.00    -0.132 C  
HETATM   13  C   UNL     1      -6.571  15.521  69.170  1.00  0.00    -0.136 C  
HETATM   14  C   UNL     1      -7.743  17.638  68.502  1.00  0.00    -0.281 C  
ENDBRANCH  11  12
ENDBRANCH   7   8
ENDBRANCH   6   7
ENDBRANCH   4   6
BRANCH   4  15
HETATM   15  C   UNL     1     -12.512  13.730  66.143  1.00  0.00    -0.418 C  
BRANCH  15  16
HETATM   16  O   UNL     1     -12.320  12.615  65.255  1.00  0.00    -0.482 OA 
BRANCH  16  17
HETATM   17  C   UNL     1     -12.390  12.879  63.931  1.00  0.00    -0.396 C  
HETATM   18  O   UNL     1     -12.487  12.068  63.026  1.00  0.00    -0.379 OA 
HETATM   19  H1  UNL     1     -12.356  14.412  62.726  1.00  0.00     0.000 HD 
HETATM   20  N   UNL     1     -12.304  14.213  63.725  1.00  0.00    -1.027 N  
HETATM   21  H2  UNL     1     -12.201  14.914  64.459  1.00  0.00     0.000 HD 
ENDBRANCH  16  17
ENDBRANCH  15  16
ENDBRANCH   4  15
ENDBRANCH   3   4
ENDBRANCH   2   3
TORSDOF 9
ENDMDL
MODEL       55
REMARK 921   NORMALIZED FREE ENERGY PREDICTED BY IDOCK:   -4.09 KCAL/MOL
REMARK 922        TOTAL FREE ENERGY PREDICTED BY IDOCK:   -7.19 KCAL/MOL
REMARK 923 INTER-LIGAND FREE ENERGY PREDICTED BY IDOCK:   -6.73 KCAL/MOL
REMARK 924 INTRA-LIGAND FREE ENERGY PREDICTED BY IDOCK:   -0.46 KCAL/MOL
REMARK 927      BINDING AFFINITY PREDICTED BY RF-SCORE:    0.00 PKD
ROOT
HETATM    1  C   UNL     1     -12.481  11.986  63.444  1.00  0.00    -0.625 C  
HETATM    2  C   UNL     1     -11.953  13.265  64.083  1.00  0.00    -0.505 C  
ENDROOT
BRANCH   2   3
HETATM    3  C   UNL     1     -12.304  13.340  65.575  1.00  0.00    -0.533 C  
BRANCH   3   4
HETATM    4  C   UNL     1     -11.194  12.855  66.558  1.00  0.00    -0.340 C  
HETATM    5  C   UNL     1     -11.759  11.796  67.526  1.00  0.00    -0.312 C  
BRANCH   4   6
HETATM    6  C   UNL     1     -10.721  14.087  67.382  1.00  0.00    -0.283 C  
BRANCH   6   7
HETATM    7  O   UNL     1     -11.094  13.950  68.767  1.00  0.00    -0.245 OA 
BRANCH   7   8
HETATM    8  C   UNL     1     -11.749  15.000  69.327  1.00  0.00    -0.323 C  
HETATM    9  H   UNL     1     -12.464  13.572  70.623  1.00  0.00     0.000 HD 
HETATM   10  O   UNL     1     -11.708  16.154  68.925  1.00  0.00    -0.357 OA 
HETATM   11  N   UNL     1     -12.447  14.571  70.414  1.00  0.00    -0.334 N  
BRANCH  11  12
HETATM   12  C   UNL     1     -13.170  15.481  71.286  1.00  0.00    -0.515 C  
HETATM   13  C   UNL     1     -12.256  16.031  72.373  1.00  0.00    -0.603 C  
HETATM   14  C   UNL     1     -14.386  14.789  71.901  1.00  0.00    -0.657 C  
ENDBRANCH  11  12
ENDBRANCH   7   8
ENDBRANCH   6   7
ENDBRANCH   4   6
BRANCH   4  15
HETATM   15  C   UNL     1      -9.986  12.241  65.804  1.00  0.00    -0.254 C  
BRANCH  15  16
HETATM   16  O   UNL     1     -10.017  10.807  65.907  1.00  0.00    -0.229 OA 
BRANCH  16  17
HETATM   17  C   UNL     1      -8.824  10.187  66.055  1.00  0.00    -0.143 C  
HETATM   18  O   UNL     1      -8.583   9.222  66.760  1.00  0.00    -0.125 OA 
HETATM   19  H1  UNL     1      -6.985  10.351  65.427  1.00  0.00     0.000 HD 
HETATM   20  N   UNL     1      -7.885  10.819  65.315  1.00  0.00    -0.345 N  
HETATM   21  H2  UNL     1      -8.051  11.639  64.733  1.00  0.00     0.000 HD 
ENDBRANCH  16  17
ENDBRANCH  15  16
ENDBRANCH   4  15
ENDBRANCH   3   4
ENDBRANCH   2   3
TORSDOF 9
ENDMDL
MODEL       56
REMARK 921   NORMALIZED FREE ENERGY PREDICTED BY IDOCK:   -4.09 KCAL/MOL
REMARK 922        TOTAL FREE ENERGY PREDICTED BY IDOCK:   -7.18 KCAL/MOL
REMARK 923 INTER-LIGAND FREE ENERGY PREDICTED BY IDOCK:   -6.54 KCAL/MOL
REMARK 924 INTRA-LIGAND FREE ENERGY PREDICTED BY IDOCK:   -0.64 KCAL/MOL
REMARK 927      BINDING AFFINITY PREDICTED BY RF-SCORE:    0.00 PKD
ROOT
HETATM    1  C   UNL     1      -8.636  16.158  66.190  1.00  0.00    -0.331 C  
HETATM    2  C   UNL     1      -9.674  15.462  67.060  1.00  0.00    -0.231 C  
ENDROOT
BRANCH   2   3
HETATM    3  C   UNL     1      -9.729  13.954  66.781  1.00  0.00    -0.282 C  
BRANCH   3   4
HETATM    4  C   UNL     1     -11.058  13.239  67.181  1.00  0.00    -0.308 C  
HETATM    5  C   UNL     1     -12.133  14.277  67.559  1.00  0.00    -0.347 C  
BRANCH   4   6
HETATM    6  C   UNL     1     -10.760  12.349  68.422  1.00  0.00    -0.235 C  
BRANCH   6   7
HETATM    7  O   UNL     1     -11.929  12.223  69.254  1.00  0.00    -0.296 OA 
BRANCH   7   8
HETATM    8  C   UNL     1     -12.051  11.070  69.960  1.00  0.00    -0.364 C  
HETATM    9  H   UNL     1     -10.665  10.362  68.616  1.00  0.00     0.000 HD 
HETATM   10  O   UNL     1     -12.800  10.900  70.912  1.00  0.00    -0.346 OA 
HETATM   11  N   UNL     1     -11.200  10.135  69.455  1.00  0.00    -0.230 N  
BRANCH  11  12
HETATM   12  C   UNL     1     -11.026   8.828  70.064  1.00  0.00    -0.209 C  
HETATM   13  C   UNL     1      -9.969   8.876  71.160  1.00  0.00    -0.342 C  
HETATM   14  C   UNL     1     -10.663   7.784  69.009  1.00  0.00    -0.119 C  
ENDBRANCH  11  12
ENDBRANCH   7   8
ENDBRANCH   6   7
ENDBRANCH   4   6
BRANCH   4  15
HETATM   15  C   UNL     1     -11.605  12.356  66.030  1.00  0.00    -0.401 C  
BRANCH  15  16
HETATM   16  O   UNL     1     -11.194  12.891  64.759  1.00  0.00    -0.290 OA 
BRANCH  16  17
HETATM   17  C   UNL     1     -12.109  12.851  63.764  1.00  0.00    -0.508 C  
HETATM   18  O   UNL     1     -12.576  11.855  63.238  1.00  0.00    -0.586 OA 
HETATM   19  H1  UNL     1     -13.121  14.078  62.637  1.00  0.00     0.000 HD 
HETATM   20  N   UNL     1     -12.431  14.109  63.387  1.00  0.00    -1.116 N  
HETATM   21  H2  UNL     1     -12.043  14.960  63.793  1.00  0.00     0.000 HD 
ENDBRANCH  16  17
ENDBRANCH  15  16
ENDBRANCH   4  15
ENDBRANCH   3   4
ENDBRANCH   2   3
TORSDOF 9
ENDMDL
MODEL       57
REMARK 921   NORMALIZED FREE ENERGY PREDICTED BY IDOCK:   -4.06 KCAL/MOL
REMARK 922        TOTAL FREE ENERGY PREDICTED BY IDOCK:   -7.15 KCAL/MOL
REMARK 923 INTER-LIGAND FREE ENERGY PREDICTED BY IDOCK:   -6.32 KCAL/MOL
REMARK 924 INTRA-LIGAND FREE ENERGY PREDICTED BY IDOCK:   -0.82 KCAL/MOL
REMARK 927      BINDING AFFINITY PREDICTED BY RF-SCORE:    0.00 PKD
ROOT
HETATM    1  C   UNL     1      -8.327  11.210  68.483  1.00  0.00    -0.154 C  
HETATM    2  C   UNL     1      -9.780  11.527  68.155  1.00  0.00    -0.192 C  
ENDROOT
BRANCH   2   3
HETATM    3  C   UNL     1      -9.925  12.904  67.494  1.00  0.00    -0.215 C  
BRANCH   3   4
HETATM    4  C   UNL     1     -10.967  13.865  68.148  1.00  0.00    -0.267 C  
HETATM    5  C   UNL     1     -10.277  14.784  69.177  1.00  0.00    -0.224 C  
BRANCH   4   6
HETATM    6  C   UNL     1     -12.020  12.988  68.884  1.00  0.00    -0.263 C  
BRANCH   6   7
HETATM    7  O   UNL     1     -12.260  13.486  70.215  1.00  0.00    -0.336 OA 
BRANCH   7   8
HETATM    8  C   UNL     1     -12.622  12.570  71.150  1.00  0.00    -0.253 C  
HETATM    9  H   UNL     1     -11.700  11.240  69.882  1.00  0.00     0.000 HD 
HETATM   10  O   UNL     1     -13.254  12.813  72.169  1.00  0.00    -0.475 OA 
HETATM   11  N   UNL     1     -12.160  11.342  70.786  1.00  0.00    -0.361 N  
BRANCH  11  12
HETATM   12  C   UNL     1     -12.300  10.173  71.636  1.00  0.00    -0.377 C  
HETATM   13  C   UNL     1     -11.037   9.323  71.603  1.00  0.00    -0.438 C  
HETATM   14  C   UNL     1     -13.518   9.347  71.223  1.00  0.00    -0.331 C  
ENDBRANCH  11  12
ENDBRANCH   7   8
ENDBRANCH   6   7
ENDBRANCH   4   6
BRANCH   4  15
HETATM   15  C   UNL     1     -11.676  14.751  67.092  1.00  0.00    -0.334 C  
BRANCH  15  16
HETATM   16  O   UNL     1     -11.373  14.278  65.767  1.00  0.00    -0.315 OA 
BRANCH  16  17
HETATM   17  C   UNL     1     -12.394  14.272  64.881  1.00  0.00    -0.425 C  
HETATM   18  O   UNL     1     -12.701  15.166  64.111  1.00  0.00    -0.694 OA 
HETATM   19  H1  UNL     1     -13.851  13.107  64.313  1.00  0.00     0.000 HD 
HETATM   20  N   UNL     1     -13.081  13.112  64.982  1.00  0.00    -0.671 N  
HETATM   21  H2  UNL     1     -12.862  12.355  65.630  1.00  0.00     0.000 HD 
ENDBRANCH  16  17
ENDBRANCH  15  16
ENDBRANCH   4  15
ENDBRANCH   3   4
ENDBRANCH   2   3
TORSDOF 9
ENDMDL
MODEL       58
REMARK 921   NORMALIZED FREE ENERGY PREDICTED BY IDOCK:   -4.04 KCAL/MOL
REMARK 922        TOTAL FREE ENERGY PREDICTED BY IDOCK:   -7.11 KCAL/MOL
REMARK 923 INTER-LIGAND FREE ENERGY PREDICTED BY IDOCK:   -6.43 KCAL/MOL
REMARK 924 INTRA-LIGAND FREE ENERGY PREDICTED BY IDOCK:   -0.68 KCAL/MOL
REMARK 927      BINDING AFFINITY PREDICTED BY RF-SCORE:    0.00 PKD
ROOT
HETATM    1  C   UNL     1     -10.905  15.731  70.476  1.00  0.00    -0.319 C  
HETATM    2  C   UNL     1     -10.366  15.151  69.175  1.00  0.00    -0.249 C  
ENDROOT
BRANCH   2   3
HETATM    3  C   UNL     1     -11.206  15.589  67.968  1.00  0.00    -0.332 C  
BRANCH   3   4
HETATM    4  C   UNL     1     -10.444  15.680  66.608  1.00  0.00    -0.301 C  
HETATM    5  C   UNL     1      -9.048  15.035  66.732  1.00  0.00    -0.287 C  
BRANCH   4   6
HETATM    6  C   UNL     1     -10.272  17.187  66.263  1.00  0.00    -0.334 C  
BRANCH   6   7
HETATM    7  O   UNL     1     -10.907  18.015  67.255  1.00  0.00    -0.334 OA 
BRANCH   7   8
HETATM    8  C   UNL     1     -10.151  19.006  67.795  1.00  0.00    -0.379 C  
HETATM    9  H   UNL     1      -8.749  17.516  68.003  1.00  0.00     0.000 HD 
HETATM   10  O   UNL     1     -10.512  20.163  67.954  1.00  0.00    -0.355 OA 
HETATM   11  N   UNL     1      -8.923  18.515  68.118  1.00  0.00    -0.298 N  
BRANCH  11  12
HETATM   12  C   UNL     1      -7.854  19.359  68.623  1.00  0.00    -0.364 C  
HETATM   13  C   UNL     1      -7.248  20.194  67.503  1.00  0.00    -0.320 C  
HETATM   14  C   UNL     1      -6.780  18.517  69.311  1.00  0.00    -0.252 C  
ENDBRANCH  11  12
ENDBRANCH   7   8
ENDBRANCH   6   7
ENDBRANCH   4   6
BRANCH   4  15
HETATM   15  C   UNL     1     -11.217  14.970  65.467  1.00  0.00    -0.344 C  
BRANCH  15  16
HETATM   16  O   UNL     1     -10.813  13.593  65.379  1.00  0.00    -0.286 OA 
BRANCH  16  17
HETATM   17  C   UNL     1     -11.759  12.668  65.660  1.00  0.00    -0.412 C  
HETATM   18  O   UNL     1     -11.681  11.764  66.475  1.00  0.00    -0.530 OA 
HETATM   19  H1  UNL     1     -13.552  12.165  65.081  1.00  0.00     0.000 HD 
HETATM   20  N   UNL     1     -12.839  12.862  64.869  1.00  0.00    -0.738 N  
HETATM   21  H2  UNL     1     -12.925  13.595  64.165  1.00  0.00     0.000 HD 
ENDBRANCH  16  17
ENDBRANCH  15  16
ENDBRANCH   4  15
ENDBRANCH   3   4
ENDBRANCH   2   3
TORSDOF 9
ENDMDL
MODEL       59
REMARK 921   NORMALIZED FREE ENERGY PREDICTED BY IDOCK:   -4.02 KCAL/MOL
REMARK 922        TOTAL FREE ENERGY PREDICTED BY IDOCK:   -7.08 KCAL/MOL
REMARK 923 INTER-LIGAND FREE ENERGY PREDICTED BY IDOCK:   -6.96 KCAL/MOL
REMARK 924 INTRA-LIGAND FREE ENERGY PREDICTED BY IDOCK:   -0.12 KCAL/MOL
REMARK 927      BINDING AFFINITY PREDICTED BY RF-SCORE:    0.00 PKD
ROOT
HETATM    1  C   UNL     1     -11.819  15.607  69.662  1.00  0.00    -0.377 C  
HETATM    2  C   UNL     1     -11.520  15.206  68.224  1.00  0.00    -0.350 C  
ENDROOT
BRANCH   2   3
HETATM    3  C   UNL     1     -11.984  13.774  67.926  1.00  0.00    -0.391 C  
BRANCH   3   4
HETATM    4  C   UNL     1     -11.441  13.146  66.603  1.00  0.00    -0.389 C  
HETATM    5  C   UNL     1     -12.590  12.946  65.594  1.00  0.00    -0.268 C  
BRANCH   4   6
HETATM    6  C   UNL     1     -10.833  11.758  66.954  1.00  0.00    -0.271 C  
BRANCH   6   7
HETATM    7  O   UNL     1     -11.810  10.920  67.601  1.00  0.00    -0.572 OA 
BRANCH   7   8
HETATM    8  C   UNL     1     -11.542  10.549  68.880  1.00  0.00    -0.196 C  
HETATM    9  H   UNL     1     -13.233  11.636  69.312  1.00  0.00     0.000 HD 
HETATM   10  O   UNL     1     -10.584   9.877  69.234  1.00  0.00    -0.202 OA 
HETATM   11  N   UNL     1     -12.512  11.030  69.704  1.00  0.00    -0.237 N  
BRANCH  11  12
HETATM   12  C   UNL     1     -12.559  10.713  71.121  1.00  0.00    -0.423 C  
HETATM   13  C   UNL     1     -13.355   9.439  71.367  1.00  0.00    -0.417 C  
HETATM   14  C   UNL     1     -13.146  11.879  71.917  1.00  0.00    -0.474 C  
ENDBRANCH  11  12
ENDBRANCH   7   8
ENDBRANCH   6   7
ENDBRANCH   4   6
BRANCH   4  15
HETATM   15  C   UNL     1     -10.356  14.037  65.947  1.00  0.00    -0.318 C  
BRANCH  15  16
HETATM   16  O   UNL     1     -10.812  14.511  64.667  1.00  0.00    -0.391 OA 
BRANCH  16  17
HETATM   17  C   UNL     1     -11.150  15.818  64.593  1.00  0.00    -0.361 C  
HETATM   18  O   UNL     1     -11.976  16.321  63.850  1.00  0.00    -1.003 OA 
HETATM   19  H1  UNL     1     -10.657  17.520  65.408  1.00  0.00     0.000 HD 
HETATM   20  N   UNL     1     -10.403  16.534  65.464  1.00  0.00    -0.323 N  
HETATM   21  H2  UNL     1      -9.691  16.145  66.083  1.00  0.00     0.000 HD 
ENDBRANCH  16  17
ENDBRANCH  15  16
ENDBRANCH   4  15
ENDBRANCH   3   4
ENDBRANCH   2   3
TORSDOF 9
ENDMDL
MODEL       60
REMARK 921   NORMALIZED FREE ENERGY PREDICTED BY IDOCK:   -4.02 KCAL/MOL
REMARK 922        TOTAL FREE ENERGY PREDICTED BY IDOCK:   -7.08 KCAL/MOL
REMARK 923 INTER-LIGAND FREE ENERGY PREDICTED BY IDOCK:   -6.45 KCAL/MOL
REMARK 924 INTRA-LIGAND FREE ENERGY PREDICTED BY IDOCK:   -0.63 KCAL/MOL
REMARK 927      BINDING AFFINITY PREDICTED BY RF-SCORE:    0.00 PKD
ROOT
HETATM    1  C   UNL     1     -12.161  13.976  69.448  1.00  0.00    -0.386 C  
HETATM    2  C   UNL     1     -11.681  13.228  68.212  1.00  0.00    -0.388 C  
ENDROOT
BRANCH   2   3
HETATM    3  C   UNL     1     -11.999  13.998  66.923  1.00  0.00    -0.479 C  
BRANCH   3   4
HETATM    4  C   UNL     1     -10.789  14.257  65.971  1.00  0.00    -0.303 C  
HETATM    5  C   UNL     1      -9.533  13.528  66.490  1.00  0.00    -0.265 C  
BRANCH   4   6
HETATM    6  C   UNL     1     -10.514  15.789  65.965  1.00  0.00    -0.338 C  
BRANCH   6   7
HETATM    7  O   UNL     1     -10.473  16.307  67.308  1.00  0.00    -0.294 OA 
BRANCH   7   8
HETATM    8  C   UNL     1      -9.349  16.979  67.666  1.00  0.00    -0.241 C  
HETATM    9  H   UNL     1      -9.254  17.436  65.663  1.00  0.00     0.000 HD 
HETATM   10  O   UNL     1      -8.886  17.031  68.797  1.00  0.00    -0.263 OA 
HETATM   11  N   UNL     1      -8.823  17.599  66.573  1.00  0.00    -0.265 N  
BRANCH  11  12
HETATM   12  C   UNL     1      -7.673  18.482  66.656  1.00  0.00    -0.245 C  
HETATM   13  C   UNL     1      -8.094  19.938  66.508  1.00  0.00    -0.357 C  
HETATM   14  C   UNL     1      -6.630  18.111  65.601  1.00  0.00    -0.277 C  
ENDBRANCH  11  12
ENDBRANCH   7   8
ENDBRANCH   6   7
ENDBRANCH   4   6
BRANCH   4  15
HETATM   15  C   UNL     1     -11.080  13.776  64.526  1.00  0.00    -0.380 C  
BRANCH  15  16
HETATM   16  O   UNL     1     -10.087  12.821  64.115  1.00  0.00    -0.350 OA 
BRANCH  16  17
HETATM   17  C   UNL     1     -10.545  11.641  63.640  1.00  0.00    -0.433 C  
HETATM   18  O   UNL     1      -9.943  10.581  63.605  1.00  0.00    -0.320 OA 
HETATM   19  H1  UNL     1     -12.146  10.906  62.803  1.00  0.00     0.000 HD 
HETATM   20  N   UNL     1     -11.800  11.796  63.161  1.00  0.00    -0.864 N  
HETATM   21  H2  UNL     1     -12.322  12.673  63.157  1.00  0.00     0.000 HD 
ENDBRANCH  16  17
ENDBRANCH  15  16
ENDBRANCH   4  15
ENDBRANCH   3   4
ENDBRANCH   2   3
TORSDOF 9
ENDMDL
MODEL       61
REMARK 921   NORMALIZED FREE ENERGY PREDICTED BY IDOCK:   -4.01 KCAL/MOL
REMARK 922        TOTAL FREE ENERGY PREDICTED BY IDOCK:   -7.06 KCAL/MOL
REMARK 923 INTER-LIGAND FREE ENERGY PREDICTED BY IDOCK:   -6.33 KCAL/MOL
REMARK 924 INTRA-LIGAND FREE ENERGY PREDICTED BY IDOCK:   -0.73 KCAL/MOL
REMARK 927      BINDING AFFINITY PREDICTED BY RF-SCORE:    0.00 PKD
ROOT
HETATM    1  C   UNL     1     -12.193  12.757  63.434  1.00  0.00    -0.594 C  
HETATM    2  C   UNL     1     -11.949  14.020  64.249  1.00  0.00    -0.463 C  
ENDROOT
BRANCH   2   3
HETATM    3  C   UNL     1     -12.502  13.891  65.675  1.00  0.00    -0.538 C  
BRANCH   3   4
HETATM    4  C   UNL     1     -11.436  13.861  66.815  1.00  0.00    -0.369 C  
HETATM    5  C   UNL     1     -10.089  13.339  66.276  1.00  0.00    -0.294 C  
BRANCH   4   6
HETATM    6  C   UNL     1     -11.949  12.888  67.915  1.00  0.00    -0.282 C  
BRANCH   6   7
HETATM    7  O   UNL     1     -10.851  12.183  68.526  1.00  0.00    -0.216 OA 
BRANCH   7   8
HETATM    8  C   UNL     1     -11.085  10.897  68.897  1.00  0.00    -0.252 C  
HETATM    9  H   UNL     1     -11.440  11.731  70.743  1.00  0.00     0.000 HD 
HETATM   10  O   UNL     1     -10.990   9.922  68.165  1.00  0.00    -0.251 OA 
HETATM   11  N   UNL     1     -11.456  10.864  70.206  1.00  0.00    -0.311 N  
BRANCH  11  12
HETATM   12  C   UNL     1     -11.872   9.639  70.868  1.00  0.00    -0.323 C  
HETATM   13  C   UNL     1     -13.119   9.873  71.710  1.00  0.00    -0.553 C  
HETATM   14  C   UNL     1     -10.738   9.075  71.724  1.00  0.00    -0.437 C  
ENDBRANCH  11  12
ENDBRANCH   7   8
ENDBRANCH   6   7
ENDBRANCH   4   6
BRANCH   4  15
HETATM   15  C   UNL     1     -11.212  15.267  67.429  1.00  0.00    -0.311 C  
BRANCH  15  16
HETATM   16  O   UNL     1      -9.805  15.559  67.494  1.00  0.00    -0.219 OA 
BRANCH  16  17
HETATM   17  C   UNL     1      -9.340  16.027  68.674  1.00  0.00    -0.214 C  
HETATM   18  O   UNL     1      -8.770  17.088  68.868  1.00  0.00    -0.263 OA 
HETATM   19  H1  UNL     1      -9.218  15.473  70.540  1.00  0.00     0.000 HD 
HETATM   20  N   UNL     1      -9.569  15.119  69.650  1.00  0.00    -0.436 N  
HETATM   21  H2  UNL     1     -10.024  14.216  69.515  1.00  0.00     0.000 HD 
ENDBRANCH  16  17
ENDBRANCH  15  16
ENDBRANCH   4  15
ENDBRANCH   3   4
ENDBRANCH   2   3
TORSDOF 9
ENDMDL
MODEL       62
REMARK 921   NORMALIZED FREE ENERGY PREDICTED BY IDOCK:   -4.00 KCAL/MOL
REMARK 922        TOTAL FREE ENERGY PREDICTED BY IDOCK:   -7.04 KCAL/MOL
REMARK 923 INTER-LIGAND FREE ENERGY PREDICTED BY IDOCK:   -5.97 KCAL/MOL
REMARK 924 INTRA-LIGAND FREE ENERGY PREDICTED BY IDOCK:   -1.07 KCAL/MOL
REMARK 927      BINDING AFFINITY PREDICTED BY RF-SCORE:    0.00 PKD
ROOT
HETATM    1  C   UNL     1      -7.994  14.223  68.510  1.00  0.00    -0.145 C  
HETATM    2  C   UNL     1      -9.196  14.749  67.738  1.00  0.00    -0.194 C  
ENDROOT
BRANCH   2   3
HETATM    3  C   UNL     1      -9.750  13.698  66.766  1.00  0.00    -0.275 C  
BRANCH   3   4
HETATM    4  C   UNL     1     -11.174  13.151  67.097  1.00  0.00    -0.326 C  
HETATM    5  C   UNL     1     -11.813  13.974  68.234  1.00  0.00    -0.406 C  
BRANCH   4   6
HETATM    6  C   UNL     1     -11.015  11.678  67.572  1.00  0.00    -0.259 C  
BRANCH   6   7
HETATM    7  O   UNL     1      -9.702  11.176  67.254  1.00  0.00    -0.165 OA 
BRANCH   7   8
HETATM    8  C   UNL     1      -9.648  10.064  66.477  1.00  0.00    -0.187 C  
HETATM    9  H   UNL     1      -9.380   9.097  68.272  1.00  0.00     0.000 HD 
HETATM   10  O   UNL     1      -9.729  10.050  65.257  1.00  0.00    -0.267 OA 
HETATM   11  N   UNL     1      -9.503   8.965  67.268  1.00  0.00    -0.149 N  
BRANCH  11  12
HETATM   12  C   UNL     1      -9.516   7.614  66.735  1.00  0.00    -0.191 C  
HETATM   13  C   UNL     1     -10.813   6.901  67.093  1.00  0.00    -0.447 C  
HETATM   14  C   UNL     1      -8.308   6.823  67.238  1.00  0.00    -0.121 C  
ENDBRANCH  11  12
ENDBRANCH   7   8
ENDBRANCH   6   7
ENDBRANCH   4   6
BRANCH   4  15
HETATM   15  C   UNL     1     -12.111  13.200  65.863  1.00  0.00    -0.444 C  
BRANCH  15  16
HETATM   16  O   UNL     1     -11.370  12.898  64.668  1.00  0.00    -0.301 OA 
BRANCH  16  17
HETATM   17  C   UNL     1     -12.016  12.180  63.723  1.00  0.00    -0.513 C  
HETATM   18  O   UNL     1     -13.211  12.196  63.480  1.00  0.00    -0.744 OA 
HETATM   19  H1  UNL     1     -11.626  10.841  62.360  1.00  0.00     0.000 HD 
HETATM   20  N   UNL     1     -11.138  11.383  63.072  1.00  0.00    -0.840 N  
HETATM   21  H2  UNL     1     -10.138  11.332  63.267  1.00  0.00     0.000 HD 
ENDBRANCH  16  17
ENDBRANCH  15  16
ENDBRANCH   4  15
ENDBRANCH   3   4
ENDBRANCH   2   3
TORSDOF 9
ENDMDL
MODEL       63
REMARK 921   NORMALIZED FREE ENERGY PREDICTED BY IDOCK:   -3.99 KCAL/MOL
REMARK 922        TOTAL FREE ENERGY PREDICTED BY IDOCK:   -7.04 KCAL/MOL
REMARK 923 INTER-LIGAND FREE ENERGY PREDICTED BY IDOCK:   -6.41 KCAL/MOL
REMARK 924 INTRA-LIGAND FREE ENERGY PREDICTED BY IDOCK:   -0.63 KCAL/MOL
REMARK 927      BINDING AFFINITY PREDICTED BY RF-SCORE:    0.00 PKD
ROOT
HETATM    1  C   UNL     1     -11.727  10.355  70.304  1.00  0.00    -0.406 C  
HETATM    2  C   UNL     1     -10.670  10.932  69.371  1.00  0.00    -0.265 C  
ENDROOT
BRANCH   2   3
HETATM    3  C   UNL     1     -11.053  10.749  67.897  1.00  0.00    -0.369 C  
BRANCH   3   4
HETATM    4  C   UNL     1     -10.476  11.810  66.909  1.00  0.00    -0.256 C  
HETATM    5  C   UNL     1      -9.366  11.186  66.039  1.00  0.00    -0.228 C  
BRANCH   4   6
HETATM    6  C   UNL     1      -9.861  12.960  67.758  1.00  0.00    -0.221 C  
BRANCH   6   7
HETATM    7  O   UNL     1      -8.922  13.725  66.979  1.00  0.00    -0.227 OA 
BRANCH   7   8
HETATM    8  C   UNL     1      -9.164  15.057  66.870  1.00  0.00    -0.246 C  
HETATM    9  H   UNL     1      -7.457  15.232  68.004  1.00  0.00     0.000 HD 
HETATM   10  O   UNL     1     -10.117  15.557  66.291  1.00  0.00    -0.264 OA 
HETATM   11  N   UNL     1      -8.173  15.750  67.495  1.00  0.00    -0.154 N  
BRANCH  11  12
HETATM   12  C   UNL     1      -8.097  17.201  67.464  1.00  0.00    -0.184 C  
HETATM   13  C   UNL     1      -7.245  17.675  66.294  1.00  0.00    -0.342 C  
HETATM   14  C   UNL     1      -7.551  17.742  68.785  1.00  0.00    -0.260 C  
ENDBRANCH  11  12
ENDBRANCH   7   8
ENDBRANCH   6   7
ENDBRANCH   4   6
BRANCH   4  15
HETATM   15  C   UNL     1     -11.572  12.384  65.975  1.00  0.00    -0.401 C  
BRANCH  15  16
HETATM   16  O   UNL     1     -11.116  12.372  64.611  1.00  0.00    -0.286 OA 
BRANCH  16  17
HETATM   17  C   UNL     1     -12.037  12.661  63.665  1.00  0.00    -0.547 C  
HETATM   18  O   UNL     1     -12.509  13.757  63.412  1.00  0.00    -0.817 OA 
HETATM   19  H1  UNL     1     -13.102  11.747  62.311  1.00  0.00     0.000 HD 
HETATM   20  N   UNL     1     -12.408  11.528  63.025  1.00  0.00    -0.935 N  
HETATM   21  H2  UNL     1     -12.046  10.596  63.227  1.00  0.00     0.000 HD 
ENDBRANCH  16  17
ENDBRANCH  15  16
ENDBRANCH   4  15
ENDBRANCH   3   4
ENDBRANCH   2   3
TORSDOF 9
ENDMDL
MODEL       64
REMARK 921   NORMALIZED FREE ENERGY PREDICTED BY IDOCK:   -3.98 KCAL/MOL
REMARK 922        TOTAL FREE ENERGY PREDICTED BY IDOCK:   -7.02 KCAL/MOL
REMARK 923 INTER-LIGAND FREE ENERGY PREDICTED BY IDOCK:   -6.08 KCAL/MOL
REMARK 924 INTRA-LIGAND FREE ENERGY PREDICTED BY IDOCK:   -0.94 KCAL/MOL
REMARK 927      BINDING AFFINITY PREDICTED BY RF-SCORE:    0.00 PKD
ROOT
HETATM    1  C   UNL     1     -10.590   7.710  67.280  1.00  0.00    -0.388 C  
HETATM    2  C   UNL     1      -9.809   9.012  67.400  1.00  0.00    -0.244 C  
ENDROOT
BRANCH   2   3
HETATM    3  C   UNL     1     -10.379  10.103  66.483  1.00  0.00    -0.270 C  
BRANCH   3   4
HETATM    4  C   UNL     1     -10.727  11.458  67.176  1.00  0.00    -0.292 C  
HETATM    5  C   UNL     1      -9.508  11.990  67.956  1.00  0.00    -0.199 C  
BRANCH   4   6
HETATM    6  C   UNL     1     -11.887  11.191  68.178  1.00  0.00    -0.164 C  
BRANCH   6   7
HETATM    7  O   UNL     1     -11.648  11.864  69.428  1.00  0.00    -0.279 OA 
BRANCH   7   8
HETATM    8  C   UNL     1     -12.038  11.213  70.554  1.00  0.00    -0.381 C  
HETATM    9  H   UNL     1     -10.799   9.729  69.854  1.00  0.00     0.000 HD 
HETATM   10  O   UNL     1     -12.833  11.640  71.379  1.00  0.00    -0.409 OA 
HETATM   11  N   UNL     1     -11.394  10.016  70.631  1.00  0.00    -0.323 N  
BRANCH  11  12
HETATM   12  C   UNL     1     -11.525   9.132  71.777  1.00  0.00    -0.381 C  
HETATM   13  C   UNL     1     -10.194   8.469  72.105  1.00  0.00    -0.403 C  
HETATM   14  C   UNL     1     -12.606   8.081  71.529  1.00  0.00    -0.332 C  
ENDBRANCH  11  12
ENDBRANCH   7   8
ENDBRANCH   6   7
ENDBRANCH   4   6
BRANCH   4  15
HETATM   15  C   UNL     1     -11.166  12.533  66.149  1.00  0.00    -0.321 C  
BRANCH  15  16
HETATM   16  O   UNL     1     -12.177  13.380  66.722  1.00  0.00    -0.377 OA 
BRANCH  16  17
HETATM   17  C   UNL     1     -11.767  14.587  67.174  1.00  0.00    -0.399 C  
HETATM   18  O   UNL     1     -11.035  15.375  66.599  1.00  0.00    -0.313 OA 
HETATM   19  H1  UNL     1     -11.959  15.717  68.752  1.00  0.00     0.000 HD 
HETATM   20  N   UNL     1     -12.268  14.807  68.411  1.00  0.00    -0.605 N  
HETATM   21  H2  UNL     1     -12.865  14.159  68.925  1.00  0.00     0.000 HD 
ENDBRANCH  16  17
ENDBRANCH  15  16
ENDBRANCH   4  15
ENDBRANCH   3   4
ENDBRANCH   2   3
TORSDOF 9
ENDMDL
MODEL       65
REMARK 921   NORMALIZED FREE ENERGY PREDICTED BY IDOCK:   -3.97 KCAL/MOL
REMARK 922        TOTAL FREE ENERGY PREDICTED BY IDOCK:   -7.00 KCAL/MOL
REMARK 923 INTER-LIGAND FREE ENERGY PREDICTED BY IDOCK:   -6.20 KCAL/MOL
REMARK 924 INTRA-LIGAND FREE ENERGY PREDICTED BY IDOCK:   -0.80 KCAL/MOL
REMARK 927      BINDING AFFINITY PREDICTED BY RF-SCORE:    0.00 PKD
ROOT
HETATM    1  C   UNL     1     -10.450  16.830  65.729  1.00  0.00    -0.305 C  
HETATM    2  C   UNL     1     -10.745  15.536  64.983  1.00  0.00    -0.463 C  
ENDROOT
BRANCH   2   3
HETATM    3  C   UNL     1     -11.820  14.703  65.694  1.00  0.00    -0.273 C  
BRANCH   3   4
HETATM    4  C   UNL     1     -11.558  13.165  65.751  1.00  0.00    -0.383 C  
HETATM    5  C   UNL     1     -12.376  12.441  64.663  1.00  0.00    -0.518 C  
BRANCH   4   6
HETATM    6  C   UNL     1     -12.021  12.659  67.148  1.00  0.00    -0.256 C  
BRANCH   6   7
HETATM    7  O   UNL     1     -12.044  13.738  68.102  1.00  0.00    -0.364 OA 
BRANCH   7   8
HETATM    8  C   UNL     1     -12.065  13.390  69.414  1.00  0.00    -0.269 C  
HETATM    9  H   UNL     1     -12.504  15.378  69.703  1.00  0.00     0.000 HD 
HETATM   10  O   UNL     1     -11.835  12.272  69.852  1.00  0.00    -0.321 OA 
HETATM   11  N   UNL     1     -12.396  14.476  70.166  1.00  0.00    -0.335 N  
BRANCH  11  12
HETATM   12  C   UNL     1     -12.601  14.397  71.602  1.00  0.00    -0.353 C  
HETATM   13  C   UNL     1     -14.059  14.652  71.958  1.00  0.00    -0.603 C  
HETATM   14  C   UNL     1     -11.686  15.379  72.333  1.00  0.00    -0.565 C  
ENDBRANCH  11  12
ENDBRANCH   7   8
ENDBRANCH   6   7
ENDBRANCH   4   6
BRANCH   4  15
HETATM   15  C   UNL     1     -10.058  12.829  65.549  1.00  0.00    -0.264 C  
BRANCH  15  16
HETATM   16  O   UNL     1      -9.500  12.309  66.768  1.00  0.00    -0.209 OA 
BRANCH  16  17
HETATM   17  C   UNL     1      -8.675  13.133  67.453  1.00  0.00    -0.206 C  
HETATM   18  O   UNL     1      -8.199  14.185  67.061  1.00  0.00    -0.170 OA 
HETATM   19  H1  UNL     1      -7.787  13.228  69.186  1.00  0.00     0.000 HD 
HETATM   20  N   UNL     1      -8.409  12.606  68.670  1.00  0.00    -0.345 N  
HETATM   21  H2  UNL     1      -8.775  11.720  69.018  1.00  0.00     0.000 HD 
ENDBRANCH  16  17
ENDBRANCH  15  16
ENDBRANCH   4  15
ENDBRANCH   3   4
ENDBRANCH   2   3
TORSDOF 9
ENDMDL
MODEL       66
REMARK 921   NORMALIZED FREE ENERGY PREDICTED BY IDOCK:   -3.95 KCAL/MOL
REMARK 922        TOTAL FREE ENERGY PREDICTED BY IDOCK:   -6.98 KCAL/MOL
REMARK 923 INTER-LIGAND FREE ENERGY PREDICTED BY IDOCK:   -6.25 KCAL/MOL
REMARK 924 INTRA-LIGAND FREE ENERGY PREDICTED BY IDOCK:   -0.73 KCAL/MOL
REMARK 927      BINDING AFFINITY PREDICTED BY RF-SCORE:    0.00 PKD
ROOT
HETATM    1  C   UNL     1      -8.673  16.260  67.871  1.00  0.00    -0.175 C  
HETATM    2  C   UNL     1      -8.783  15.091  66.902  1.00  0.00    -0.285 C  
ENDROOT
BRANCH   2   3
HETATM    3  C   UNL     1     -10.073  15.159  66.074  1.00  0.00    -0.323 C  
BRANCH   3   4
HETATM    4  C   UNL     1     -10.874  13.824  65.954  1.00  0.00    -0.283 C  
HETATM    5  C   UNL     1     -11.294  13.580  64.491  1.00  0.00    -0.386 C  
BRANCH   4   6
HETATM    6  C   UNL     1     -12.154  13.961  66.828  1.00  0.00    -0.439 C  
BRANCH   6   7
HETATM    7  O   UNL     1     -11.939  14.891  67.907  1.00  0.00    -0.317 OA 
BRANCH   7   8
HETATM    8  C   UNL     1     -12.086  14.405  69.167  1.00  0.00    -0.281 C  
HETATM    9  H   UNL     1     -12.416  16.377  69.647  1.00  0.00     0.000 HD 
HETATM   10  O   UNL     1     -11.965  13.233  69.491  1.00  0.00    -0.307 OA 
HETATM   11  N   UNL     1     -12.404  15.425  70.011  1.00  0.00    -0.358 N  
BRANCH  11  12
HETATM   12  C   UNL     1     -12.725  15.206  71.411  1.00  0.00    -0.372 C  
HETATM   13  C   UNL     1     -14.229  15.279  71.641  1.00  0.00    -0.654 C  
HETATM   14  C   UNL     1     -11.993  16.214  72.298  1.00  0.00    -0.637 C  
ENDBRANCH  11  12
ENDBRANCH   7   8
ENDBRANCH   6   7
ENDBRANCH   4   6
BRANCH   4  15
HETATM   15  C   UNL     1     -10.042  12.609  66.439  1.00  0.00    -0.253 C  
BRANCH  15  16
HETATM   16  O   UNL     1     -10.912  11.596  66.974  1.00  0.00    -0.257 OA 
BRANCH  16  17
HETATM   17  C   UNL     1     -10.617  10.317  66.652  1.00  0.00    -0.162 C  
HETATM   18  O   UNL     1     -10.126   9.918  65.610  1.00  0.00    -0.289 OA 
HETATM   19  H1  UNL     1     -10.758   8.530  67.420  1.00  0.00     0.000 HD 
HETATM   20  N   UNL     1     -10.981   9.495  67.663  1.00  0.00    -0.471 N  
HETATM   21  H2  UNL     1     -11.412   9.796  68.537  1.00  0.00     0.000 HD 
ENDBRANCH  16  17
ENDBRANCH  15  16
ENDBRANCH   4  15
ENDBRANCH   3   4
ENDBRANCH   2   3
TORSDOF 9
ENDMDL
MODEL       67
REMARK 921   NORMALIZED FREE ENERGY PREDICTED BY IDOCK:   -3.94 KCAL/MOL
REMARK 922        TOTAL FREE ENERGY PREDICTED BY IDOCK:   -6.97 KCAL/MOL
REMARK 923 INTER-LIGAND FREE ENERGY PREDICTED BY IDOCK:   -6.46 KCAL/MOL
REMARK 924 INTRA-LIGAND FREE ENERGY PREDICTED BY IDOCK:   -0.51 KCAL/MOL
REMARK 927      BINDING AFFINITY PREDICTED BY RF-SCORE:    0.00 PKD
ROOT
HETATM    1  C   UNL     1     -12.109  14.591  64.340  1.00  0.00    -0.492 C  
HETATM    2  C   UNL     1     -11.134  14.865  65.478  1.00  0.00    -0.353 C  
ENDROOT
BRANCH   2   3
HETATM    3  C   UNL     1     -11.747  14.526  66.844  1.00  0.00    -0.399 C  
BRANCH   3   4
HETATM    4  C   UNL     1     -10.884  14.909  68.088  1.00  0.00    -0.256 C  
HETATM    5  C   UNL     1      -9.619  15.673  67.648  1.00  0.00    -0.220 C  
BRANCH   4   6
HETATM    6  C   UNL     1     -10.455  13.588  68.789  1.00  0.00    -0.197 C  
BRANCH   6   7
HETATM    7  O   UNL     1     -10.509  12.480  67.870  1.00  0.00    -0.208 OA 
BRANCH   7   8
HETATM    8  C   UNL     1     -11.049  11.326  68.340  1.00  0.00    -0.240 C  
HETATM    9  H   UNL     1      -9.502  11.417  69.693  1.00  0.00     0.000 HD 
HETATM   10  O   UNL     1     -12.025  10.759  67.871  1.00  0.00    -0.518 OA 
HETATM   11  N   UNL     1     -10.341  10.903  69.424  1.00  0.00    -0.188 N  
BRANCH  11  12
HETATM   12  C   UNL     1     -10.736   9.748  70.211  1.00  0.00    -0.302 C  
HETATM   13  C   UNL     1     -11.902  10.089  71.130  1.00  0.00    -0.481 C  
HETATM   14  C   UNL     1      -9.553   9.211  71.016  1.00  0.00    -0.350 C  
ENDBRANCH  11  12
ENDBRANCH   7   8
ENDBRANCH   6   7
ENDBRANCH   4   6
BRANCH   4  15
HETATM   15  C   UNL     1     -11.675  15.793  69.086  1.00  0.00    -0.388 C  
BRANCH  15  16
HETATM   16  O   UNL     1     -11.322  15.449  70.437  1.00  0.00    -0.273 OA 
BRANCH  16  17
HETATM   17  C   UNL     1     -12.238  15.732  71.390  1.00  0.00    -0.445 C  
HETATM   18  O   UNL     1     -12.038  16.285  72.458  1.00  0.00    -0.509 OA 
HETATM   19  H1  UNL     1     -14.144  15.491  71.725  1.00  0.00     0.000 HD 
HETATM   20  N   UNL     1     -13.453  15.277  71.006  1.00  0.00    -0.636 N  
HETATM   21  H2  UNL     1     -13.648  14.793  70.130  1.00  0.00     0.000 HD 
ENDBRANCH  16  17
ENDBRANCH  15  16
ENDBRANCH   4  15
ENDBRANCH   3   4
ENDBRANCH   2   3
TORSDOF 9
ENDMDL
MODEL       68
REMARK 921   NORMALIZED FREE ENERGY PREDICTED BY IDOCK:   -3.91 KCAL/MOL
REMARK 922        TOTAL FREE ENERGY PREDICTED BY IDOCK:   -6.92 KCAL/MOL
REMARK 923 INTER-LIGAND FREE ENERGY PREDICTED BY IDOCK:   -6.28 KCAL/MOL
REMARK 924 INTRA-LIGAND FREE ENERGY PREDICTED BY IDOCK:   -0.64 KCAL/MOL
REMARK 927      BINDING AFFINITY PREDICTED BY RF-SCORE:    0.00 PKD
ROOT
HETATM    1  C   UNL     1      -7.263  12.131  68.471  1.00  0.00    -0.102 C  
HETATM    2  C   UNL     1      -8.113  12.973  67.528  1.00  0.00    -0.179 C  
ENDROOT
BRANCH   2   3
HETATM    3  C   UNL     1      -9.563  13.086  68.019  1.00  0.00    -0.224 C  
BRANCH   3   4
HETATM    4  C   UNL     1     -10.613  13.499  66.940  1.00  0.00    -0.270 C  
HETATM    5  C   UNL     1     -11.949  13.879  67.610  1.00  0.00    -0.403 C  
BRANCH   4   6
HETATM    6  C   UNL     1     -10.847  12.270  66.015  1.00  0.00    -0.275 C  
BRANCH   6   7
HETATM    7  O   UNL     1     -11.029  11.072  66.792  1.00  0.00    -0.267 OA 
BRANCH   7   8
HETATM    8  C   UNL     1     -10.401   9.954  66.343  1.00  0.00    -0.176 C  
HETATM    9  H   UNL     1     -10.995   9.167  68.147  1.00  0.00     0.000 HD 
HETATM   10  O   UNL     1      -9.812   9.855  65.276  1.00  0.00    -0.302 OA 
HETATM   11  N   UNL     1     -10.540   8.957  67.259  1.00  0.00    -0.275 N  
BRANCH  11  12
HETATM   12  C   UNL     1     -10.063   7.606  67.020  1.00  0.00    -0.268 C  
HETATM   13  C   UNL     1     -11.024   6.579  67.602  1.00  0.00    -0.426 C  
HETATM   14  C   UNL     1      -8.658   7.419  67.594  1.00  0.00    -0.119 C  
ENDBRANCH  11  12
ENDBRANCH   7   8
ENDBRANCH   6   7
ENDBRANCH   4   6
BRANCH   4  15
HETATM   15  C   UNL     1     -10.125  14.702  66.092  1.00  0.00    -0.300 C  
BRANCH  15  16
HETATM   16  O   UNL     1     -10.524  14.534  64.721  1.00  0.00    -0.423 OA 
BRANCH  16  17
HETATM   17  C   UNL     1     -11.460  15.391  64.256  1.00  0.00    -0.171 C  
HETATM   18  O   UNL     1     -11.376  16.607  64.199  1.00  0.00    -1.141 OA 
HETATM   19  H1  UNL     1     -13.267  15.352  63.523  1.00  0.00     0.000 HD 
HETATM   20  N   UNL     1     -12.561  14.705  63.874  1.00  0.00    -0.963 N  
HETATM   21  H2  UNL     1     -12.668  13.692  63.929  1.00  0.00     0.000 HD 
ENDBRANCH  16  17
ENDBRANCH  15  16
ENDBRANCH   4  15
ENDBRANCH   3   4
ENDBRANCH   2   3
TORSDOF 9
ENDMDL
MODEL       69
REMARK 921   NORMALIZED FREE ENERGY PREDICTED BY IDOCK:   -3.89 KCAL/MOL
REMARK 922        TOTAL FREE ENERGY PREDICTED BY IDOCK:   -6.89 KCAL/MOL
REMARK 923 INTER-LIGAND FREE ENERGY PREDICTED BY IDOCK:   -6.54 KCAL/MOL
REMARK 924 INTRA-LIGAND FREE ENERGY PREDICTED BY IDOCK:   -0.35 KCAL/MOL
REMARK 927      BINDING AFFINITY PREDICTED BY RF-SCORE:    0.00 PKD
ROOT
HETATM    1  C   UNL     1     -10.326   7.772  67.078  1.00  0.00    -0.405 C  
HETATM    2  C   UNL     1      -9.799   9.194  67.219  1.00  0.00    -0.244 C  
ENDROOT
BRANCH   2   3
HETATM    3  C   UNL     1     -10.856  10.233  66.820  1.00  0.00    -0.157 C  
BRANCH   3   4
HETATM    4  C   UNL     1     -10.979  11.472  67.761  1.00  0.00    -0.291 C  
HETATM    5  C   UNL     1      -9.590  11.886  68.287  1.00  0.00    -0.201 C  
BRANCH   4   6
HETATM    6  C   UNL     1     -11.871  11.061  68.968  1.00  0.00    -0.329 C  
BRANCH   6   7
HETATM    7  O   UNL     1     -11.092  10.980  70.176  1.00  0.00    -0.237 OA 
BRANCH   7   8
HETATM    8  C   UNL     1     -10.853   9.735  70.664  1.00  0.00    -0.329 C  
HETATM    9  H   UNL     1     -12.884   9.714  70.985  1.00  0.00     0.000 HD 
HETATM   10  O   UNL     1      -9.753   9.207  70.745  1.00  0.00    -0.228 OA 
HETATM   11  N   UNL     1     -12.029   9.160  71.036  1.00  0.00    -0.291 N  
BRANCH  11  12
HETATM   12  C   UNL     1     -12.113   7.786  71.502  1.00  0.00    -0.309 C  
HETATM   13  C   UNL     1     -13.564   7.345  71.634  1.00  0.00    -0.449 C  
HETATM   14  C   UNL     1     -11.373   7.620  72.829  1.00  0.00    -0.419 C  
ENDBRANCH  11  12
ENDBRANCH   7   8
ENDBRANCH   6   7
ENDBRANCH   4   6
BRANCH   4  15
HETATM   15  C   UNL     1     -11.615  12.685  67.036  1.00  0.00    -0.365 C  
BRANCH  15  16
HETATM   16  O   UNL     1     -12.246  12.256  65.816  1.00  0.00    -0.622 OA 
BRANCH  16  17
HETATM   17  C   UNL     1     -12.593  13.229  64.943  1.00  0.00    -0.384 C  
HETATM   18  O   UNL     1     -12.672  14.424  65.170  1.00  0.00    -0.549 OA 
HETATM   19  H1  UNL     1     -13.147  13.415  63.083  1.00  0.00     0.000 HD 
HETATM   20  N   UNL     1     -12.885  12.682  63.741  1.00  0.00    -0.737 N  
HETATM   21  H2  UNL     1     -12.849  11.685  63.526  1.00  0.00     0.000 HD 
ENDBRANCH  16  17
ENDBRANCH  15  16
ENDBRANCH   4  15
ENDBRANCH   3   4
ENDBRANCH   2   3
TORSDOF 9
ENDMDL
MODEL       70
REMARK 921   NORMALIZED FREE ENERGY PREDICTED BY IDOCK:   -3.89 KCAL/MOL
REMARK 922        TOTAL FREE ENERGY PREDICTED BY IDOCK:   -6.89 KCAL/MOL
REMARK 923 INTER-LIGAND FREE ENERGY PREDICTED BY IDOCK:   -6.34 KCAL/MOL
REMARK 924 INTRA-LIGAND FREE ENERGY PREDICTED BY IDOCK:   -0.55 KCAL/MOL
REMARK 927      BINDING AFFINITY PREDICTED BY RF-SCORE:    0.00 PKD
ROOT
HETATM    1  C   UNL     1      -7.662  13.007  68.412  1.00  0.00    -0.137 C  
HETATM    2  C   UNL     1      -8.219  14.020  67.420  1.00  0.00    -0.203 C  
ENDROOT
BRANCH   2   3
HETATM    3  C   UNL     1      -8.988  15.143  68.128  1.00  0.00    -0.174 C  
BRANCH   3   4
HETATM    4  C   UNL     1      -9.195  16.450  67.299  1.00  0.00    -0.224 C  
HETATM    5  C   UNL     1     -10.558  17.087  67.633  1.00  0.00    -0.333 C  
BRANCH   4   6
HETATM    6  C   UNL     1      -9.177  16.061  65.793  1.00  0.00    -0.180 C  
BRANCH   6   7
HETATM    7  O   UNL     1     -10.238  16.726  65.081  1.00  0.00    -0.599 OA 
BRANCH   7   8
HETATM    8  C   UNL     1     -11.176  15.931  64.505  1.00  0.00    -0.312 C  
HETATM    9  H   UNL     1     -10.047  14.407  65.299  1.00  0.00     0.000 HD 
HETATM   10  O   UNL     1     -12.126  16.324  63.843  1.00  0.00    -0.986 OA 
HETATM   11  N   UNL     1     -10.904  14.628  64.791  1.00  0.00    -0.401 N  
BRANCH  11  12
HETATM   12  C   UNL     1     -11.787  13.543  64.400  1.00  0.00    -0.414 C  
HETATM   13  C   UNL     1     -12.337  12.823  65.624  1.00  0.00    -0.444 C  
HETATM   14  C   UNL     1     -11.063  12.563  63.477  1.00  0.00    -0.497 C  
ENDBRANCH  11  12
ENDBRANCH   7   8
ENDBRANCH   6   7
ENDBRANCH   4   6
BRANCH   4  15
HETATM   15  C   UNL     1      -8.080  17.491  67.579  1.00  0.00    -0.205 C  
BRANCH  15  16
HETATM   16  O   UNL     1      -8.054  18.480  66.536  1.00  0.00    -0.262 OA 
BRANCH  16  17
HETATM   17  C   UNL     1      -8.705  19.638  66.786  1.00  0.00    -0.334 C  
HETATM   18  O   UNL     1      -8.641  20.310  67.802  1.00  0.00    -0.290 OA 
HETATM   19  H1  UNL     1      -9.986  20.830  65.925  1.00  0.00     0.000 HD 
HETATM   20  N   UNL     1      -9.495  19.957  65.736  1.00  0.00    -0.342 N  
HETATM   21  H2  UNL     1      -9.586  19.406  64.882  1.00  0.00     0.000 HD 
ENDBRANCH  16  17
ENDBRANCH  15  16
ENDBRANCH   4  15
ENDBRANCH   3   4
ENDBRANCH   2   3
TORSDOF 9
ENDMDL
MODEL       71
REMARK 921   NORMALIZED FREE ENERGY PREDICTED BY IDOCK:   -3.89 KCAL/MOL
REMARK 922        TOTAL FREE ENERGY PREDICTED BY IDOCK:   -6.88 KCAL/MOL
REMARK 923 INTER-LIGAND FREE ENERGY PREDICTED BY IDOCK:   -6.21 KCAL/MOL
REMARK 924 INTRA-LIGAND FREE ENERGY PREDICTED BY IDOCK:   -0.67 KCAL/MOL
REMARK 927      BINDING AFFINITY PREDICTED BY RF-SCORE:    0.00 PKD
ROOT
HETATM    1  C   UNL     1     -10.760  16.543  69.130  1.00  0.00    -0.335 C  
HETATM    2  C   UNL     1     -11.372  15.833  67.930  1.00  0.00    -0.277 C  
ENDROOT
BRANCH   2   3
HETATM    3  C   UNL     1     -10.365  14.896  67.251  1.00  0.00    -0.251 C  
BRANCH   3   4
HETATM    4  C   UNL     1     -10.741  13.381  67.250  1.00  0.00    -0.265 C  
HETATM    5  C   UNL     1     -12.131  13.174  66.614  1.00  0.00    -0.409 C  
BRANCH   4   6
HETATM    6  C   UNL     1     -10.792  12.907  68.731  1.00  0.00    -0.242 C  
BRANCH   6   7
HETATM    7  O   UNL     1     -12.152  12.698  69.156  1.00  0.00    -0.249 OA 
BRANCH   7   8
HETATM    8  C   UNL     1     -12.408  12.862  70.479  1.00  0.00    -0.283 C  
HETATM    9  H   UNL     1     -12.423  14.862  69.999  1.00  0.00     0.000 HD 
HETATM   10  O   UNL     1     -12.489  11.960  71.301  1.00  0.00    -0.312 OA 
HETATM   11  N   UNL     1     -12.576  14.187  70.748  1.00  0.00    -0.344 N  
BRANCH  11  12
HETATM   12  C   UNL     1     -12.963  14.673  72.061  1.00  0.00    -0.334 C  
HETATM   13  C   UNL     1     -14.380  15.232  72.037  1.00  0.00    -0.689 C  
HETATM   14  C   UNL     1     -11.975  15.726  72.560  1.00  0.00    -0.600 C  
ENDBRANCH  11  12
ENDBRANCH   7   8
ENDBRANCH   6   7
ENDBRANCH   4   6
BRANCH   4  15
HETATM   15  C   UNL     1      -9.708  12.531  66.468  1.00  0.00    -0.246 C  
BRANCH  15  16
HETATM   16  O   UNL     1     -10.381  11.521  65.697  1.00  0.00    -0.242 OA 
BRANCH  16  17
HETATM   17  C   UNL     1      -9.880  11.268  64.467  1.00  0.00    -0.270 C  
HETATM   18  O   UNL     1      -9.680  10.173  63.967  1.00  0.00    -0.306 OA 
HETATM   19  H1  UNL     1      -9.209  12.241  62.915  1.00  0.00     0.000 HD 
HETATM   20  N   UNL     1      -9.587  12.432  63.843  1.00  0.00    -0.553 N  
HETATM   21  H2  UNL     1      -9.724  13.361  64.242  1.00  0.00     0.000 HD 
ENDBRANCH  16  17
ENDBRANCH  15  16
ENDBRANCH   4  15
ENDBRANCH   3   4
ENDBRANCH   2   3
TORSDOF 9
ENDMDL
MODEL       72
REMARK 921   NORMALIZED FREE ENERGY PREDICTED BY IDOCK:   -3.88 KCAL/MOL
REMARK 922        TOTAL FREE ENERGY PREDICTED BY IDOCK:   -6.88 KCAL/MOL
REMARK 923 INTER-LIGAND FREE ENERGY PREDICTED BY IDOCK:   -6.22 KCAL/MOL
REMARK 924 INTRA-LIGAND FREE ENERGY PREDICTED BY IDOCK:   -0.65 KCAL/MOL
REMARK 927      BINDING AFFINITY PREDICTED BY RF-SCORE:    0.00 PKD
ROOT
HETATM    1  C   UNL     1     -10.765  16.290  69.312  1.00  0.00    -0.307 C  
HETATM    2  C   UNL     1     -11.515  15.928  68.037  1.00  0.00    -0.236 C  
ENDROOT
BRANCH   2   3
HETATM    3  C   UNL     1     -10.608  15.206  67.031  1.00  0.00    -0.300 C  
BRANCH   3   4
HETATM    4  C   UNL     1     -10.774  13.656  66.959  1.00  0.00    -0.278 C  
HETATM    5  C   UNL     1     -12.148  13.237  67.520  1.00  0.00    -0.312 C  
BRANCH   4   6
HETATM    6  C   UNL     1      -9.658  13.021  67.838  1.00  0.00    -0.215 C  
BRANCH   6   7
HETATM    7  O   UNL     1      -9.642  11.589  67.689  1.00  0.00    -0.167 OA 
BRANCH   7   8
HETATM    8  C   UNL     1      -9.452  10.861  68.820  1.00  0.00    -0.190 C  
HETATM    9  H   UNL     1     -11.508  10.831  68.876  1.00  0.00     0.000 HD 
HETATM   10  O   UNL     1      -8.366  10.578  69.305  1.00  0.00    -0.155 OA 
HETATM   11  N   UNL     1     -10.660  10.485  69.324  1.00  0.00    -0.222 N  
BRANCH  11  12
HETATM   12  C   UNL     1     -10.785   9.609  70.476  1.00  0.00    -0.311 C  
HETATM   13  C   UNL     1     -11.018   8.168  70.041  1.00  0.00    -0.199 C  
HETATM   14  C   UNL     1     -11.908  10.084  71.397  1.00  0.00    -0.447 C  
ENDBRANCH  11  12
ENDBRANCH   7   8
ENDBRANCH   6   7
ENDBRANCH   4   6
BRANCH   4  15
HETATM   15  C   UNL     1     -10.652  13.130  65.506  1.00  0.00    -0.288 C  
BRANCH  15  16
HETATM   16  O   UNL     1     -11.937  12.699  65.027  1.00  0.00    -0.372 OA 
BRANCH  16  17
HETATM   17  C   UNL     1     -12.161  12.830  63.700  1.00  0.00    -0.512 C  
HETATM   18  O   UNL     1     -12.507  13.840  63.111  1.00  0.00    -0.786 OA 
HETATM   19  H1  UNL     1     -12.144  11.739  62.084  1.00  0.00     0.000 HD 
HETATM   20  N   UNL     1     -11.975  11.640  63.084  1.00  0.00    -0.926 N  
HETATM   21  H2  UNL     1     -11.706  10.774  63.552  1.00  0.00     0.000 HD 
ENDBRANCH  16  17
ENDBRANCH  15  16
ENDBRANCH   4  15
ENDBRANCH   3   4
ENDBRANCH   2   3
TORSDOF 9
ENDMDL
MODEL       73
REMARK 921   NORMALIZED FREE ENERGY PREDICTED BY IDOCK:   -3.87 KCAL/MOL
REMARK 922        TOTAL FREE ENERGY PREDICTED BY IDOCK:   -6.85 KCAL/MOL
REMARK 923 INTER-LIGAND FREE ENERGY PREDICTED BY IDOCK:   -5.96 KCAL/MOL
REMARK 924 INTRA-LIGAND FREE ENERGY PREDICTED BY IDOCK:   -0.89 KCAL/MOL
REMARK 927      BINDING AFFINITY PREDICTED BY RF-SCORE:    0.00 PKD
ROOT
HETATM    1  C   UNL     1     -11.582  12.167  67.665  1.00  0.00    -0.413 C  
HETATM    2  C   UNL     1     -11.181  13.576  68.084  1.00  0.00    -0.302 C  
ENDROOT
BRANCH   2   3
HETATM    3  C   UNL     1     -11.662  14.627  67.075  1.00  0.00    -0.379 C  
BRANCH   3   4
HETATM    4  C   UNL     1     -10.546  15.307  66.220  1.00  0.00    -0.312 C  
HETATM    5  C   UNL     1     -10.818  16.820  66.090  1.00  0.00    -0.006 C  
BRANCH   4   6
HETATM    6  C   UNL     1     -10.580  14.666  64.803  1.00  0.00    -0.353 C  
BRANCH   6   7
HETATM    7  O   UNL     1     -11.858  14.052  64.550  1.00  0.00    -0.393 OA 
BRANCH   7   8
HETATM    8  C   UNL     1     -11.837  12.810  64.000  1.00  0.00    -0.435 C  
HETATM    9  H   UNL     1      -9.849  12.856  64.523  1.00  0.00     0.000 HD 
HETATM   10  O   UNL     1     -12.793  12.252  63.480  1.00  0.00    -0.768 OA 
HETATM   11  N   UNL     1     -10.591  12.277  64.130  1.00  0.00    -0.344 N  
BRANCH  11  12
HETATM   12  C   UNL     1     -10.279  10.916  63.729  1.00  0.00    -0.343 C  
HETATM   13  C   UNL     1      -9.776  10.103  64.914  1.00  0.00    -0.392 C  
HETATM   14  C   UNL     1      -9.256  10.908  62.594  1.00  0.00    -0.357 C  
ENDBRANCH  11  12
ENDBRANCH   7   8
ENDBRANCH   6   7
ENDBRANCH   4   6
BRANCH   4  15
HETATM   15  C   UNL     1      -9.142  15.110  66.846  1.00  0.00    -0.247 C  
BRANCH  15  16
HETATM   16  O   UNL     1      -8.703  16.329  67.470  1.00  0.00    -0.179 OA 
BRANCH  16  17
HETATM   17  C   UNL     1      -8.492  16.281  68.805  1.00  0.00    -0.240 C  
HETATM   18  O   UNL     1      -9.201  15.745  69.640  1.00  0.00    -0.265 OA 
HETATM   19  H1  UNL     1      -7.204  16.920  70.122  1.00  0.00     0.000 HD 
HETATM   20  N   UNL     1      -7.362  16.957  69.115  1.00  0.00    -0.229 N  
HETATM   21  H2  UNL     1      -6.761  17.432  68.442  1.00  0.00     0.000 HD 
ENDBRANCH  16  17
ENDBRANCH  15  16
ENDBRANCH   4  15
ENDBRANCH   3   4
ENDBRANCH   2   3
TORSDOF 9
ENDMDL
MODEL       74
REMARK 921   NORMALIZED FREE ENERGY PREDICTED BY IDOCK:   -3.86 KCAL/MOL
REMARK 922        TOTAL FREE ENERGY PREDICTED BY IDOCK:   -6.84 KCAL/MOL
REMARK 923 INTER-LIGAND FREE ENERGY PREDICTED BY IDOCK:   -6.02 KCAL/MOL
REMARK 924 INTRA-LIGAND FREE ENERGY PREDICTED BY IDOCK:   -0.82 KCAL/MOL
REMARK 927      BINDING AFFINITY PREDICTED BY RF-SCORE:    0.00 PKD
ROOT
HETATM    1  C   UNL     1     -10.587  19.542  65.907  1.00  0.00    -0.572 C  
HETATM    2  C   UNL     1     -10.522  18.667  67.153  1.00  0.00    -0.461 C  
ENDROOT
BRANCH   2   3
HETATM    3  C   UNL     1      -9.670  17.412  66.921  1.00  0.00    -0.286 C  
BRANCH   3   4
HETATM    4  C   UNL     1      -9.837  16.275  67.977  1.00  0.00    -0.236 C  
HETATM    5  C   UNL     1      -8.700  16.337  69.017  1.00  0.00    -0.246 C  
BRANCH   4   6
HETATM    6  C   UNL     1      -9.755  14.916  67.223  1.00  0.00    -0.228 C  
BRANCH   6   7
HETATM    7  O   UNL     1     -10.780  14.014  67.683  1.00  0.00    -0.253 OA 
BRANCH   7   8
HETATM    8  C   UNL     1     -11.142  13.020  66.831  1.00  0.00    -0.277 C  
HETATM    9  H   UNL     1      -9.768  11.916  67.890  1.00  0.00     0.000 HD 
HETATM   10  O   UNL     1     -11.954  13.129  65.923  1.00  0.00    -0.383 OA 
HETATM   11  N   UNL     1     -10.472  11.880  67.153  1.00  0.00    -0.217 N  
BRANCH  11  12
HETATM   12  C   UNL     1     -10.723  10.613  66.487  1.00  0.00    -0.151 C  
HETATM   13  C   UNL     1     -10.372   9.443  67.395  1.00  0.00    -0.325 C  
HETATM   14  C   UNL     1      -9.945  10.531  65.173  1.00  0.00    -0.375 C  
ENDBRANCH  11  12
ENDBRANCH   7   8
ENDBRANCH   6   7
ENDBRANCH   4   6
BRANCH   4  15
HETATM   15  C   UNL     1     -11.194  16.375  68.721  1.00  0.00    -0.313 C  
BRANCH  15  16
HETATM   16  O   UNL     1     -10.985  16.298  70.142  1.00  0.00    -0.344 OA 
BRANCH  16  17
HETATM   17  C   UNL     1     -11.862  15.543  70.840  1.00  0.00    -0.371 C  
HETATM   18  O   UNL     1     -12.810  15.940  71.498  1.00  0.00    -0.465 OA 
HETATM   19  H1  UNL     1     -12.187  13.668  71.266  1.00  0.00     0.000 HD 
HETATM   20  N   UNL     1     -11.525  14.237  70.739  1.00  0.00    -0.518 N  
HETATM   21  H2  UNL     1     -10.728  13.877  70.215  1.00  0.00     0.000 HD 
ENDBRANCH  16  17
ENDBRANCH  15  16
ENDBRANCH   4  15
ENDBRANCH   3   4
ENDBRANCH   2   3
TORSDOF 9
ENDMDL
MODEL       75
REMARK 921   NORMALIZED FREE ENERGY PREDICTED BY IDOCK:   -3.83 KCAL/MOL
REMARK 922        TOTAL FREE ENERGY PREDICTED BY IDOCK:   -6.79 KCAL/MOL
REMARK 923 INTER-LIGAND FREE ENERGY PREDICTED BY IDOCK:   -5.90 KCAL/MOL
REMARK 924 INTRA-LIGAND FREE ENERGY PREDICTED BY IDOCK:   -0.89 KCAL/MOL
REMARK 927      BINDING AFFINITY PREDICTED BY RF-SCORE:    0.00 PKD
ROOT
HETATM    1  C   UNL     1     -12.002  13.514  64.113  1.00  0.00    -0.498 C  
HETATM    2  C   UNL     1     -11.233  12.980  65.315  1.00  0.00    -0.316 C  
ENDROOT
BRANCH   2   3
HETATM    3  C   UNL     1     -12.029  13.142  66.616  1.00  0.00    -0.451 C  
BRANCH   3   4
HETATM    4  C   UNL     1     -11.234  13.717  67.831  1.00  0.00    -0.299 C  
HETATM    5  C   UNL     1     -11.756  13.110  69.149  1.00  0.00    -0.376 C  
BRANCH   4   6
HETATM    6  C   UNL     1     -11.466  15.256  67.860  1.00  0.00    -0.316 C  
BRANCH   6   7
HETATM    7  O   UNL     1     -11.221  15.835  66.564  1.00  0.00    -0.156 OA 
BRANCH   7   8
HETATM    8  C   UNL     1     -10.258  16.789  66.496  1.00  0.00    -0.316 C  
HETATM    9  H   UNL     1     -11.500  17.816  67.774  1.00  0.00     0.000 HD 
HETATM   10  O   UNL     1      -9.240  16.718  65.823  1.00  0.00    -0.520 OA 
HETATM   11  N   UNL     1     -10.594  17.831  67.305  1.00  0.00    -0.349 N  
BRANCH  11  12
HETATM   12  C   UNL     1      -9.711  18.964  67.525  1.00  0.00    -0.313 C  
HETATM   13  C   UNL     1      -9.679  19.349  68.998  1.00  0.00    -0.468 C  
HETATM   14  C   UNL     1     -10.133  20.154  66.664  1.00  0.00    -0.584 C  
ENDBRANCH  11  12
ENDBRANCH   7   8
ENDBRANCH   6   7
ENDBRANCH   4   6
BRANCH   4  15
HETATM   15  C   UNL     1      -9.717  13.423  67.716  1.00  0.00    -0.216 C  
BRANCH  15  16
HETATM   16  O   UNL     1      -8.990  14.192  68.690  1.00  0.00    -0.187 OA 
BRANCH  16  17
HETATM   17  C   UNL     1      -7.745  14.586  68.339  1.00  0.00    -0.128 C  
HETATM   18  O   UNL     1      -6.884  15.037  69.076  1.00  0.00    -0.104 OA 
HETATM   19  H1  UNL     1      -6.638  14.738  66.741  1.00  0.00     0.000 HD 
HETATM   20  N   UNL     1      -7.577  14.441  67.005  1.00  0.00    -0.299 N  
HETATM   21  H2  UNL     1      -8.284  14.087  66.361  1.00  0.00     0.000 HD 
ENDBRANCH  16  17
ENDBRANCH  15  16
ENDBRANCH   4  15
ENDBRANCH   3   4
ENDBRANCH   2   3
TORSDOF 9
ENDMDL
MODEL       76
REMARK 921   NORMALIZED FREE ENERGY PREDICTED BY IDOCK:   -3.81 KCAL/MOL
REMARK 922        TOTAL FREE ENERGY PREDICTED BY IDOCK:   -6.76 KCAL/MOL
REMARK 923 INTER-LIGAND FREE ENERGY PREDICTED BY IDOCK:   -6.18 KCAL/MOL
REMARK 924 INTRA-LIGAND FREE ENERGY PREDICTED BY IDOCK:   -0.58 KCAL/MOL
REMARK 927      BINDING AFFINITY PREDICTED BY RF-SCORE:    0.00 PKD
ROOT
HETATM    1  C   UNL     1     -12.809  14.109  70.754  1.00  0.00    -0.378 C  
HETATM    2  C   UNL     1     -11.714  13.600  69.827  1.00  0.00    -0.364 C  
ENDROOT
BRANCH   2   3
HETATM    3  C   UNL     1     -11.211  14.701  68.884  1.00  0.00    -0.285 C  
BRANCH   3   4
HETATM    4  C   UNL     1     -10.544  14.209  67.561  1.00  0.00    -0.257 C  
HETATM    5  C   UNL     1     -11.303  12.990  66.999  1.00  0.00    -0.343 C  
BRANCH   4   6
HETATM    6  C   UNL     1      -9.087  13.781  67.898  1.00  0.00    -0.193 C  
BRANCH   6   7
HETATM    7  O   UNL     1      -8.467  14.732  68.785  1.00  0.00    -0.161 OA 
BRANCH   7   8
HETATM    8  C   UNL     1      -7.359  15.364  68.321  1.00  0.00    -0.112 C  
HETATM    9  H   UNL     1      -8.679  16.881  67.891  1.00  0.00     0.000 HD 
HETATM   10  O   UNL     1      -6.231  14.893  68.304  1.00  0.00    -0.103 OA 
HETATM   11  N   UNL     1      -7.695  16.612  67.891  1.00  0.00    -0.159 N  
BRANCH  11  12
HETATM   12  C   UNL     1      -6.706  17.571  67.432  1.00  0.00    -0.160 C  
HETATM   13  C   UNL     1      -6.573  18.727  68.415  1.00  0.00    -0.249 C  
HETATM   14  C   UNL     1      -7.060  18.087  66.037  1.00  0.00    -0.330 C  
ENDBRANCH  11  12
ENDBRANCH   7   8
ENDBRANCH   6   7
ENDBRANCH   4   6
BRANCH   4  15
HETATM   15  C   UNL     1     -10.522  15.319  66.479  1.00  0.00    -0.298 C  
BRANCH  15  16
HETATM   16  O   UNL     1     -10.737  14.746  65.178  1.00  0.00    -0.358 OA 
BRANCH  16  17
HETATM   17  C   UNL     1     -11.519  15.451  64.330  1.00  0.00    -0.171 C  
HETATM   18  O   UNL     1     -11.427  16.638  64.065  1.00  0.00    -1.192 OA 
HETATM   19  H1  UNL     1     -13.065  15.180  63.173  1.00  0.00     0.000 HD 
HETATM   20  N   UNL     1     -12.476  14.647  63.812  1.00  0.00    -1.068 N  
HETATM   21  H2  UNL     1     -12.590  13.658  64.030  1.00  0.00     0.000 HD 
ENDBRANCH  16  17
ENDBRANCH  15  16
ENDBRANCH   4  15
ENDBRANCH   3   4
ENDBRANCH   2   3
TORSDOF 9
ENDMDL
MODEL       77
REMARK 921   NORMALIZED FREE ENERGY PREDICTED BY IDOCK:   -3.81 KCAL/MOL
REMARK 922        TOTAL FREE ENERGY PREDICTED BY IDOCK:   -6.76 KCAL/MOL
REMARK 923 INTER-LIGAND FREE ENERGY PREDICTED BY IDOCK:   -6.13 KCAL/MOL
REMARK 924 INTRA-LIGAND FREE ENERGY PREDICTED BY IDOCK:   -0.63 KCAL/MOL
REMARK 927      BINDING AFFINITY PREDICTED BY RF-SCORE:    0.00 PKD
ROOT
HETATM    1  C   UNL     1      -6.219  16.617  67.148  1.00  0.00    -0.212 C  
HETATM    2  C   UNL     1      -7.060  15.374  67.401  1.00  0.00    -0.229 C  
ENDROOT
BRANCH   2   3
HETATM    3  C   UNL     1      -8.454  15.493  66.770  1.00  0.00    -0.314 C  
BRANCH   3   4
HETATM    4  C   UNL     1      -9.626  15.771  67.762  1.00  0.00    -0.214 C  
HETATM    5  C   UNL     1      -9.141  15.629  69.219  1.00  0.00    -0.270 C  
BRANCH   4   6
HETATM    6  C   UNL     1     -10.732  14.709  67.496  1.00  0.00    -0.268 C  
BRANCH   6   7
HETATM    7  O   UNL     1     -10.155  13.478  67.020  1.00  0.00    -0.238 OA 
BRANCH   7   8
HETATM    8  C   UNL     1     -10.986  12.632  66.357  1.00  0.00    -0.272 C  
HETATM    9  H   UNL     1      -9.689  12.944  64.792  1.00  0.00     0.000 HD 
HETATM   10  O   UNL     1     -11.998  12.128  66.822  1.00  0.00    -0.606 OA 
HETATM   11  N   UNL     1     -10.509  12.422  65.099  1.00  0.00    -0.284 N  
BRANCH  11  12
HETATM   12  C   UNL     1     -11.126  11.481  64.180  1.00  0.00    -0.344 C  
HETATM   13  C   UNL     1     -10.094  10.904  63.220  1.00  0.00    -0.368 C  
HETATM   14  C   UNL     1     -12.267  12.147  63.410  1.00  0.00    -0.635 C  
ENDBRANCH  11  12
ENDBRANCH   7   8
ENDBRANCH   6   7
ENDBRANCH   4   6
BRANCH   4  15
HETATM   15  C   UNL     1     -10.216  17.192  67.573  1.00  0.00    -0.323 C  
BRANCH  15  16
HETATM   16  O   UNL     1     -10.131  17.930  68.805  1.00  0.00    -0.367 OA 
BRANCH  16  17
HETATM   17  C   UNL     1      -9.707  19.210  68.712  1.00  0.00    -0.430 C  
HETATM   18  O   UNL     1     -10.392  20.217  68.787  1.00  0.00    -0.395 OA 
HETATM   19  H1  UNL     1      -8.054  20.202  68.418  1.00  0.00     0.000 HD 
HETATM   20  N   UNL     1      -8.374  19.236  68.487  1.00  0.00    -0.357 N  
HETATM   21  H2  UNL     1      -7.778  18.412  68.400  1.00  0.00     0.000 HD 
ENDBRANCH  16  17
ENDBRANCH  15  16
ENDBRANCH   4  15
ENDBRANCH   3   4
ENDBRANCH   2   3
TORSDOF 9
ENDMDL
MODEL       78
REMARK 921   NORMALIZED FREE ENERGY PREDICTED BY IDOCK:   -3.79 KCAL/MOL
REMARK 922        TOTAL FREE ENERGY PREDICTED BY IDOCK:   -6.73 KCAL/MOL
REMARK 923 INTER-LIGAND FREE ENERGY PREDICTED BY IDOCK:   -6.20 KCAL/MOL
REMARK 924 INTRA-LIGAND FREE ENERGY PREDICTED BY IDOCK:   -0.54 KCAL/MOL
REMARK 927      BINDING AFFINITY PREDICTED BY RF-SCORE:    0.00 PKD
ROOT
HETATM    1  C   UNL     1     -10.683   8.653  71.712  1.00  0.00    -0.392 C  
HETATM    2  C   UNL     1     -10.171   9.732  70.767  1.00  0.00    -0.251 C  
ENDROOT
BRANCH   2   3
HETATM    3  C   UNL     1     -11.138   9.970  69.600  1.00  0.00    -0.300 C  
BRANCH   3   4
HETATM    4  C   UNL     1     -10.818  11.200  68.694  1.00  0.00    -0.251 C  
HETATM    5  C   UNL     1      -9.326  11.574  68.805  1.00  0.00    -0.088 C  
BRANCH   4   6
HETATM    6  C   UNL     1     -11.674  12.396  69.203  1.00  0.00    -0.322 C  
BRANCH   6   7
HETATM    7  O   UNL     1     -11.300  13.615  68.533  1.00  0.00    -0.254 OA 
BRANCH   7   8
HETATM    8  C   UNL     1     -11.797  14.769  69.047  1.00  0.00    -0.302 C  
HETATM    9  H   UNL     1     -12.484  13.541  70.548  1.00  0.00     0.000 HD 
HETATM   10  O   UNL     1     -11.703  15.872  68.529  1.00  0.00    -0.383 OA 
HETATM   11  N   UNL     1     -12.406  14.510  70.238  1.00  0.00    -0.333 N  
BRANCH  11  12
HETATM   12  C   UNL     1     -12.947  15.561  71.082  1.00  0.00    -0.496 C  
HETATM   13  C   UNL     1     -11.930  15.994  72.130  1.00  0.00    -0.629 C  
HETATM   14  C   UNL     1     -14.246  15.106  71.746  1.00  0.00    -0.674 C  
ENDBRANCH  11  12
ENDBRANCH   7   8
ENDBRANCH   6   7
ENDBRANCH   4   6
BRANCH   4  15
HETATM   15  C   UNL     1     -11.150  10.921  67.206  1.00  0.00    -0.283 C  
BRANCH  15  16
HETATM   16  O   UNL     1     -10.193  11.577  66.355  1.00  0.00    -0.212 OA 
BRANCH  16  17
HETATM   17  C   UNL     1      -9.904  10.962  65.186  1.00  0.00    -0.275 C  
HETATM   18  O   UNL     1      -9.765   9.765  65.003  1.00  0.00    -0.298 OA 
HETATM   19  H1  UNL     1      -9.536  11.421  63.327  1.00  0.00     0.000 HD 
HETATM   20  N   UNL     1      -9.753  11.885  64.209  1.00  0.00    -0.454 N  
HETATM   21  H2  UNL     1      -9.843  12.893  64.335  1.00  0.00     0.000 HD 
ENDBRANCH  16  17
ENDBRANCH  15  16
ENDBRANCH   4  15
ENDBRANCH   3   4
ENDBRANCH   2   3
TORSDOF 9
ENDMDL
MODEL       79
REMARK 921   NORMALIZED FREE ENERGY PREDICTED BY IDOCK:   -3.79 KCAL/MOL
REMARK 922        TOTAL FREE ENERGY PREDICTED BY IDOCK:   -6.73 KCAL/MOL
REMARK 923 INTER-LIGAND FREE ENERGY PREDICTED BY IDOCK:   -5.94 KCAL/MOL
REMARK 924 INTRA-LIGAND FREE ENERGY PREDICTED BY IDOCK:   -0.79 KCAL/MOL
REMARK 927      BINDING AFFINITY PREDICTED BY RF-SCORE:    0.00 PKD
ROOT
HETATM    1  C   UNL     1     -12.315  15.386  72.725  1.00  0.00    -0.508 C  
HETATM    2  C   UNL     1     -12.046  14.878  71.315  1.00  0.00    -0.385 C  
ENDROOT
BRANCH   2   3
HETATM    3  C   UNL     1     -11.485  15.983  70.411  1.00  0.00    -0.392 C  
BRANCH   3   4
HETATM    4  C   UNL     1     -10.882  15.507  69.052  1.00  0.00    -0.249 C  
HETATM    5  C   UNL     1     -11.908  15.691  67.916  1.00  0.00     0.025 C  
BRANCH   4   6
HETATM    6  C   UNL     1     -10.549  13.993  69.188  1.00  0.00    -0.128 C  
BRANCH   6   7
HETATM    7  O   UNL     1     -11.053  13.255  68.059  1.00  0.00    -0.239 OA 
BRANCH   7   8
HETATM    8  C   UNL     1     -11.609  12.044  68.322  1.00  0.00    -0.334 C  
HETATM    9  H   UNL     1     -11.071  12.470  70.261  1.00  0.00     0.000 HD 
HETATM   10  O   UNL     1     -12.094  11.293  67.489  1.00  0.00    -0.530 OA 
HETATM   11  N   UNL     1     -11.557  11.803  69.661  1.00  0.00    -0.314 N  
BRANCH  11  12
HETATM   12  C   UNL     1     -12.165  10.631  70.267  1.00  0.00    -0.334 C  
HETATM   13  C   UNL     1     -13.027  11.022  71.460  1.00  0.00    -0.553 C  
HETATM   14  C   UNL     1     -11.096   9.620  70.680  1.00  0.00    -0.384 C  
ENDBRANCH  11  12
ENDBRANCH   7   8
ENDBRANCH   6   7
ENDBRANCH   4   6
BRANCH   4  15
HETATM   15  C   UNL     1      -9.594  16.290  68.688  1.00  0.00    -0.237 C  
BRANCH  15  16
HETATM   16  O   UNL     1      -9.734  16.893  67.389  1.00  0.00    -0.240 OA 
BRANCH  16  17
HETATM   17  C   UNL     1      -8.670  16.793  66.561  1.00  0.00    -0.275 C  
HETATM   18  O   UNL     1      -8.109  17.703  65.975  1.00  0.00    -0.485 OA 
HETATM   19  H1  UNL     1      -7.508  15.419  65.808  1.00  0.00     0.000 HD 
HETATM   20  N   UNL     1      -8.310  15.495  66.433  1.00  0.00    -0.378 N  
HETATM   21  H2  UNL     1      -8.772  14.711  66.893  1.00  0.00     0.000 HD 
ENDBRANCH  16  17
ENDBRANCH  15  16
ENDBRANCH   4  15
ENDBRANCH   3   4
ENDBRANCH   2   3
TORSDOF 9
ENDMDL
MODEL       80
REMARK 921   NORMALIZED FREE ENERGY PREDICTED BY IDOCK:   -3.79 KCAL/MOL
REMARK 922        TOTAL FREE ENERGY PREDICTED BY IDOCK:   -6.73 KCAL/MOL
REMARK 923 INTER-LIGAND FREE ENERGY PREDICTED BY IDOCK:   -6.33 KCAL/MOL
REMARK 924 INTRA-LIGAND FREE ENERGY PREDICTED BY IDOCK:   -0.40 KCAL/MOL
REMARK 927      BINDING AFFINITY PREDICTED BY RF-SCORE:    0.00 PKD
ROOT
HETATM    1  C   UNL     1     -12.074  12.563  63.692  1.00  0.00    -0.642 C  
HETATM    2  C   UNL     1     -12.420  12.643  65.173  1.00  0.00    -0.531 C  
ENDROOT
BRANCH   2   3
HETATM    3  C   UNL     1     -12.346  14.084  65.697  1.00  0.00    -0.502 C  
BRANCH   3   4
HETATM    4  C   UNL     1     -11.330  14.334  66.854  1.00  0.00    -0.354 C  
HETATM    5  C   UNL     1     -10.050  13.502  66.634  1.00  0.00    -0.277 C  
BRANCH   4   6
HETATM    6  C   UNL     1     -12.003  13.878  68.181  1.00  0.00    -0.350 C  
BRANCH   6   7
HETATM    7  O   UNL     1     -11.585  12.546  68.535  1.00  0.00    -0.276 OA 
BRANCH   7   8
HETATM    8  C   UNL     1     -11.829  12.150  69.811  1.00  0.00    -0.327 C  
HETATM    9  H   UNL     1     -11.521  10.266  69.048  1.00  0.00     0.000 HD 
HETATM   10  O   UNL     1     -12.113  12.894  70.739  1.00  0.00    -0.328 OA 
HETATM   11  N   UNL     1     -11.697  10.798  69.900  1.00  0.00    -0.303 N  
BRANCH  11  12
HETATM   12  C   UNL     1     -11.797  10.086  71.162  1.00  0.00    -0.393 C  
HETATM   13  C   UNL     1     -11.151   8.711  71.063  1.00  0.00    -0.316 C  
HETATM   14  C   UNL     1     -13.256   9.968  71.602  1.00  0.00    -0.518 C  
ENDBRANCH  11  12
ENDBRANCH   7   8
ENDBRANCH   6   7
ENDBRANCH   4   6
BRANCH   4  15
HETATM   15  C   UNL     1     -10.935  15.830  66.961  1.00  0.00    -0.221 C  
BRANCH  15  16
HETATM   16  O   UNL     1      -9.601  15.953  67.483  1.00  0.00    -0.219 OA 
BRANCH  16  17
HETATM   17  C   UNL     1      -9.063  17.193  67.476  1.00  0.00    -0.225 C  
HETATM   18  O   UNL     1      -9.194  18.054  68.330  1.00  0.00    -0.281 OA 
HETATM   19  H1  UNL     1      -7.948  18.314  66.334  1.00  0.00     0.000 HD 
HETATM   20  N   UNL     1      -8.354  17.378  66.339  1.00  0.00    -0.267 N  
HETATM   21  H2  UNL     1      -8.243  16.686  65.599  1.00  0.00     0.000 HD 
ENDBRANCH  16  17
ENDBRANCH  15  16
ENDBRANCH   4  15
ENDBRANCH   3   4
ENDBRANCH   2   3
TORSDOF 9
ENDMDL
MODEL       81
REMARK 921   NORMALIZED FREE ENERGY PREDICTED BY IDOCK:   -3.78 KCAL/MOL
REMARK 922        TOTAL FREE ENERGY PREDICTED BY IDOCK:   -6.71 KCAL/MOL
REMARK 923 INTER-LIGAND FREE ENERGY PREDICTED BY IDOCK:   -5.79 KCAL/MOL
REMARK 924 INTRA-LIGAND FREE ENERGY PREDICTED BY IDOCK:   -0.92 KCAL/MOL
REMARK 927      BINDING AFFINITY PREDICTED BY RF-SCORE:    0.00 PKD
ROOT
HETATM    1  C   UNL     1     -10.162  19.952  66.314  1.00  0.00    -0.614 C  
HETATM    2  C   UNL     1     -10.500  18.469  66.233  1.00  0.00    -0.441 C  
ENDROOT
BRANCH   2   3
HETATM    3  C   UNL     1     -10.868  17.895  67.608  1.00  0.00    -0.243 C  
BRANCH   3   4
HETATM    4  C   UNL     1     -10.298  16.477  67.925  1.00  0.00    -0.294 C  
HETATM    5  C   UNL     1     -10.554  16.114  69.402  1.00  0.00    -0.300 C  
BRANCH   4   6
HETATM    6  C   UNL     1      -8.763  16.518  67.677  1.00  0.00    -0.190 C  
BRANCH   6   7
HETATM    7  O   UNL     1      -8.080  17.119  68.793  1.00  0.00    -0.264 OA 
BRANCH   7   8
HETATM    8  C   UNL     1      -7.023  17.919  68.500  1.00  0.00    -0.240 C  
HETATM    9  H   UNL     1      -7.670  17.687  66.563  1.00  0.00     0.000 HD 
HETATM   10  O   UNL     1      -6.226  18.364  69.315  1.00  0.00    -0.235 OA 
HETATM   11  N   UNL     1      -6.994  18.161  67.161  1.00  0.00    -0.190 N  
BRANCH  11  12
HETATM   12  C   UNL     1      -6.037  19.069  66.553  1.00  0.00    -0.166 C  
HETATM   13  C   UNL     1      -6.708  20.375  66.148  1.00  0.00    -0.279 C  
HETATM   14  C   UNL     1      -5.360  18.414  65.349  1.00  0.00    -0.217 C  
ENDBRANCH  11  12
ENDBRANCH   7   8
ENDBRANCH   6   7
ENDBRANCH   4   6
BRANCH   4  15
HETATM   15  C   UNL     1     -10.940  15.386  67.030  1.00  0.00    -0.306 C  
BRANCH  15  16
HETATM   16  O   UNL     1      -9.984  14.915  66.064  1.00  0.00    -0.277 OA 
BRANCH  16  17
HETATM   17  C   UNL     1     -10.484  14.464  64.892  1.00  0.00    -0.423 C  
HETATM   18  O   UNL     1     -10.224  13.406  64.343  1.00  0.00    -0.401 OA 
HETATM   19  H1  UNL     1     -11.699  15.045  63.482  1.00  0.00     0.000 HD 
HETATM   20  N   UNL     1     -11.322  15.386  64.366  1.00  0.00    -0.709 N  
HETATM   21  H2  UNL     1     -11.543  16.286  64.790  1.00  0.00     0.000 HD 
ENDBRANCH  16  17
ENDBRANCH  15  16
ENDBRANCH   4  15
ENDBRANCH   3   4
ENDBRANCH   2   3
TORSDOF 9
ENDMDL
MODEL       82
REMARK 921   NORMALIZED FREE ENERGY PREDICTED BY IDOCK:   -3.73 KCAL/MOL
REMARK 922        TOTAL FREE ENERGY PREDICTED BY IDOCK:   -6.64 KCAL/MOL
REMARK 923 INTER-LIGAND FREE ENERGY PREDICTED BY IDOCK:   -6.07 KCAL/MOL
REMARK 924 INTRA-LIGAND FREE ENERGY PREDICTED BY IDOCK:   -0.57 KCAL/MOL
REMARK 927      BINDING AFFINITY PREDICTED BY RF-SCORE:    0.00 PKD
ROOT
HETATM    1  C   UNL     1      -9.982  19.572  67.196  1.00  0.00    -0.487 C  
HETATM    2  C   UNL     1     -10.335  18.410  66.278  1.00  0.00    -0.440 C  
ENDROOT
BRANCH   2   3
HETATM    3  C   UNL     1     -10.765  17.169  67.072  1.00  0.00    -0.149 C  
BRANCH   3   4
HETATM    4  C   UNL     1     -10.573  15.800  66.349  1.00  0.00    -0.307 C  
HETATM    5  C   UNL     1     -10.813  15.955  64.833  1.00  0.00    -0.420 C  
BRANCH   4   6
HETATM    6  C   UNL     1     -11.625  14.809  66.925  1.00  0.00    -0.327 C  
BRANCH   6   7
HETATM    7  O   UNL     1     -12.455  14.277  65.876  1.00  0.00    -0.437 OA 
BRANCH   7   8
HETATM    8  C   UNL     1     -12.321  12.953  65.606  1.00  0.00    -0.423 C  
HETATM    9  H   UNL     1     -10.935  13.013  67.124  1.00  0.00     0.000 HD 
HETATM   10  O   UNL     1     -12.919  12.346  64.730  1.00  0.00    -0.786 OA 
HETATM   11  N   UNL     1     -11.426  12.402  66.472  1.00  0.00    -0.350 N  
BRANCH  11  12
HETATM   12  C   UNL     1     -11.145  10.977  66.501  1.00  0.00    -0.106 C  
HETATM   13  C   UNL     1     -11.064  10.469  67.935  1.00  0.00    -0.367 C  
HETATM   14  C   UNL     1      -9.854  10.665  65.744  1.00  0.00    -0.296 C  
ENDBRANCH  11  12
ENDBRANCH   7   8
ENDBRANCH   6   7
ENDBRANCH   4   6
BRANCH   4  15
HETATM   15  C   UNL     1      -9.148  15.229  66.567  1.00  0.00    -0.300 C  
BRANCH  15  16
HETATM   16  O   UNL     1      -9.149  14.306  67.670  1.00  0.00    -0.180 OA 
BRANCH  16  17
HETATM   17  C   UNL     1      -8.339  14.608  68.710  1.00  0.00    -0.163 C  
HETATM   18  O   UNL     1      -8.226  15.690  69.261  1.00  0.00    -0.227 OA 
HETATM   19  H1  UNL     1      -7.005  13.747  69.842  1.00  0.00     0.000 HD 
HETATM   20  N   UNL     1      -7.616  13.519  69.058  1.00  0.00    -0.310 N  
HETATM   21  H2  UNL     1      -7.673  12.608  68.604  1.00  0.00     0.000 HD 
ENDBRANCH  16  17
ENDBRANCH  15  16
ENDBRANCH   4  15
ENDBRANCH   3   4
ENDBRANCH   2   3
TORSDOF 9
ENDMDL
MODEL       83
REMARK 921   NORMALIZED FREE ENERGY PREDICTED BY IDOCK:   -3.73 KCAL/MOL
REMARK 922        TOTAL FREE ENERGY PREDICTED BY IDOCK:   -6.63 KCAL/MOL
REMARK 923 INTER-LIGAND FREE ENERGY PREDICTED BY IDOCK:   -5.97 KCAL/MOL
REMARK 924 INTRA-LIGAND FREE ENERGY PREDICTED BY IDOCK:   -0.66 KCAL/MOL
REMARK 927      BINDING AFFINITY PREDICTED BY RF-SCORE:    0.00 PKD
ROOT
HETATM    1  C   UNL     1     -11.214  14.448  68.791  1.00  0.00    -0.282 C  
HETATM    2  C   UNL     1     -11.940  13.521  67.824  1.00  0.00    -0.369 C  
ENDROOT
BRANCH   2   3
HETATM    3  C   UNL     1     -10.978  12.524  67.164  1.00  0.00    -0.302 C  
BRANCH   3   4
HETATM    4  C   UNL     1     -10.834  12.646  65.614  1.00  0.00    -0.305 C  
HETATM    5  C   UNL     1     -12.219  12.576  64.939  1.00  0.00    -0.534 C  
BRANCH   4   6
HETATM    6  C   UNL     1      -9.975  11.445  65.124  1.00  0.00    -0.264 C  
BRANCH   6   7
HETATM    7  O   UNL     1     -10.587  10.194  65.494  1.00  0.00    -0.111 OA 
BRANCH   7   8
HETATM    8  C   UNL     1      -9.747   9.153  65.731  1.00  0.00    -0.229 C  
HETATM    9  H   UNL     1     -11.244   8.525  66.994  1.00  0.00     0.000 HD 
HETATM   10  O   UNL     1      -8.637   9.015  65.238  1.00  0.00    -0.154 OA 
HETATM   11  N   UNL     1     -10.339   8.280  66.591  1.00  0.00    -0.286 N  
BRANCH  11  12
HETATM   12  C   UNL     1      -9.731   7.013  66.958  1.00  0.00    -0.167 C  
HETATM   13  C   UNL     1     -10.783   5.919  67.076  1.00  0.00    -0.396 C  
HETATM   14  C   UNL     1      -8.943   7.148  68.262  1.00  0.00    -0.125 C  
ENDBRANCH  11  12
ENDBRANCH   7   8
ENDBRANCH   6   7
ENDBRANCH   4   6
BRANCH   4  15
HETATM   15  C   UNL     1     -10.150  13.975  65.202  1.00  0.00    -0.314 C  
BRANCH  15  16
HETATM   16  O   UNL     1     -11.088  14.820  64.514  1.00  0.00    -0.336 OA 
BRANCH  16  17
HETATM   17  C   UNL     1     -11.012  16.144  64.777  1.00  0.00    -0.313 C  
HETATM   18  O   UNL     1     -11.470  17.053  64.105  1.00  0.00    -1.135 OA 
HETATM   19  H1  UNL     1     -10.252  17.344  66.113  1.00  0.00     0.000 HD 
HETATM   20  N   UNL     1     -10.308  16.345  65.915  1.00  0.00    -0.352 N  
HETATM   21  H2  UNL     1      -9.897  15.608  66.487  1.00  0.00     0.000 HD 
ENDBRANCH  16  17
ENDBRANCH  15  16
ENDBRANCH   4  15
ENDBRANCH   3   4
ENDBRANCH   2   3
TORSDOF 9
ENDMDL
MODEL       84
REMARK 921   NORMALIZED FREE ENERGY PREDICTED BY IDOCK:   -3.73 KCAL/MOL
REMARK 922        TOTAL FREE ENERGY PREDICTED BY IDOCK:   -6.63 KCAL/MOL
REMARK 923 INTER-LIGAND FREE ENERGY PREDICTED BY IDOCK:   -5.90 KCAL/MOL
REMARK 924 INTRA-LIGAND FREE ENERGY PREDICTED BY IDOCK:   -0.73 KCAL/MOL
REMARK 927      BINDING AFFINITY PREDICTED BY RF-SCORE:    0.00 PKD
ROOT
HETATM    1  C   UNL     1     -10.217  19.504  67.976  1.00  0.00    -0.552 C  
HETATM    2  C   UNL     1     -10.646  18.144  67.441  1.00  0.00    -0.406 C  
ENDROOT
BRANCH   2   3
HETATM    3  C   UNL     1     -10.435  17.033  68.479  1.00  0.00    -0.373 C  
BRANCH   3   4
HETATM    4  C   UNL     1      -9.965  15.657  67.912  1.00  0.00    -0.223 C  
HETATM    5  C   UNL     1     -10.328  15.539  66.418  1.00  0.00    -0.303 C  
BRANCH   4   6
HETATM    6  C   UNL     1     -10.713  14.542  68.700  1.00  0.00    -0.253 C  
BRANCH   6   7
HETATM    7  O   UNL     1     -11.656  13.861  67.851  1.00  0.00    -0.302 OA 
BRANCH   7   8
HETATM    8  C   UNL     1     -11.762  12.517  68.015  1.00  0.00    -0.355 C  
HETATM    9  H   UNL     1     -11.591  12.973  70.013  1.00  0.00     0.000 HD 
HETATM   10  O   UNL     1     -11.866  11.701  67.111  1.00  0.00    -0.608 OA 
HETATM   11  N   UNL     1     -11.748  12.220  69.344  1.00  0.00    -0.316 N  
BRANCH  11  12
HETATM   12  C   UNL     1     -11.947  10.870  69.843  1.00  0.00    -0.353 C  
HETATM   13  C   UNL     1     -12.721  10.885  71.154  1.00  0.00    -0.530 C  
HETATM   14  C   UNL     1     -10.607  10.154  70.014  1.00  0.00    -0.338 C  
ENDBRANCH  11  12
ENDBRANCH   7   8
ENDBRANCH   6   7
ENDBRANCH   4   6
BRANCH   4  15
HETATM   15  C   UNL     1      -8.435  15.464  68.067  1.00  0.00    -0.146 C  
BRANCH  15  16
HETATM   16  O   UNL     1      -7.754  15.968  66.905  1.00  0.00    -0.208 OA 
BRANCH  16  17
HETATM   17  C   UNL     1      -7.043  17.107  67.070  1.00  0.00    -0.190 C  
HETATM   18  O   UNL     1      -6.366  17.415  68.036  1.00  0.00    -0.150 OA 
HETATM   19  H1  UNL     1      -6.674  18.769  66.119  1.00  0.00     0.000 HD 
HETATM   20  N   UNL     1      -7.210  17.911  65.995  1.00  0.00    -0.296 N  
HETATM   21  H2  UNL     1      -7.786  17.691  65.182  1.00  0.00     0.000 HD 
ENDBRANCH  16  17
ENDBRANCH  15  16
ENDBRANCH   4  15
ENDBRANCH   3   4
ENDBRANCH   2   3
TORSDOF 9
ENDMDL
MODEL       85
REMARK 921   NORMALIZED FREE ENERGY PREDICTED BY IDOCK:   -3.72 KCAL/MOL
REMARK 922        TOTAL FREE ENERGY PREDICTED BY IDOCK:   -6.63 KCAL/MOL
REMARK 923 INTER-LIGAND FREE ENERGY PREDICTED BY IDOCK:   -6.15 KCAL/MOL
REMARK 924 INTRA-LIGAND FREE ENERGY PREDICTED BY IDOCK:   -0.48 KCAL/MOL
REMARK 927      BINDING AFFINITY PREDICTED BY RF-SCORE:    0.00 PKD
ROOT
HETATM    1  C   UNL     1      -7.718  11.748  67.555  1.00  0.00    -0.143 C  
HETATM    2  C   UNL     1      -9.018  11.681  66.763  1.00  0.00    -0.189 C  
ENDROOT
BRANCH   2   3
HETATM    3  C   UNL     1      -9.734  13.038  66.733  1.00  0.00    -0.248 C  
BRANCH   3   4
HETATM    4  C   UNL     1     -11.262  13.006  67.051  1.00  0.00    -0.325 C  
HETATM    5  C   UNL     1     -12.075  12.800  65.758  1.00  0.00    -0.505 C  
BRANCH   4   6
HETATM    6  C   UNL     1     -11.644  14.381  67.672  1.00  0.00    -0.370 C  
BRANCH   6   7
HETATM    7  O   UNL     1     -10.668  15.384  67.332  1.00  0.00    -0.284 OA 
BRANCH   7   8
HETATM    8  C   UNL     1     -10.693  16.528  68.062  1.00  0.00    -0.343 C  
HETATM    9  H   UNL     1      -9.784  17.340  66.406  1.00  0.00     0.000 HD 
HETATM   10  O   UNL     1     -11.124  16.630  69.202  1.00  0.00    -0.296 OA 
HETATM   11  N   UNL     1     -10.176  17.549  67.324  1.00  0.00    -0.324 N  
BRANCH  11  12
HETATM   12  C   UNL     1     -10.160  18.923  67.796  1.00  0.00    -0.369 C  
HETATM   13  C   UNL     1     -10.192  19.899  66.628  1.00  0.00    -0.609 C  
HETATM   14  C   UNL     1      -8.939  19.177  68.680  1.00  0.00    -0.411 C  
ENDBRANCH  11  12
ENDBRANCH   7   8
ENDBRANCH   6   7
ENDBRANCH   4   6
BRANCH   4  15
HETATM   15  C   UNL     1     -11.618  11.871  68.046  1.00  0.00    -0.332 C  
BRANCH  15  16
HETATM   16  O   UNL     1     -12.103  12.429  69.279  1.00  0.00    -0.259 OA 
BRANCH  16  17
HETATM   17  C   UNL     1     -12.362  11.554  70.277  1.00  0.00    -0.273 C  
HETATM   18  O   UNL     1     -12.574  11.819  71.448  1.00  0.00    -0.337 OA 
HETATM   19  H1  UNL     1     -12.519   9.630  70.550  1.00  0.00     0.000 HD 
HETATM   20  N   UNL     1     -12.324  10.290  69.798  1.00  0.00    -0.531 N  
HETATM   21  H2  UNL     1     -12.129  10.035  68.830  1.00  0.00     0.000 HD 
ENDBRANCH  16  17
ENDBRANCH  15  16
ENDBRANCH   4  15
ENDBRANCH   3   4
ENDBRANCH   2   3
TORSDOF 9
ENDMDL
MODEL       86
REMARK 921   NORMALIZED FREE ENERGY PREDICTED BY IDOCK:   -3.71 KCAL/MOL
REMARK 922        TOTAL FREE ENERGY PREDICTED BY IDOCK:   -6.61 KCAL/MOL
REMARK 923 INTER-LIGAND FREE ENERGY PREDICTED BY IDOCK:   -5.71 KCAL/MOL
REMARK 924 INTRA-LIGAND FREE ENERGY PREDICTED BY IDOCK:   -0.90 KCAL/MOL
REMARK 927      BINDING AFFINITY PREDICTED BY RF-SCORE:    0.00 PKD
ROOT
HETATM    1  C   UNL     1     -10.841   6.465  67.740  1.00  0.00    -0.418 C  
HETATM    2  C   UNL     1     -10.632   7.956  67.508  1.00  0.00    -0.312 C  
ENDROOT
BRANCH   2   3
HETATM    3  C   UNL     1     -10.387   8.706  68.825  1.00  0.00    -0.228 C  
BRANCH   3   4
HETATM    4  C   UNL     1     -10.590  10.253  68.772  1.00  0.00    -0.231 C  
HETATM    5  C   UNL     1     -11.424  10.726  69.979  1.00  0.00    -0.412 C  
BRANCH   4   6
HETATM    6  C   UNL     1     -11.367  10.583  67.465  1.00  0.00    -0.101 C  
BRANCH   6   7
HETATM    7  O   UNL     1     -11.935  11.905  67.527  1.00  0.00    -0.586 OA 
BRANCH   7   8
HETATM    8  C   UNL     1     -11.574  12.769  66.544  1.00  0.00    -0.376 C  
HETATM    9  H   UNL     1     -11.197  11.050  65.479  1.00  0.00     0.000 HD 
HETATM   10  O   UNL     1     -11.574  13.988  66.640  1.00  0.00    -0.347 OA 
HETATM   11  N   UNL     1     -11.224  12.069  65.430  1.00  0.00    -0.325 N  
BRANCH  11  12
HETATM   12  C   UNL     1     -10.886  12.718  64.175  1.00  0.00    -0.406 C  
HETATM   13  C   UNL     1     -12.144  13.114  63.413  1.00  0.00    -0.558 C  
HETATM   14  C   UNL     1      -9.999  11.813  63.320  1.00  0.00    -0.435 C  
ENDBRANCH  11  12
ENDBRANCH   7   8
ENDBRANCH   6   7
ENDBRANCH   4   6
BRANCH   4  15
HETATM   15  C   UNL     1      -9.237  11.011  68.777  1.00  0.00    -0.162 C  
BRANCH  15  16
HETATM   16  O   UNL     1      -8.463  10.647  67.621  1.00  0.00    -0.118 OA 
BRANCH  16  17
HETATM   17  C   UNL     1      -7.957  11.665  66.889  1.00  0.00    -0.161 C  
HETATM   18  O   UNL     1      -8.090  12.858  67.103  1.00  0.00    -0.173 OA 
HETATM   19  H1  UNL     1      -6.898  11.941  65.275  1.00  0.00     0.000 HD 
HETATM   20  N   UNL     1      -7.279  11.173  65.827  1.00  0.00    -0.367 N  
HETATM   21  H2  UNL     1      -7.168  10.182  65.611  1.00  0.00     0.000 HD 
ENDBRANCH  16  17
ENDBRANCH  15  16
ENDBRANCH   4  15
ENDBRANCH   3   4
ENDBRANCH   2   3
TORSDOF 9
ENDMDL
MODEL       87
REMARK 921   NORMALIZED FREE ENERGY PREDICTED BY IDOCK:   -3.70 KCAL/MOL
REMARK 922        TOTAL FREE ENERGY PREDICTED BY IDOCK:   -6.60 KCAL/MOL
REMARK 923 INTER-LIGAND FREE ENERGY PREDICTED BY IDOCK:   -6.09 KCAL/MOL
REMARK 924 INTRA-LIGAND FREE ENERGY PREDICTED BY IDOCK:   -0.51 KCAL/MOL
REMARK 927      BINDING AFFINITY PREDICTED BY RF-SCORE:    0.00 PKD
ROOT
HETATM    1  C   UNL     1     -11.025   6.273  68.247  1.00  0.00    -0.408 C  
HETATM    2  C   UNL     1     -11.367   6.343  69.730  1.00  0.00    -0.494 C  
ENDROOT
BRANCH   2   3
HETATM    3  C   UNL     1     -11.086   7.735  70.312  1.00  0.00    -0.242 C  
BRANCH   3   4
HETATM    4  C   UNL     1     -12.042   8.198  71.455  1.00  0.00    -0.332 C  
HETATM    5  C   UNL     1     -13.324   7.341  71.462  1.00  0.00    -0.435 C  
BRANCH   4   6
HETATM    6  C   UNL     1     -12.428   9.679  71.177  1.00  0.00    -0.332 C  
BRANCH   6   7
HETATM    7  O   UNL     1     -11.476  10.299  70.291  1.00  0.00    -0.271 OA 
BRANCH   7   8
HETATM    8  C   UNL     1     -11.744  11.573  69.905  1.00  0.00    -0.343 C  
HETATM    9  H   UNL     1     -10.820  11.000  68.160  1.00  0.00     0.000 HD 
HETATM   10  O   UNL     1     -12.290  12.420  70.596  1.00  0.00    -0.351 OA 
HETATM   11  N   UNL     1     -11.322  11.756  68.624  1.00  0.00    -0.244 N  
BRANCH  11  12
HETATM   12  C   UNL     1     -11.562  12.989  67.893  1.00  0.00    -0.342 C  
HETATM   13  C   UNL     1     -11.686  12.719  66.399  1.00  0.00    -0.464 C  
HETATM   14  C   UNL     1     -10.454  14.005  68.169  1.00  0.00    -0.243 C  
ENDBRANCH  11  12
ENDBRANCH   7   8
ENDBRANCH   6   7
ENDBRANCH   4   6
BRANCH   4  15
HETATM   15  C   UNL     1     -11.368   8.091  72.847  1.00  0.00    -0.298 C  
BRANCH  15  16
HETATM   16  O   UNL     1     -10.123   7.378  72.740  1.00  0.00    -0.189 OA 
BRANCH  16  17
HETATM   17  C   UNL     1      -9.033   7.986  73.262  1.00  0.00    -0.272 C  
HETATM   18  O   UNL     1      -8.289   8.768  72.695  1.00  0.00    -0.407 OA 
HETATM   19  H1  UNL     1      -8.026   8.034  74.930  1.00  0.00     0.000 HD 
HETATM   20  N   UNL     1      -8.847   7.576  74.537  1.00  0.00    -0.422 N  
HETATM   21  H2  UNL     1      -9.440   6.909  75.031  1.00  0.00     0.000 HD 
ENDBRANCH  16  17
ENDBRANCH  15  16
ENDBRANCH   4  15
ENDBRANCH   3   4
ENDBRANCH   2   3
TORSDOF 9
ENDMDL
MODEL       88
REMARK 921   NORMALIZED FREE ENERGY PREDICTED BY IDOCK:   -3.70 KCAL/MOL
REMARK 922        TOTAL FREE ENERGY PREDICTED BY IDOCK:   -6.59 KCAL/MOL
REMARK 923 INTER-LIGAND FREE ENERGY PREDICTED BY IDOCK:   -6.16 KCAL/MOL
REMARK 924 INTRA-LIGAND FREE ENERGY PREDICTED BY IDOCK:   -0.43 KCAL/MOL
REMARK 927      BINDING AFFINITY PREDICTED BY RF-SCORE:    0.00 PKD
ROOT
HETATM    1  C   UNL     1     -10.117   6.340  66.767  1.00  0.00    -0.237 C  
HETATM    2  C   UNL     1     -10.685   7.700  67.148  1.00  0.00    -0.361 C  
ENDROOT
BRANCH   2   3
HETATM    3  C   UNL     1      -9.993   8.838  66.386  1.00  0.00    -0.346 C  
BRANCH   3   4
HETATM    4  C   UNL     1     -10.094  10.252  67.040  1.00  0.00    -0.268 C  
HETATM    5  C   UNL     1      -8.771  10.613  67.745  1.00  0.00    -0.129 C  
BRANCH   4   6
HETATM    6  C   UNL     1     -11.231  10.201  68.101  1.00  0.00    -0.180 C  
BRANCH   6   7
HETATM    7  O   UNL     1     -11.967  11.439  68.122  1.00  0.00    -0.594 OA 
BRANCH   7   8
HETATM    8  C   UNL     1     -11.806  12.224  69.218  1.00  0.00    -0.306 C  
HETATM    9  H   UNL     1     -11.890  13.760  67.853  1.00  0.00     0.000 HD 
HETATM   10  O   UNL     1     -11.668  11.819  70.363  1.00  0.00    -0.300 OA 
HETATM   11  N   UNL     1     -11.835  13.534  68.846  1.00  0.00    -0.329 N  
BRANCH  11  12
HETATM   12  C   UNL     1     -11.790  14.620  69.810  1.00  0.00    -0.316 C  
HETATM   13  C   UNL     1     -13.049  14.638  70.667  1.00  0.00    -0.323 C  
HETATM   14  C   UNL     1     -11.597  15.962  69.104  1.00  0.00    -0.382 C  
ENDBRANCH  11  12
ENDBRANCH   7   8
ENDBRANCH   6   7
ENDBRANCH   4   6
BRANCH   4  15
HETATM   15  C   UNL     1     -10.412  11.350  65.992  1.00  0.00    -0.255 C  
BRANCH  15  16
HETATM   16  O   UNL     1     -10.839  10.746  64.758  1.00  0.00    -0.204 OA 
BRANCH  16  17
HETATM   17  C   UNL     1     -10.772  11.520  63.653  1.00  0.00    -0.424 C  
HETATM   18  O   UNL     1     -11.085  12.696  63.561  1.00  0.00    -0.448 OA 
HETATM   19  H1  UNL     1     -10.273  11.373  61.773  1.00  0.00     0.000 HD 
HETATM   20  N   UNL     1     -10.324  10.789  62.607  1.00  0.00    -0.759 N  
HETATM   21  H2  UNL     1     -10.074   9.801  62.648  1.00  0.00     0.000 HD 
ENDBRANCH  16  17
ENDBRANCH  15  16
ENDBRANCH   4  15
ENDBRANCH   3   4
ENDBRANCH   2   3
TORSDOF 9
ENDMDL
MODEL       89
REMARK 921   NORMALIZED FREE ENERGY PREDICTED BY IDOCK:   -3.69 KCAL/MOL
REMARK 922        TOTAL FREE ENERGY PREDICTED BY IDOCK:   -6.58 KCAL/MOL
REMARK 923 INTER-LIGAND FREE ENERGY PREDICTED BY IDOCK:   -6.00 KCAL/MOL
REMARK 924 INTRA-LIGAND FREE ENERGY PREDICTED BY IDOCK:   -0.58 KCAL/MOL
REMARK 927      BINDING AFFINITY PREDICTED BY RF-SCORE:    0.00 PKD
ROOT
HETATM    1  C   UNL     1     -10.416   7.250  67.411  1.00  0.00    -0.359 C  
HETATM    2  C   UNL     1      -9.854   8.662  67.510  1.00  0.00    -0.234 C  
ENDROOT
BRANCH   2   3
HETATM    3  C   UNL     1     -10.898   9.717  67.119  1.00  0.00    -0.207 C  
BRANCH   3   4
HETATM    4  C   UNL     1     -10.376  11.186  67.029  1.00  0.00    -0.263 C  
HETATM    5  C   UNL     1      -8.885  11.251  67.417  1.00  0.00    -0.145 C  
BRANCH   4   6
HETATM    6  C   UNL     1     -11.196  12.040  68.038  1.00  0.00    -0.258 C  
BRANCH   6   7
HETATM    7  O   UNL     1     -10.534  13.291  68.306  1.00  0.00    -0.237 OA 
BRANCH   7   8
HETATM    8  C   UNL     1     -11.162  14.416  67.876  1.00  0.00    -0.286 C  
HETATM    9  H   UNL     1      -9.425  15.343  68.469  1.00  0.00     0.000 HD 
HETATM   10  O   UNL     1     -12.296  14.462  67.422  1.00  0.00    -0.300 OA 
HETATM   11  N   UNL     1     -10.329  15.483  68.017  1.00  0.00    -0.243 N  
BRANCH  11  12
HETATM   12  C   UNL     1     -10.679  16.813  67.550  1.00  0.00    -0.275 C  
HETATM   13  C   UNL     1     -10.044  17.097  66.195  1.00  0.00    -0.317 C  
HETATM   14  C   UNL     1     -10.266  17.872  68.572  1.00  0.00    -0.393 C  
ENDBRANCH  11  12
ENDBRANCH   7   8
ENDBRANCH   6   7
ENDBRANCH   4   6
BRANCH   4  15
HETATM   15  C   UNL     1     -10.542  11.769  65.602  1.00  0.00    -0.268 C  
BRANCH  15  16
HETATM   16  O   UNL     1     -11.921  12.099  65.360  1.00  0.00    -0.410 OA 
BRANCH  16  17
HETATM   17  C   UNL     1     -12.253  12.406  64.086  1.00  0.00    -0.468 C  
HETATM   18  O   UNL     1     -13.079  11.843  63.387  1.00  0.00    -0.710 OA 
HETATM   19  H1  UNL     1     -11.750  13.674  62.692  1.00  0.00     0.000 HD 
HETATM   20  N   UNL     1     -11.499  13.442  63.653  1.00  0.00    -0.625 N  
HETATM   21  H2  UNL     1     -10.787  13.920  64.206  1.00  0.00     0.000 HD 
ENDBRANCH  16  17
ENDBRANCH  15  16
ENDBRANCH   4  15
ENDBRANCH   3   4
ENDBRANCH   2   3
TORSDOF 9
ENDMDL
MODEL       90
REMARK 921   NORMALIZED FREE ENERGY PREDICTED BY IDOCK:   -3.68 KCAL/MOL
REMARK 922        TOTAL FREE ENERGY PREDICTED BY IDOCK:   -6.57 KCAL/MOL
REMARK 923 INTER-LIGAND FREE ENERGY PREDICTED BY IDOCK:   -6.04 KCAL/MOL
REMARK 924 INTRA-LIGAND FREE ENERGY PREDICTED BY IDOCK:   -0.52 KCAL/MOL
REMARK 927      BINDING AFFINITY PREDICTED BY RF-SCORE:    0.00 PKD
ROOT
HETATM    1  C   UNL     1      -8.582   8.576  72.483  1.00  0.00    -0.204 C  
HETATM    2  C   UNL     1      -8.560   8.287  70.988  1.00  0.00    -0.165 C  
ENDROOT
BRANCH   2   3
HETATM    3  C   UNL     1      -9.114   9.465  70.174  1.00  0.00    -0.262 C  
BRANCH   3   4
HETATM    4  C   UNL     1     -10.587   9.314  69.680  1.00  0.00    -0.241 C  
HETATM    5  C   UNL     1     -11.116   7.901  69.994  1.00  0.00    -0.165 C  
BRANCH   4   6
HETATM    6  C   UNL     1     -10.590   9.521  68.138  1.00  0.00    -0.217 C  
BRANCH   6   7
HETATM    7  O   UNL     1     -10.101  10.832  67.796  1.00  0.00    -0.168 OA 
BRANCH   7   8
HETATM    8  C   UNL     1     -10.930  11.619  67.064  1.00  0.00    -0.288 C  
HETATM    9  H   UNL     1      -9.213  12.080  66.030  1.00  0.00     0.000 HD 
HETATM   10  O   UNL     1     -12.128  11.760  67.262  1.00  0.00    -0.595 OA 
HETATM   11  N   UNL     1     -10.223  12.217  66.065  1.00  0.00    -0.231 N  
BRANCH  11  12
HETATM   12  C   UNL     1     -10.854  13.041  65.049  1.00  0.00    -0.308 C  
HETATM   13  C   UNL     1     -10.803  12.360  63.688  1.00  0.00    -0.509 C  
HETATM   14  C   UNL     1     -10.197  14.420  64.988  1.00  0.00    -0.406 C  
ENDBRANCH  11  12
ENDBRANCH   7   8
ENDBRANCH   6   7
ENDBRANCH   4   6
BRANCH   4  15
HETATM   15  C   UNL     1     -11.526  10.353  70.345  1.00  0.00    -0.337 C  
BRANCH  15  16
HETATM   16  O   UNL     1     -12.078   9.815  71.559  1.00  0.00    -0.363 OA 
BRANCH  16  17
HETATM   17  C   UNL     1     -13.144  10.465  72.077  1.00  0.00    -0.416 C  
HETATM   18  O   UNL     1     -13.332  11.670  72.091  1.00  0.00    -0.491 OA 
HETATM   19  H1  UNL     1     -14.804  10.066  73.020  1.00  0.00     0.000 HD 
HETATM   20  N   UNL     1     -14.000   9.575  72.629  1.00  0.00    -0.674 N  
HETATM   21  H2  UNL     1     -13.861   8.565  72.651  1.00  0.00     0.000 HD 
ENDBRANCH  16  17
ENDBRANCH  15  16
ENDBRANCH   4  15
ENDBRANCH   3   4
ENDBRANCH   2   3
TORSDOF 9
ENDMDL
MODEL       91
REMARK 921   NORMALIZED FREE ENERGY PREDICTED BY IDOCK:   -3.68 KCAL/MOL
REMARK 922        TOTAL FREE ENERGY PREDICTED BY IDOCK:   -6.56 KCAL/MOL
REMARK 923 INTER-LIGAND FREE ENERGY PREDICTED BY IDOCK:   -6.55 KCAL/MOL
REMARK 924 INTRA-LIGAND FREE ENERGY PREDICTED BY IDOCK:   -0.01 KCAL/MOL
REMARK 927      BINDING AFFINITY PREDICTED BY RF-SCORE:    0.00 PKD
ROOT
HETATM    1  C   UNL     1     -10.958  10.401  68.225  1.00  0.00    -0.321 C  
HETATM    2  C   UNL     1     -10.657  11.586  67.318  1.00  0.00    -0.266 C  
ENDROOT
BRANCH   2   3
HETATM    3  C   UNL     1     -10.307  12.844  68.125  1.00  0.00    -0.243 C  
BRANCH   3   4
HETATM    4  C   UNL     1     -11.357  13.998  68.071  1.00  0.00    -0.320 C  
HETATM    5  C   UNL     1     -12.231  13.870  66.807  1.00  0.00    -0.438 C  
BRANCH   4   6
HETATM    6  C   UNL     1     -10.578  15.343  68.010  1.00  0.00    -0.263 C  
BRANCH   6   7
HETATM    7  O   UNL     1     -10.111  15.603  66.672  1.00  0.00    -0.257 OA 
BRANCH   7   8
HETATM    8  C   UNL     1     -10.025  16.906  66.300  1.00  0.00    -0.309 C  
HETATM    9  H   UNL     1      -9.218  17.154  68.175  1.00  0.00     0.000 HD 
HETATM   10  O   UNL     1     -10.404  17.363  65.231  1.00  0.00    -0.616 OA 
HETATM   11  N   UNL     1      -9.437  17.624  67.297  1.00  0.00    -0.253 N  
BRANCH  11  12
HETATM   12  C   UNL     1      -9.112  19.033  67.156  1.00  0.00    -0.283 C  
HETATM   13  C   UNL     1     -10.273  19.798  66.536  1.00  0.00    -0.606 C  
HETATM   14  C   UNL     1      -7.841  19.214  66.328  1.00  0.00    -0.307 C  
ENDBRANCH  11  12
ENDBRANCH   7   8
ENDBRANCH   6   7
ENDBRANCH   4   6
BRANCH   4  15
HETATM   15  C   UNL     1     -12.283  13.992  69.315  1.00  0.00    -0.278 C  
BRANCH  15  16
HETATM   16  O   UNL     1     -11.552  14.419  70.477  1.00  0.00    -0.271 OA 
BRANCH  16  17
HETATM   17  C   UNL     1     -12.241  15.138  71.392  1.00  0.00    -0.339 C  
HETATM   18  O   UNL     1     -11.884  15.418  72.524  1.00  0.00    -0.400 OA 
HETATM   19  H1  UNL     1     -13.960  16.041  71.572  1.00  0.00     0.000 HD 
HETATM   20  N   UNL     1     -13.441  15.498  70.882  1.00  0.00    -0.782 N  
HETATM   21  H2  UNL     1     -13.775  15.263  69.948  1.00  0.00     0.000 HD 
ENDBRANCH  16  17
ENDBRANCH  15  16
ENDBRANCH   4  15
ENDBRANCH   3   4
ENDBRANCH   2   3
TORSDOF 9
ENDMDL
MODEL       92
REMARK 921   NORMALIZED FREE ENERGY PREDICTED BY IDOCK:   -3.68 KCAL/MOL
REMARK 922        TOTAL FREE ENERGY PREDICTED BY IDOCK:   -6.56 KCAL/MOL
REMARK 923 INTER-LIGAND FREE ENERGY PREDICTED BY IDOCK:   -6.09 KCAL/MOL
REMARK 924 INTRA-LIGAND FREE ENERGY PREDICTED BY IDOCK:   -0.47 KCAL/MOL
REMARK 927      BINDING AFFINITY PREDICTED BY RF-SCORE:    0.00 PKD
ROOT
HETATM    1  C   UNL     1      -9.466   8.400  66.636  1.00  0.00    -0.267 C  
HETATM    2  C   UNL     1     -10.407   9.463  67.188  1.00  0.00    -0.326 C  
ENDROOT
BRANCH   2   3
HETATM    3  C   UNL     1      -9.790  10.866  67.105  1.00  0.00    -0.213 C  
BRANCH   3   4
HETATM    4  C   UNL     1     -10.794  12.056  67.219  1.00  0.00    -0.290 C  
HETATM    5  C   UNL     1     -10.072  13.319  67.731  1.00  0.00    -0.229 C  
BRANCH   4   6
HETATM    6  C   UNL     1     -11.890  11.652  68.247  1.00  0.00    -0.265 C  
BRANCH   6   7
HETATM    7  O   UNL     1     -11.443  11.897  69.594  1.00  0.00    -0.285 OA 
BRANCH   7   8
HETATM    8  C   UNL     1     -11.948  11.087  70.560  1.00  0.00    -0.379 C  
HETATM    9  H   UNL     1     -10.408   9.842  70.008  1.00  0.00     0.000 HD 
HETATM   10  O   UNL     1     -12.938  11.327  71.236  1.00  0.00    -0.381 OA 
HETATM   11  N   UNL     1     -11.175   9.972  70.668  1.00  0.00    -0.328 N  
BRANCH  11  12
HETATM   12  C   UNL     1     -11.401   8.961  71.686  1.00  0.00    -0.337 C  
HETATM   13  C   UNL     1     -10.097   8.584  72.377  1.00  0.00    -0.365 C  
HETATM   14  C   UNL     1     -12.070   7.726  71.083  1.00  0.00    -0.306 C  
ENDBRANCH  11  12
ENDBRANCH   7   8
ENDBRANCH   6   7
ENDBRANCH   4   6
BRANCH   4  15
HETATM   15  C   UNL     1     -11.456  12.383  65.856  1.00  0.00    -0.374 C  
BRANCH  15  16
HETATM   16  O   UNL     1     -10.994  11.465  64.850  1.00  0.00    -0.283 OA 
BRANCH  16  17
HETATM   17  C   UNL     1     -10.918  11.944  63.587  1.00  0.00    -0.440 C  
HETATM   18  O   UNL     1      -9.931  11.966  62.870  1.00  0.00    -0.300 OA 
HETATM   19  H1  UNL     1     -12.059  12.806  62.262  1.00  0.00     0.000 HD 
HETATM   20  N   UNL     1     -12.117  12.445  63.214  1.00  0.00    -0.725 N  
HETATM   21  H2  UNL     1     -12.953  12.459  63.798  1.00  0.00     0.000 HD 
ENDBRANCH  16  17
ENDBRANCH  15  16
ENDBRANCH   4  15
ENDBRANCH   3   4
ENDBRANCH   2   3
TORSDOF 9
ENDMDL
MODEL       93
REMARK 921   NORMALIZED FREE ENERGY PREDICTED BY IDOCK:   -3.67 KCAL/MOL
REMARK 922        TOTAL FREE ENERGY PREDICTED BY IDOCK:   -6.55 KCAL/MOL
REMARK 923 INTER-LIGAND FREE ENERGY PREDICTED BY IDOCK:   -5.97 KCAL/MOL
REMARK 924 INTRA-LIGAND FREE ENERGY PREDICTED BY IDOCK:   -0.58 KCAL/MOL
REMARK 927      BINDING AFFINITY PREDICTED BY RF-SCORE:    0.00 PKD
ROOT
HETATM    1  C   UNL     1     -10.096  19.602  66.943  1.00  0.00    -0.533 C  
HETATM    2  C   UNL     1     -10.343  18.532  67.998  1.00  0.00    -0.417 C  
ENDROOT
BRANCH   2   3
HETATM    3  C   UNL     1     -10.521  17.144  67.368  1.00  0.00    -0.334 C  
BRANCH   3   4
HETATM    4  C   UNL     1      -9.307  16.173  67.511  1.00  0.00    -0.217 C  
HETATM    5  C   UNL     1      -8.423  16.230  66.250  1.00  0.00    -0.369 C  
BRANCH   4   6
HETATM    6  C   UNL     1      -9.872  14.731  67.664  1.00  0.00    -0.218 C  
BRANCH   6   7
HETATM    7  O   UNL     1     -11.146  14.608  67.003  1.00  0.00    -0.315 OA 
BRANCH   7   8
HETATM    8  C   UNL     1     -11.518  13.357  66.630  1.00  0.00    -0.344 C  
HETATM    9  H   UNL     1     -10.821  13.942  64.786  1.00  0.00     0.000 HD 
HETATM   10  O   UNL     1     -12.046  12.529  67.359  1.00  0.00    -0.466 OA 
HETATM   11  N   UNL     1     -11.201  13.160  65.320  1.00  0.00    -0.288 N  
BRANCH  11  12
HETATM   12  C   UNL     1     -11.383  11.881  64.657  1.00  0.00    -0.293 C  
HETATM   13  C   UNL     1     -10.070  11.382  64.068  1.00  0.00    -0.369 C  
HETATM   14  C   UNL     1     -12.458  11.982  63.574  1.00  0.00    -0.654 C  
ENDBRANCH  11  12
ENDBRANCH   7   8
ENDBRANCH   6   7
ENDBRANCH   4   6
BRANCH   4  15
HETATM   15  C   UNL     1      -8.434  16.522  68.744  1.00  0.00    -0.248 C  
BRANCH  15  16
HETATM   16  O   UNL     1      -7.179  17.080  68.318  1.00  0.00    -0.182 OA 
BRANCH  16  17
HETATM   17  C   UNL     1      -6.355  17.524  69.293  1.00  0.00    -0.244 C  
HETATM   18  O   UNL     1      -5.800  16.851  70.147  1.00  0.00    -0.224 OA 
HETATM   19  H1  UNL     1      -5.620  19.204  69.957  1.00  0.00     0.000 HD 
HETATM   20  N   UNL     1      -6.242  18.870  69.221  1.00  0.00    -0.256 N  
HETATM   21  H2  UNL     1      -6.709  19.460  68.533  1.00  0.00     0.000 HD 
ENDBRANCH  16  17
ENDBRANCH  15  16
ENDBRANCH   4  15
ENDBRANCH   3   4
ENDBRANCH   2   3
TORSDOF 9
ENDMDL
MODEL       94
REMARK 921   NORMALIZED FREE ENERGY PREDICTED BY IDOCK:   -3.67 KCAL/MOL
REMARK 922        TOTAL FREE ENERGY PREDICTED BY IDOCK:   -6.54 KCAL/MOL
REMARK 923 INTER-LIGAND FREE ENERGY PREDICTED BY IDOCK:   -6.38 KCAL/MOL
REMARK 924 INTRA-LIGAND FREE ENERGY PREDICTED BY IDOCK:   -0.17 KCAL/MOL
REMARK 927      BINDING AFFINITY PREDICTED BY RF-SCORE:    0.00 PKD
ROOT
HETATM    1  C   UNL     1      -8.672  14.587  67.098  1.00  0.00    -0.237 C  
HETATM    2  C   UNL     1      -8.281  15.996  66.671  1.00  0.00    -0.324 C  
ENDROOT
BRANCH   2   3
HETATM    3  C   UNL     1      -8.170  16.943  67.873  1.00  0.00    -0.198 C  
BRANCH   3   4
HETATM    4  C   UNL     1      -9.109  18.191  67.843  1.00  0.00    -0.270 C  
HETATM    5  C   UNL     1      -8.587  19.278  68.804  1.00  0.00    -0.375 C  
BRANCH   4   6
HETATM    6  C   UNL     1     -10.517  17.733  68.319  1.00  0.00    -0.364 C  
BRANCH   6   7
HETATM    7  O   UNL     1     -10.415  16.891  69.483  1.00  0.00    -0.303 OA 
BRANCH   7   8
HETATM    8  C   UNL     1     -11.363  15.927  69.622  1.00  0.00    -0.342 C  
HETATM    9  H   UNL     1     -10.811  15.985  71.602  1.00  0.00     0.000 HD 
HETATM   10  O   UNL     1     -12.031  15.457  68.712  1.00  0.00    -0.331 OA 
HETATM   11  N   UNL     1     -11.463  15.576  70.933  1.00  0.00    -0.340 N  
BRANCH  11  12
HETATM   12  C   UNL     1     -12.463  14.639  71.415  1.00  0.00    -0.344 C  
HETATM   13  C   UNL     1     -12.400  13.330  70.640  1.00  0.00    -0.416 C  
HETATM   14  C   UNL     1     -13.862  15.251  71.331  1.00  0.00    -0.603 C  
ENDBRANCH  11  12
ENDBRANCH   7   8
ENDBRANCH   6   7
ENDBRANCH   4   6
BRANCH   4  15
HETATM   15  C   UNL     1      -9.213  18.797  66.420  1.00  0.00    -0.307 C  
BRANCH  15  16
HETATM   16  O   UNL     1      -8.349  19.941  66.306  1.00  0.00    -0.344 OA 
BRANCH  16  17
HETATM   17  C   UNL     1      -7.252  19.793  65.530  1.00  0.00    -0.252 C  
HETATM   18  O   UNL     1      -6.790  18.747  65.106  1.00  0.00    -0.512 OA 
HETATM   19  H1  UNL     1      -5.862  20.889  64.711  1.00  0.00     0.000 HD 
HETATM   20  N   UNL     1      -6.689  21.001  65.297  1.00  0.00    -0.514 N  
HETATM   21  H2  UNL     1      -7.040  21.889  65.654  1.00  0.00     0.000 HD 
ENDBRANCH  16  17
ENDBRANCH  15  16
ENDBRANCH   4  15
ENDBRANCH   3   4
ENDBRANCH   2   3
TORSDOF 9
ENDMDL
MODEL       95
REMARK 921   NORMALIZED FREE ENERGY PREDICTED BY IDOCK:   -3.66 KCAL/MOL
REMARK 922        TOTAL FREE ENERGY PREDICTED BY IDOCK:   -6.53 KCAL/MOL
REMARK 923 INTER-LIGAND FREE ENERGY PREDICTED BY IDOCK:   -5.57 KCAL/MOL
REMARK 924 INTRA-LIGAND FREE ENERGY PREDICTED BY IDOCK:   -0.96 KCAL/MOL
REMARK 927      BINDING AFFINITY PREDICTED BY RF-SCORE:    0.00 PKD
ROOT
HETATM    1  C   UNL     1     -14.174   7.740  71.714  1.00  0.00    -0.558 C  
HETATM    2  C   UNL     1     -13.295   8.954  71.986  1.00  0.00    -0.471 C  
ENDROOT
BRANCH   2   3
HETATM    3  C   UNL     1     -13.512  10.057  70.942  1.00  0.00    -0.179 C  
BRANCH   3   4
HETATM    4  C   UNL     1     -12.218  10.735  70.393  1.00  0.00    -0.437 C  
HETATM    5  C   UNL     1     -12.162  12.214  70.825  1.00  0.00    -0.367 C  
BRANCH   4   6
HETATM    6  C   UNL     1     -12.273  10.668  68.839  1.00  0.00     0.206 C  
BRANCH   6   7
HETATM    7  O   UNL     1     -12.286  11.991  68.270  1.00  0.00    -0.398 OA 
BRANCH   7   8
HETATM    8  C   UNL     1     -11.395  12.233  67.274  1.00  0.00    -0.328 C  
HETATM    9  H   UNL     1     -13.044  12.957  66.281  1.00  0.00     0.000 HD 
HETATM   10  O   UNL     1     -10.203  11.963  67.310  1.00  0.00    -0.198 OA 
HETATM   11  N   UNL     1     -12.032  12.836  66.233  1.00  0.00    -0.417 N  
BRANCH  11  12
HETATM   12  C   UNL     1     -11.326  13.313  65.056  1.00  0.00    -0.305 C  
HETATM   13  C   UNL     1     -11.339  14.835  64.995  1.00  0.00    -0.391 C  
HETATM   14  C   UNL     1     -11.927  12.715  63.785  1.00  0.00    -0.588 C  
ENDBRANCH  11  12
ENDBRANCH   7   8
ENDBRANCH   6   7
ENDBRANCH   4   6
BRANCH   4  15
HETATM   15  C   UNL     1     -10.937  10.023  70.897  1.00  0.00    -0.267 C  
BRANCH  15  16
HETATM   16  O   UNL     1     -10.237   9.423  69.793  1.00  0.00    -0.196 OA 
BRANCH  16  17
HETATM   17  C   UNL     1      -8.888   9.505  69.817  1.00  0.00    -0.199 C  
HETATM   18  O   UNL     1      -8.107   8.640  70.176  1.00  0.00    -0.102 OA 
HETATM   19  H1  UNL     1      -7.480  10.795  69.423  1.00  0.00     0.000 HD 
HETATM   20  N   UNL     1      -8.497  10.733  69.405  1.00  0.00    -0.373 N  
HETATM   21  H2  UNL     1      -9.126  11.483  69.119  1.00  0.00     0.000 HD 
ENDBRANCH  16  17
ENDBRANCH  15  16
ENDBRANCH   4  15
ENDBRANCH   3   4
ENDBRANCH   2   3
TORSDOF 9
ENDMDL
MODEL       96
REMARK 921   NORMALIZED FREE ENERGY PREDICTED BY IDOCK:   -3.65 KCAL/MOL
REMARK 922        TOTAL FREE ENERGY PREDICTED BY IDOCK:   -6.51 KCAL/MOL
REMARK 923 INTER-LIGAND FREE ENERGY PREDICTED BY IDOCK:   -6.14 KCAL/MOL
REMARK 924 INTRA-LIGAND FREE ENERGY PREDICTED BY IDOCK:   -0.37 KCAL/MOL
REMARK 927      BINDING AFFINITY PREDICTED BY RF-SCORE:    0.00 PKD
ROOT
HETATM    1  C   UNL     1      -9.986  15.641  65.707  1.00  0.00    -0.390 C  
HETATM    2  C   UNL     1     -10.846  15.025  66.803  1.00  0.00    -0.318 C  
ENDROOT
BRANCH   2   3
HETATM    3  C   UNL     1     -10.241  13.717  67.331  1.00  0.00    -0.252 C  
BRANCH   3   4
HETATM    4  C   UNL     1     -11.104  12.435  67.112  1.00  0.00    -0.328 C  
HETATM    5  C   UNL     1     -11.978  12.585  65.851  1.00  0.00    -0.472 C  
BRANCH   4   6
HETATM    6  C   UNL     1     -12.033  12.274  68.350  1.00  0.00    -0.210 C  
BRANCH   6   7
HETATM    7  O   UNL     1     -11.485  12.958  69.493  1.00  0.00    -0.267 OA 
BRANCH   7   8
HETATM    8  C   UNL     1     -12.225  12.930  70.631  1.00  0.00    -0.302 C  
HETATM    9  H   UNL     1     -11.919  14.964  70.614  1.00  0.00     0.000 HD 
HETATM   10  O   UNL     1     -12.678  11.922  71.154  1.00  0.00    -0.371 OA 
HETATM   11  N   UNL     1     -12.396  14.199  71.093  1.00  0.00    -0.356 N  
BRANCH  11  12
HETATM   12  C   UNL     1     -13.231  14.506  72.241  1.00  0.00    -0.389 C  
HETATM   13  C   UNL     1     -14.396  15.400  71.842  1.00  0.00    -0.649 C  
HETATM   14  C   UNL     1     -12.405  15.156  73.352  1.00  0.00    -0.597 C  
ENDBRANCH  11  12
ENDBRANCH   7   8
ENDBRANCH   6   7
ENDBRANCH   4   6
BRANCH   4  15
HETATM   15  C   UNL     1     -10.224  11.169  66.955  1.00  0.00    -0.215 C  
BRANCH  15  16
HETATM   16  O   UNL     1      -9.860  10.657  68.249  1.00  0.00    -0.155 OA 
BRANCH  16  17
HETATM   17  C   UNL     1     -10.380   9.456  68.591  1.00  0.00    -0.203 C  
HETATM   18  O   UNL     1     -10.534   9.018  69.718  1.00  0.00    -0.207 OA 
HETATM   19  H1  UNL     1     -11.083   7.853  67.732  1.00  0.00     0.000 HD 
HETATM   20  N   UNL     1     -10.691   8.758  67.475  1.00  0.00    -0.459 N  
HETATM   21  H2  UNL     1     -10.555   9.089  66.520  1.00  0.00     0.000 HD 
ENDBRANCH  16  17
ENDBRANCH  15  16
ENDBRANCH   4  15
ENDBRANCH   3   4
ENDBRANCH   2   3
TORSDOF 9
ENDMDL
MODEL       97
REMARK 921   NORMALIZED FREE ENERGY PREDICTED BY IDOCK:   -3.64 KCAL/MOL
REMARK 922        TOTAL FREE ENERGY PREDICTED BY IDOCK:   -6.50 KCAL/MOL
REMARK 923 INTER-LIGAND FREE ENERGY PREDICTED BY IDOCK:   -6.01 KCAL/MOL
REMARK 924 INTRA-LIGAND FREE ENERGY PREDICTED BY IDOCK:   -0.49 KCAL/MOL
REMARK 927      BINDING AFFINITY PREDICTED BY RF-SCORE:    0.00 PKD
ROOT
HETATM    1  C   UNL     1     -12.006  12.420  63.266  1.00  0.00    -0.509 C  
HETATM    2  C   UNL     1     -11.078  12.278  64.465  1.00  0.00    -0.368 C  
ENDROOT
BRANCH   2   3
HETATM    3  C   UNL     1     -11.805  12.574  65.784  1.00  0.00    -0.494 C  
BRANCH   3   4
HETATM    4  C   UNL     1     -10.891  12.931  66.997  1.00  0.00    -0.282 C  
HETATM    5  C   UNL     1     -11.744  13.402  68.192  1.00  0.00    -0.397 C  
BRANCH   4   6
HETATM    6  C   UNL     1      -9.956  14.095  66.557  1.00  0.00    -0.283 C  
BRANCH   6   7
HETATM    7  O   UNL     1     -10.708  15.309  66.363  1.00  0.00    -0.309 OA 
BRANCH   7   8
HETATM    8  C   UNL     1     -10.287  16.401  67.053  1.00  0.00    -0.293 C  
HETATM    9  H   UNL     1     -10.026  17.205  65.178  1.00  0.00     0.000 HD 
HETATM   10  O   UNL     1     -10.206  16.480  68.270  1.00  0.00    -0.246 OA 
HETATM   11  N   UNL     1      -9.984  17.400  66.179  1.00  0.00    -0.292 N  
BRANCH  11  12
HETATM   12  C   UNL     1      -9.602  18.731  66.618  1.00  0.00    -0.336 C  
HETATM   13  C   UNL     1     -10.310  19.798  65.795  1.00  0.00    -0.522 C  
HETATM   14  C   UNL     1      -8.086  18.910  66.545  1.00  0.00    -0.298 C  
ENDBRANCH  11  12
ENDBRANCH   7   8
ENDBRANCH   6   7
ENDBRANCH   4   6
BRANCH   4  15
HETATM   15  C   UNL     1     -10.034  11.720  67.448  1.00  0.00    -0.184 C  
BRANCH  15  16
HETATM   16  O   UNL     1     -10.885  10.605  67.766  1.00  0.00    -0.240 OA 
BRANCH  16  17
HETATM   17  C   UNL     1     -10.653   9.458  67.089  1.00  0.00    -0.224 C  
HETATM   18  O   UNL     1     -10.252   9.352  65.942  1.00  0.00    -0.259 OA 
HETATM   19  H1  UNL     1     -10.790   7.531  67.356  1.00  0.00     0.000 HD 
HETATM   20  N   UNL     1     -10.965   8.396  67.867  1.00  0.00    -0.476 N  
HETATM   21  H2  UNL     1     -11.321   8.453  68.821  1.00  0.00     0.000 HD 
ENDBRANCH  16  17
ENDBRANCH  15  16
ENDBRANCH   4  15
ENDBRANCH   3   4
ENDBRANCH   2   3
TORSDOF 9
ENDMDL
MODEL       98
REMARK 921   NORMALIZED FREE ENERGY PREDICTED BY IDOCK:   -3.59 KCAL/MOL
REMARK 922        TOTAL FREE ENERGY PREDICTED BY IDOCK:   -6.42 KCAL/MOL
REMARK 923 INTER-LIGAND FREE ENERGY PREDICTED BY IDOCK:   -5.71 KCAL/MOL
REMARK 924 INTRA-LIGAND FREE ENERGY PREDICTED BY IDOCK:   -0.70 KCAL/MOL
REMARK 927      BINDING AFFINITY PREDICTED BY RF-SCORE:    0.00 PKD
ROOT
HETATM    1  C   UNL     1     -13.194  13.567  71.659  1.00  0.00    -0.449 C  
HETATM    2  C   UNL     1     -12.005  14.098  70.870  1.00  0.00    -0.371 C  
ENDROOT
BRANCH   2   3
HETATM    3  C   UNL     1     -12.399  14.481  69.437  1.00  0.00    -0.213 C  
BRANCH   3   4
HETATM    4  C   UNL     1     -11.547  13.831  68.302  1.00  0.00    -0.373 C  
HETATM    5  C   UNL     1     -11.694  12.296  68.333  1.00  0.00    -0.390 C  
BRANCH   4   6
HETATM    6  C   UNL     1     -10.057  14.198  68.561  1.00  0.00    -0.243 C  
BRANCH   6   7
HETATM    7  O   UNL     1      -9.834  15.606  68.353  1.00  0.00    -0.202 OA 
BRANCH   7   8
HETATM    8  C   UNL     1      -8.616  16.088  68.713  1.00  0.00    -0.223 C  
HETATM    9  H   UNL     1      -8.157  14.101  68.979  1.00  0.00     0.000 HD 
HETATM   10  O   UNL     1      -8.312  17.271  68.767  1.00  0.00    -0.266 OA 
HETATM   11  N   UNL     1      -7.782  15.049  68.992  1.00  0.00    -0.158 N  
BRANCH  11  12
HETATM   12  C   UNL     1      -6.377  15.240  69.309  1.00  0.00    -0.126 C  
HETATM   13  C   UNL     1      -5.493  14.784  68.156  1.00  0.00    -0.124 C  
HETATM   14  C   UNL     1      -6.008  14.505  70.597  1.00  0.00    -0.184 C  
ENDBRANCH  11  12
ENDBRANCH   7   8
ENDBRANCH   6   7
ENDBRANCH   4   6
BRANCH   4  15
HETATM   15  C   UNL     1     -11.971  14.341  66.901  1.00  0.00    -0.438 C  
BRANCH  15  16
HETATM   16  O   UNL     1     -12.037  13.242  65.975  1.00  0.00    -0.403 OA 
BRANCH  16  17
HETATM   17  C   UNL     1     -11.647  13.499  64.706  1.00  0.00    -0.349 C  
HETATM   18  O   UNL     1     -12.369  13.675  63.739  1.00  0.00    -0.671 OA 
HETATM   19  H1  UNL     1     -10.003  13.699  63.676  1.00  0.00     0.000 HD 
HETATM   20  N   UNL     1     -10.297  13.505  64.634  1.00  0.00    -0.533 N  
HETATM   21  H2  UNL     1      -9.667  13.340  65.419  1.00  0.00     0.000 HD 
ENDBRANCH  16  17
ENDBRANCH  15  16
ENDBRANCH   4  15
ENDBRANCH   3   4
ENDBRANCH   2   3
TORSDOF 9
ENDMDL
MODEL       99
REMARK 921   NORMALIZED FREE ENERGY PREDICTED BY IDOCK:   -3.56 KCAL/MOL
REMARK 922        TOTAL FREE ENERGY PREDICTED BY IDOCK:   -6.39 KCAL/MOL
REMARK 923 INTER-LIGAND FREE ENERGY PREDICTED BY IDOCK:   -5.77 KCAL/MOL
REMARK 924 INTRA-LIGAND FREE ENERGY PREDICTED BY IDOCK:   -0.62 KCAL/MOL
REMARK 927      BINDING AFFINITY PREDICTED BY RF-SCORE:    0.00 PKD
ROOT
HETATM    1  C   UNL     1     -10.219  16.193  65.636  1.00  0.00    -0.390 C  
HETATM    2  C   UNL     1     -10.389  15.398  66.924  1.00  0.00    -0.277 C  
ENDROOT
BRANCH   2   3
HETATM    3  C   UNL     1      -9.489  14.155  66.947  1.00  0.00    -0.275 C  
BRANCH   3   4
HETATM    4  C   UNL     1     -10.217  12.787  66.755  1.00  0.00    -0.245 C  
HETATM    5  C   UNL     1     -11.584  12.803  67.469  1.00  0.00    -0.412 C  
BRANCH   4   6
HETATM    6  C   UNL     1      -9.327  11.685  67.399  1.00  0.00    -0.168 C  
BRANCH   6   7
HETATM    7  O   UNL     1     -10.098  10.864  68.296  1.00  0.00    -0.164 OA 
BRANCH   7   8
HETATM    8  C   UNL     1      -9.438  10.341  69.361  1.00  0.00    -0.206 C  
HETATM    9  H   UNL     1      -7.766  10.706  68.220  1.00  0.00     0.000 HD 
HETATM   10  O   UNL     1      -9.964   9.909  70.377  1.00  0.00    -0.259 OA 
HETATM   11  N   UNL     1      -8.097  10.384  69.130  1.00  0.00    -0.140 N  
BRANCH  11  12
HETATM   12  C   UNL     1      -7.119   9.989  70.129  1.00  0.00    -0.154 C  
HETATM   13  C   UNL     1      -6.022  11.037  70.260  1.00  0.00    -0.139 C  
HETATM   14  C   UNL     1      -6.524   8.622  69.793  1.00  0.00    -0.038 C  
ENDBRANCH  11  12
ENDBRANCH   7   8
ENDBRANCH   6   7
ENDBRANCH   4   6
BRANCH   4  15
HETATM   15  C   UNL     1     -10.444  12.461  65.257  1.00  0.00    -0.286 C  
BRANCH  15  16
HETATM   16  O   UNL     1     -11.844  12.246  65.005  1.00  0.00    -0.371 OA 
BRANCH  16  17
HETATM   17  C   UNL     1     -12.309  12.650  63.802  1.00  0.00    -0.478 C  
HETATM   18  O   UNL     1     -12.647  13.779  63.488  1.00  0.00    -0.814 OA 
HETATM   19  H1  UNL     1     -12.736  11.898  62.054  1.00  0.00     0.000 HD 
HETATM   20  N   UNL     1     -12.385  11.593  62.962  1.00  0.00    -0.956 N  
HETATM   21  H2  UNL     1     -12.130  10.635  63.201  1.00  0.00     0.000 HD 
ENDBRANCH  16  17
ENDBRANCH  15  16
ENDBRANCH   4  15
ENDBRANCH   3   4
ENDBRANCH   2   3
TORSDOF 9
ENDMDL
MODEL      100
REMARK 921   NORMALIZED FREE ENERGY PREDICTED BY IDOCK:   -3.56 KCAL/MOL
REMARK 922        TOTAL FREE ENERGY PREDICTED BY IDOCK:   -6.39 KCAL/MOL
REMARK 923 INTER-LIGAND FREE ENERGY PREDICTED BY IDOCK:   -5.78 KCAL/MOL
REMARK 924 INTRA-LIGAND FREE ENERGY PREDICTED BY IDOCK:   -0.61 KCAL/MOL
REMARK 927      BINDING AFFINITY PREDICTED BY RF-SCORE:    0.00 PKD
ROOT
HETATM    1  C   UNL     1     -11.830  13.265  64.418  1.00  0.00    -0.448 C  
HETATM    2  C   UNL     1     -11.959  14.002  65.744  1.00  0.00    -0.417 C  
ENDROOT
BRANCH   2   3
HETATM    3  C   UNL     1     -10.727  13.790  66.634  1.00  0.00    -0.277 C  
BRANCH   3   4
HETATM    4  C   UNL     1     -10.126  15.079  67.279  1.00  0.00    -0.235 C  
HETATM    5  C   UNL     1     -11.004  16.303  66.948  1.00  0.00    -0.059 C  
BRANCH   4   6
HETATM    6  C   UNL     1      -8.711  15.296  66.669  1.00  0.00    -0.291 C  
BRANCH   6   7
HETATM    7  O   UNL     1      -8.676  16.496  65.873  1.00  0.00    -0.456 OA 
BRANCH   7   8
HETATM    8  C   UNL     1      -7.761  17.435  66.227  1.00  0.00    -0.305 C  
HETATM    9  H   UNL     1      -8.302  16.917  68.142  1.00  0.00     0.000 HD 
HETATM   10  O   UNL     1      -7.112  18.118  65.448  1.00  0.00    -0.523 OA 
HETATM   11  N   UNL     1      -7.667  17.487  67.584  1.00  0.00    -0.197 N  
BRANCH  11  12
HETATM   12  C   UNL     1      -6.696  18.325  68.267  1.00  0.00    -0.216 C  
HETATM   13  C   UNL     1      -5.993  17.550  69.374  1.00  0.00    -0.234 C  
HETATM   14  C   UNL     1      -7.364  19.581  68.826  1.00  0.00    -0.393 C  
ENDBRANCH  11  12
ENDBRANCH   7   8
ENDBRANCH   6   7
ENDBRANCH   4   6
BRANCH   4  15
HETATM   15  C   UNL     1     -10.014  14.952  68.820  1.00  0.00    -0.228 C  
BRANCH  15  16
HETATM   16  O   UNL     1     -10.971  15.816  69.457  1.00  0.00    -0.248 OA 
BRANCH  16  17
HETATM   17  C   UNL     1     -11.689  15.278  70.468  1.00  0.00    -0.318 C  
HETATM   18  O   UNL     1     -12.310  15.881  71.328  1.00  0.00    -0.423 OA 
HETATM   19  H1  UNL     1     -12.147  13.523  71.185  1.00  0.00     0.000 HD 
HETATM   20  N   UNL     1     -11.605  13.929  70.423  1.00  0.00    -0.508 N  
HETATM   21  H2  UNL     1     -11.078  13.398  69.730  1.00  0.00     0.000 HD 
ENDBRANCH  16  17
ENDBRANCH  15  16
ENDBRANCH   4  15
ENDBRANCH   3   4
ENDBRANCH   2   3
TORSDOF 9
ENDMDL
MODEL      101
REMARK 921   NORMALIZED FREE ENERGY PREDICTED BY IDOCK:   -3.54 KCAL/MOL
REMARK 922        TOTAL FREE ENERGY PREDICTED BY IDOCK:   -6.35 KCAL/MOL
REMARK 923 INTER-LIGAND FREE ENERGY PREDICTED BY IDOCK:   -6.19 KCAL/MOL
REMARK 924 INTRA-LIGAND FREE ENERGY PREDICTED BY IDOCK:   -0.16 KCAL/MOL
REMARK 927      BINDING AFFINITY PREDICTED BY RF-SCORE:    0.00 PKD
ROOT
HETATM    1  C   UNL     1      -8.486  18.326  66.519  1.00  0.00    -0.287 C  
HETATM    2  C   UNL     1      -7.572  17.534  67.444  1.00  0.00    -0.213 C  
ENDROOT
BRANCH   2   3
HETATM    3  C   UNL     1      -7.490  16.058  67.034  1.00  0.00    -0.264 C  
BRANCH   3   4
HETATM    4  C   UNL     1      -8.543  15.112  67.691  1.00  0.00    -0.180 C  
HETATM    5  C   UNL     1      -7.902  13.752  68.035  1.00  0.00    -0.152 C  
BRANCH   4   6
HETATM    6  C   UNL     1      -9.682  14.882  66.657  1.00  0.00    -0.261 C  
BRANCH   6   7
HETATM    7  O   UNL     1     -10.562  13.827  67.089  1.00  0.00    -0.273 OA 
BRANCH   7   8
HETATM    8  C   UNL     1     -11.120  13.063  66.116  1.00  0.00    -0.287 C  
HETATM    9  H   UNL     1      -9.710  13.958  64.916  1.00  0.00     0.000 HD 
HETATM   10  O   UNL     1     -12.070  12.308  66.267  1.00  0.00    -0.626 OA 
HETATM   11  N   UNL     1     -10.449  13.256  64.947  1.00  0.00    -0.353 N  
BRANCH  11  12
HETATM   12  C   UNL     1     -10.746  12.499  63.743  1.00  0.00    -0.445 C  
HETATM   13  C   UNL     1     -12.200  12.683  63.331  1.00  0.00    -0.610 C  
HETATM   14  C   UNL     1     -10.423  11.018  63.941  1.00  0.00    -0.422 C  
ENDBRANCH  11  12
ENDBRANCH   7   8
ENDBRANCH   6   7
ENDBRANCH   4   6
BRANCH   4  15
HETATM   15  C   UNL     1      -9.135  15.722  68.988  1.00  0.00    -0.245 C  
BRANCH  15  16
HETATM   16  O   UNL     1     -10.458  16.226  68.737  1.00  0.00    -0.249 OA 
BRANCH  16  17
HETATM   17  C   UNL     1     -11.382  15.997  69.697  1.00  0.00    -0.332 C  
HETATM   18  O   UNL     1     -11.316  16.323  70.871  1.00  0.00    -0.389 OA 
HETATM   19  H1  UNL     1     -13.117  15.131  69.902  1.00  0.00     0.000 HD 
HETATM   20  N   UNL     1     -12.421  15.303  69.178  1.00  0.00    -0.602 N  
HETATM   21  H2  UNL     1     -12.495  14.999  68.207  1.00  0.00     0.000 HD 
ENDBRANCH  16  17
ENDBRANCH  15  16
ENDBRANCH   4  15
ENDBRANCH   3   4
ENDBRANCH   2   3
TORSDOF 9
ENDMDL
MODEL      102
REMARK 921   NORMALIZED FREE ENERGY PREDICTED BY IDOCK:   -3.53 KCAL/MOL
REMARK 922        TOTAL FREE ENERGY PREDICTED BY IDOCK:   -6.33 KCAL/MOL
REMARK 923 INTER-LIGAND FREE ENERGY PREDICTED BY IDOCK:   -6.14 KCAL/MOL
REMARK 924 INTRA-LIGAND FREE ENERGY PREDICTED BY IDOCK:   -0.20 KCAL/MOL
REMARK 927      BINDING AFFINITY PREDICTED BY RF-SCORE:    0.00 PKD
ROOT
HETATM    1  C   UNL     1     -12.505  12.105  63.549  1.00  0.00    -0.666 C  
HETATM    2  C   UNL     1     -12.086  13.481  64.049  1.00  0.00    -0.494 C  
ENDROOT
BRANCH   2   3
HETATM    3  C   UNL     1     -12.603  13.751  65.468  1.00  0.00    -0.551 C  
BRANCH   3   4
HETATM    4  C   UNL     1     -11.560  13.569  66.616  1.00  0.00    -0.396 C  
HETATM    5  C   UNL     1     -10.126  13.641  66.053  1.00  0.00    -0.320 C  
BRANCH   4   6
HETATM    6  C   UNL     1     -11.785  12.161  67.239  1.00  0.00    -0.299 C  
BRANCH   6   7
HETATM    7  O   UNL     1     -10.688  11.282  66.928  1.00  0.00    -0.247 OA 
BRANCH   7   8
HETATM    8  C   UNL     1     -10.498  10.227  67.761  1.00  0.00    -0.226 C  
HETATM    9  H   UNL     1      -9.779  11.661  69.048  1.00  0.00     0.000 HD 
HETATM   10  O   UNL     1     -10.741   9.060  67.491  1.00  0.00    -0.267 OA 
HETATM   11  N   UNL     1     -10.007  10.672  68.951  1.00  0.00    -0.196 N  
BRANCH  11  12
HETATM   12  C   UNL     1      -9.796   9.790  70.086  1.00  0.00    -0.255 C  
HETATM   13  C   UNL     1      -8.826   8.671  69.731  1.00  0.00    -0.137 C  
HETATM   14  C   UNL     1     -11.124   9.218  70.581  1.00  0.00    -0.335 C  
ENDBRANCH  11  12
ENDBRANCH   7   8
ENDBRANCH   6   7
ENDBRANCH   4   6
BRANCH   4  15
HETATM   15  C   UNL     1     -11.716  14.653  67.713  1.00  0.00    -0.359 C  
BRANCH  15  16
HETATM   16  O   UNL     1     -11.175  14.177  68.958  1.00  0.00    -0.248 OA 
BRANCH  16  17
HETATM   17  C   UNL     1     -11.794  14.597  70.084  1.00  0.00    -0.307 C  
HETATM   18  O   UNL     1     -12.991  14.566  70.318  1.00  0.00    -0.289 OA 
HETATM   19  H1  UNL     1     -11.351  15.424  71.793  1.00  0.00     0.000 HD 
HETATM   20  N   UNL     1     -10.884  15.108  70.944  1.00  0.00    -0.542 N  
HETATM   21  H2  UNL     1      -9.881  15.166  70.769  1.00  0.00     0.000 HD 
ENDBRANCH  16  17
ENDBRANCH  15  16
ENDBRANCH   4  15
ENDBRANCH   3   4
ENDBRANCH   2   3
TORSDOF 9
ENDMDL
MODEL      103
REMARK 921   NORMALIZED FREE ENERGY PREDICTED BY IDOCK:   -3.52 KCAL/MOL
REMARK 922        TOTAL FREE ENERGY PREDICTED BY IDOCK:   -6.32 KCAL/MOL
REMARK 923 INTER-LIGAND FREE ENERGY PREDICTED BY IDOCK:   -5.37 KCAL/MOL
REMARK 924 INTRA-LIGAND FREE ENERGY PREDICTED BY IDOCK:   -0.95 KCAL/MOL
REMARK 927      BINDING AFFINITY PREDICTED BY RF-SCORE:    0.00 PKD
ROOT
HETATM    1  C   UNL     1      -6.608   8.390  65.235  1.00  0.00    -0.056 C  
HETATM    2  C   UNL     1      -7.001   9.841  65.476  1.00  0.00    -0.099 C  
ENDROOT
BRANCH   2   3
HETATM    3  C   UNL     1      -8.512  10.054  65.318  1.00  0.00    -0.161 C  
BRANCH   3   4
HETATM    4  C   UNL     1      -9.179  10.993  66.372  1.00  0.00    -0.192 C  
HETATM    5  C   UNL     1      -8.114  11.567  67.329  1.00  0.00    -0.153 C  
BRANCH   4   6
HETATM    6  C   UNL     1     -10.186  10.140  67.195  1.00  0.00    -0.225 C  
BRANCH   6   7
HETATM    7  O   UNL     1     -10.294  10.634  68.544  1.00  0.00    -0.167 OA 
BRANCH   7   8
HETATM    8  C   UNL     1     -11.549  10.833  69.020  1.00  0.00    -0.299 C  
HETATM    9  H   UNL     1     -11.020   9.386  70.382  1.00  0.00     0.000 HD 
HETATM   10  O   UNL     1     -12.370  11.608  68.550  1.00  0.00    -0.406 OA 
HETATM   11  N   UNL     1     -11.750  10.045  70.112  1.00  0.00    -0.240 N  
BRANCH  11  12
HETATM   12  C   UNL     1     -12.964  10.107  70.907  1.00  0.00    -0.351 C  
HETATM   13  C   UNL     1     -12.941  11.309  71.842  1.00  0.00    -0.471 C  
HETATM   14  C   UNL     1     -13.161   8.813  71.696  1.00  0.00    -0.399 C  
ENDBRANCH  11  12
ENDBRANCH   7   8
ENDBRANCH   6   7
ENDBRANCH   4   6
BRANCH   4  15
HETATM   15  C   UNL     1      -9.926  12.173  65.700  1.00  0.00    -0.249 C  
BRANCH  15  16
HETATM   16  O   UNL     1     -11.265  11.777  65.355  1.00  0.00    -0.304 OA 
BRANCH  16  17
HETATM   17  C   UNL     1     -12.184  12.766  65.273  1.00  0.00    -0.483 C  
HETATM   18  O   UNL     1     -12.965  12.966  64.358  1.00  0.00    -0.705 OA 
HETATM   19  H1  UNL     1     -12.797  14.304  66.303  1.00  0.00     0.000 HD 
HETATM   20  N   UNL     1     -12.104  13.558  66.366  1.00  0.00    -0.415 N  
HETATM   21  H2  UNL     1     -11.449  13.429  67.137  1.00  0.00     0.000 HD 
ENDBRANCH  16  17
ENDBRANCH  15  16
ENDBRANCH   4  15
ENDBRANCH   3   4
ENDBRANCH   2   3
TORSDOF 9
ENDMDL
MODEL      104
REMARK 921   NORMALIZED FREE ENERGY PREDICTED BY IDOCK:   -3.52 KCAL/MOL
REMARK 922        TOTAL FREE ENERGY PREDICTED BY IDOCK:   -6.32 KCAL/MOL
REMARK 923 INTER-LIGAND FREE ENERGY PREDICTED BY IDOCK:   -5.71 KCAL/MOL
REMARK 924 INTRA-LIGAND FREE ENERGY PREDICTED BY IDOCK:   -0.61 KCAL/MOL
REMARK 927      BINDING AFFINITY PREDICTED BY RF-SCORE:    0.00 PKD
ROOT
HETATM    1  C   UNL     1     -10.980   7.979  72.546  1.00  0.00    -0.430 C  
HETATM    2  C   UNL     1     -10.391   9.070  71.660  1.00  0.00    -0.420 C  
ENDROOT
BRANCH   2   3
HETATM    3  C   UNL     1     -11.126   9.168  70.317  1.00  0.00    -0.272 C  
BRANCH   3   4
HETATM    4  C   UNL     1     -10.351   9.894  69.172  1.00  0.00    -0.225 C  
HETATM    5  C   UNL     1      -8.899  10.182  69.606  1.00  0.00    -0.184 C  
BRANCH   4   6
HETATM    6  C   UNL     1     -11.071  11.245  68.897  1.00  0.00    -0.238 C  
BRANCH   6   7
HETATM    7  O   UNL     1     -11.817  11.186  67.666  1.00  0.00    -0.612 OA 
BRANCH   7   8
HETATM    8  C   UNL     1     -11.789  12.296  66.884  1.00  0.00    -0.264 C  
HETATM    9  H   UNL     1     -10.973  13.178  68.554  1.00  0.00     0.000 HD 
HETATM   10  O   UNL     1     -12.199  12.361  65.734  1.00  0.00    -0.620 OA 
HETATM   11  N   UNL     1     -11.222  13.323  67.575  1.00  0.00    -0.270 N  
BRANCH  11  12
HETATM   12  C   UNL     1     -10.958  14.618  66.971  1.00  0.00    -0.317 C  
HETATM   13  C   UNL     1      -9.574  14.649  66.336  1.00  0.00    -0.323 C  
HETATM   14  C   UNL     1     -11.105  15.736  68.003  1.00  0.00    -0.337 C  
ENDBRANCH  11  12
ENDBRANCH   7   8
ENDBRANCH   6   7
ENDBRANCH   4   6
BRANCH   4  15
HETATM   15  C   UNL     1     -10.320   9.048  67.873  1.00  0.00    -0.235 C  
BRANCH  15  16
HETATM   16  O   UNL     1     -10.937   7.770  68.101  1.00  0.00    -0.015 OA 
BRANCH  16  17
HETATM   17  C   UNL     1     -10.575   6.768  67.267  1.00  0.00    -0.320 C  
HETATM   18  O   UNL     1     -10.613   5.572  67.499  1.00  0.00    -0.221 OA 
HETATM   19  H1  UNL     1      -9.842   6.529  65.476  1.00  0.00     0.000 HD 
HETATM   20  N   UNL     1     -10.115   7.284  66.104  1.00  0.00    -0.406 N  
HETATM   21  H2  UNL     1     -10.051   8.279  65.889  1.00  0.00     0.000 HD 
ENDBRANCH  16  17
ENDBRANCH  15  16
ENDBRANCH   4  15
ENDBRANCH   3   4
ENDBRANCH   2   3
TORSDOF 9
ENDMDL
MODEL      105
REMARK 921   NORMALIZED FREE ENERGY PREDICTED BY IDOCK:   -3.51 KCAL/MOL
REMARK 922        TOTAL FREE ENERGY PREDICTED BY IDOCK:   -6.30 KCAL/MOL
REMARK 923 INTER-LIGAND FREE ENERGY PREDICTED BY IDOCK:   -5.77 KCAL/MOL
REMARK 924 INTRA-LIGAND FREE ENERGY PREDICTED BY IDOCK:   -0.53 KCAL/MOL
REMARK 927      BINDING AFFINITY PREDICTED BY RF-SCORE:    0.00 PKD
ROOT
HETATM    1  C   UNL     1     -11.617  15.875  70.861  1.00  0.00    -0.456 C  
HETATM    2  C   UNL     1     -12.503  14.767  70.307  1.00  0.00    -0.393 C  
ENDROOT
BRANCH   2   3
HETATM    3  C   UNL     1     -12.450  14.711  68.774  1.00  0.00     0.109 C  
BRANCH   3   4
HETATM    4  C   UNL     1     -11.439  13.689  68.168  1.00  0.00    -0.348 C  
HETATM    5  C   UNL     1     -12.102  12.890  67.027  1.00  0.00    -0.296 C  
BRANCH   4   6
HETATM    6  C   UNL     1     -11.029  12.702  69.299  1.00  0.00    -0.066 C  
BRANCH   6   7
HETATM    7  O   UNL     1     -11.914  11.567  69.334  1.00  0.00    -0.311 OA 
BRANCH   7   8
HETATM    8  C   UNL     1     -11.987  10.888  70.507  1.00  0.00    -0.371 C  
HETATM    9  H   UNL     1     -10.439   9.792  69.712  1.00  0.00     0.000 HD 
HETATM   10  O   UNL     1     -12.791  11.108  71.402  1.00  0.00    -0.413 OA 
HETATM   11  N   UNL     1     -11.017   9.933  70.541  1.00  0.00    -0.305 N  
BRANCH  11  12
HETATM   12  C   UNL     1     -10.774   9.109  71.712  1.00  0.00    -0.335 C  
HETATM   13  C   UNL     1      -9.292   8.791  71.854  1.00  0.00    -0.343 C  
HETATM   14  C   UNL     1     -11.599   7.823  71.648  1.00  0.00    -0.304 C  
ENDBRANCH  11  12
ENDBRANCH   7   8
ENDBRANCH   6   7
ENDBRANCH   4   6
BRANCH   4  15
HETATM   15  C   UNL     1     -10.175  14.392  67.609  1.00  0.00    -0.229 C  
BRANCH  15  16
HETATM   16  O   UNL     1     -10.508  15.712  67.145  1.00  0.00    -0.290 OA 
BRANCH  16  17
HETATM   17  C   UNL     1     -10.451  15.913  65.809  1.00  0.00    -0.370 C  
HETATM   18  O   UNL     1     -10.838  16.896  65.199  1.00  0.00    -0.602 OA 
HETATM   19  H1  UNL     1      -9.871  14.981  64.198  1.00  0.00     0.000 HD 
HETATM   20  N   UNL     1      -9.914  14.829  65.205  1.00  0.00    -0.449 N  
HETATM   21  H2  UNL     1      -9.600  13.986  65.685  1.00  0.00     0.000 HD 
ENDBRANCH  16  17
ENDBRANCH  15  16
ENDBRANCH   4  15
ENDBRANCH   3   4
ENDBRANCH   2   3
TORSDOF 9
ENDMDL
MODEL      106
REMARK 921   NORMALIZED FREE ENERGY PREDICTED BY IDOCK:   -3.51 KCAL/MOL
REMARK 922        TOTAL FREE ENERGY PREDICTED BY IDOCK:   -6.30 KCAL/MOL
REMARK 923 INTER-LIGAND FREE ENERGY PREDICTED BY IDOCK:   -5.80 KCAL/MOL
REMARK 924 INTRA-LIGAND FREE ENERGY PREDICTED BY IDOCK:   -0.50 KCAL/MOL
REMARK 927      BINDING AFFINITY PREDICTED BY RF-SCORE:    0.00 PKD
ROOT
HETATM    1  C   UNL     1     -10.350   5.760  70.230  1.00  0.00    -0.319 C  
HETATM    2  C   UNL     1     -11.092   7.048  69.899  1.00  0.00    -0.301 C  
ENDROOT
BRANCH   2   3
HETATM    3  C   UNL     1     -12.431   7.140  70.644  1.00  0.00    -0.148 C  
BRANCH   3   4
HETATM    4  C   UNL     1     -12.501   8.205  71.783  1.00  0.00    -0.363 C  
HETATM    5  C   UNL     1     -13.950   8.358  72.286  1.00  0.00    -0.370 C  
BRANCH   4   6
HETATM    6  C   UNL     1     -12.029   9.564  71.190  1.00  0.00    -0.348 C  
BRANCH   6   7
HETATM    7  O   UNL     1     -12.999  10.597  71.444  1.00  0.00    -0.391 OA 
BRANCH   7   8
HETATM    8  C   UNL     1     -12.613  11.872  71.180  1.00  0.00    -0.288 C  
HETATM    9  H   UNL     1     -13.851  12.335  72.756  1.00  0.00     0.000 HD 
HETATM   10  O   UNL     1     -11.859  12.210  70.279  1.00  0.00    -0.329 OA 
HETATM   11  N   UNL     1     -13.184  12.715  72.083  1.00  0.00    -0.469 N  
BRANCH  11  12
HETATM   12  C   UNL     1     -12.882  14.136  72.125  1.00  0.00    -0.332 C  
HETATM   13  C   UNL     1     -12.851  14.643  73.560  1.00  0.00    -0.425 C  
HETATM   14  C   UNL     1     -13.890  14.928  71.293  1.00  0.00    -0.500 C  
ENDBRANCH  11  12
ENDBRANCH   7   8
ENDBRANCH   6   7
ENDBRANCH   4   6
BRANCH   4  15
HETATM   15  C   UNL     1     -11.598   7.823  72.984  1.00  0.00    -0.126 C  
BRANCH  15  16
HETATM   16  O   UNL     1     -10.247   8.251  72.743  1.00  0.00    -0.300 OA 
BRANCH  16  17
HETATM   17  C   UNL     1      -9.270   7.525  73.331  1.00  0.00    -0.228 C  
HETATM   18  O   UNL     1      -8.143   7.330  72.906  1.00  0.00    -0.102 OA 
HETATM   19  H1  UNL     1      -8.991   6.443  74.930  1.00  0.00     0.000 HD 
HETATM   20  N   UNL     1      -9.728   6.991  74.486  1.00  0.00    -0.455 N  
HETATM   21  H2  UNL     1     -10.669   7.118  74.858  1.00  0.00     0.000 HD 
ENDBRANCH  16  17
ENDBRANCH  15  16
ENDBRANCH   4  15
ENDBRANCH   3   4
ENDBRANCH   2   3
TORSDOF 9
ENDMDL
MODEL      107
REMARK 921   NORMALIZED FREE ENERGY PREDICTED BY IDOCK:   -3.50 KCAL/MOL
REMARK 922        TOTAL FREE ENERGY PREDICTED BY IDOCK:   -6.29 KCAL/MOL
REMARK 923 INTER-LIGAND FREE ENERGY PREDICTED BY IDOCK:   -5.65 KCAL/MOL
REMARK 924 INTRA-LIGAND FREE ENERGY PREDICTED BY IDOCK:   -0.64 KCAL/MOL
REMARK 927      BINDING AFFINITY PREDICTED BY RF-SCORE:    0.00 PKD
ROOT
HETATM    1  C   UNL     1      -7.239  13.945  67.616  1.00  0.00    -0.187 C  
HETATM    2  C   UNL     1      -7.927  15.231  67.175  1.00  0.00    -0.251 C  
ENDROOT
BRANCH   2   3
HETATM    3  C   UNL     1      -9.062  15.623  68.131  1.00  0.00    -0.181 C  
BRANCH   3   4
HETATM    4  C   UNL     1     -10.435  15.941  67.459  1.00  0.00    -0.298 C  
HETATM    5  C   UNL     1     -11.509  16.208  68.534  1.00  0.00    -0.324 C  
BRANCH   4   6
HETATM    6  C   UNL     1     -10.854  14.694  66.629  1.00  0.00    -0.312 C  
BRANCH   6   7
HETATM    7  O   UNL     1     -11.096  13.565  67.489  1.00  0.00    -0.262 OA 
BRANCH   7   8
HETATM    8  C   UNL     1     -11.413  12.393  66.879  1.00  0.00    -0.360 C  
HETATM    9  H   UNL     1      -9.870  11.645  68.015  1.00  0.00     0.000 HD 
HETATM   10  O   UNL     1     -12.288  12.248  66.038  1.00  0.00    -0.609 OA 
HETATM   11  N   UNL     1     -10.613  11.402  67.360  1.00  0.00    -0.208 N  
BRANCH  11  12
HETATM   12  C   UNL     1     -10.779  10.011  66.975  1.00  0.00    -0.178 C  
HETATM   13  C   UNL     1     -10.618   9.091  68.178  1.00  0.00    -0.225 C  
HETATM   14  C   UNL     1      -9.791   9.634  65.871  1.00  0.00    -0.358 C  
ENDBRANCH  11  12
ENDBRANCH   7   8
ENDBRANCH   6   7
ENDBRANCH   4   6
BRANCH   4  15
HETATM   15  C   UNL     1     -10.347  17.179  66.530  1.00  0.00    -0.306 C  
BRANCH  15  16
HETATM   16  O   UNL     1     -10.459  18.387  67.303  1.00  0.00    -0.377 OA 
BRANCH  16  17
HETATM   17  C   UNL     1      -9.448  19.276  67.181  1.00  0.00    -0.323 C  
HETATM   18  O   UNL     1      -8.317  19.166  67.625  1.00  0.00    -0.281 OA 
HETATM   19  H1  UNL     1      -9.112  21.035  66.410  1.00  0.00     0.000 HD 
HETATM   20  N   UNL     1      -9.875  20.365  66.501  1.00  0.00    -0.609 N  
HETATM   21  H2  UNL     1     -10.818  20.495  66.136  1.00  0.00     0.000 HD 
ENDBRANCH  16  17
ENDBRANCH  15  16
ENDBRANCH   4  15
ENDBRANCH   3   4
ENDBRANCH   2   3
TORSDOF 9
ENDMDL
MODEL      108
REMARK 921   NORMALIZED FREE ENERGY PREDICTED BY IDOCK:   -3.49 KCAL/MOL
REMARK 922        TOTAL FREE ENERGY PREDICTED BY IDOCK:   -6.27 KCAL/MOL
REMARK 923 INTER-LIGAND FREE ENERGY PREDICTED BY IDOCK:   -5.63 KCAL/MOL
REMARK 924 INTRA-LIGAND FREE ENERGY PREDICTED BY IDOCK:   -0.63 KCAL/MOL
REMARK 927      BINDING AFFINITY PREDICTED BY RF-SCORE:    0.00 PKD
ROOT
HETATM    1  C   UNL     1     -12.241  12.356  63.780  1.00  0.00    -0.626 C  
HETATM    2  C   UNL     1     -11.644  11.902  65.106  1.00  0.00    -0.278 C  
ENDROOT
BRANCH   2   3
HETATM    3  C   UNL     1     -11.980  12.877  66.243  1.00  0.00    -0.472 C  
BRANCH   3   4
HETATM    4  C   UNL     1     -10.875  13.058  67.330  1.00  0.00    -0.269 C  
HETATM    5  C   UNL     1     -11.515  13.216  68.724  1.00  0.00    -0.348 C  
BRANCH   4   6
HETATM    6  C   UNL     1     -10.086  14.355  66.990  1.00  0.00    -0.256 C  
BRANCH   6   7
HETATM    7  O   UNL     1     -10.984  15.466  66.806  1.00  0.00    -0.314 OA 
BRANCH   7   8
HETATM    8  C   UNL     1     -10.672  16.614  67.461  1.00  0.00    -0.278 C  
HETATM    9  H   UNL     1     -10.227  17.305  65.576  1.00  0.00     0.000 HD 
HETATM   10  O   UNL     1     -10.727  16.774  68.672  1.00  0.00    -0.322 OA 
HETATM   11  N   UNL     1     -10.301  17.565  66.560  1.00  0.00    -0.339 N  
BRANCH  11  12
HETATM   12  C   UNL     1     -10.006  18.934  66.946  1.00  0.00    -0.345 C  
HETATM   13  C   UNL     1     -10.517  19.915  65.900  1.00  0.00    -0.567 C  
HETATM   14  C   UNL     1      -8.506  19.120  67.175  1.00  0.00    -0.301 C  
ENDBRANCH  11  12
ENDBRANCH   7   8
ENDBRANCH   6   7
ENDBRANCH   4   6
BRANCH   4  15
HETATM   15  C   UNL     1      -9.901  11.852  67.367  1.00  0.00    -0.183 C  
BRANCH  15  16
HETATM   16  O   UNL     1      -8.604  12.279  67.818  1.00  0.00    -0.151 OA 
BRANCH  16  17
HETATM   17  C   UNL     1      -8.030  11.538  68.792  1.00  0.00    -0.107 C  
HETATM   18  O   UNL     1      -6.860  11.559  69.137  1.00  0.00    -0.096 OA 
HETATM   19  H1  UNL     1      -8.516  10.151  70.074  1.00  0.00     0.000 HD 
HETATM   20  N   UNL     1      -8.949  10.710  69.339  1.00  0.00    -0.380 N  
HETATM   21  H2  UNL     1      -9.928  10.654  69.059  1.00  0.00     0.000 HD 
ENDBRANCH  16  17
ENDBRANCH  15  16
ENDBRANCH   4  15
ENDBRANCH   3   4
ENDBRANCH   2   3
TORSDOF 9
ENDMDL
MODEL      109
REMARK 921   NORMALIZED FREE ENERGY PREDICTED BY IDOCK:   -3.48 KCAL/MOL
REMARK 922        TOTAL FREE ENERGY PREDICTED BY IDOCK:   -6.26 KCAL/MOL
REMARK 923 INTER-LIGAND FREE ENERGY PREDICTED BY IDOCK:   -5.68 KCAL/MOL
REMARK 924 INTRA-LIGAND FREE ENERGY PREDICTED BY IDOCK:   -0.58 KCAL/MOL
REMARK 927      BINDING AFFINITY PREDICTED BY RF-SCORE:    0.00 PKD
ROOT
HETATM    1  C   UNL     1     -12.395  13.956  70.311  1.00  0.00    -0.413 C  
HETATM    2  C   UNL     1     -11.746  13.563  68.990  1.00  0.00    -0.370 C  
ENDROOT
BRANCH   2   3
HETATM    3  C   UNL     1     -11.910  14.660  67.930  1.00  0.00    -0.352 C  
BRANCH   3   4
HETATM    4  C   UNL     1     -11.482  14.272  66.480  1.00  0.00    -0.368 C  
HETATM    5  C   UNL     1     -12.724  13.994  65.610  1.00  0.00    -0.515 C  
BRANCH   4   6
HETATM    6  C   UNL     1     -10.632  12.972  66.572  1.00  0.00    -0.282 C  
BRANCH   6   7
HETATM    7  O   UNL     1      -9.830  12.800  65.387  1.00  0.00    -0.229 OA 
BRANCH   7   8
HETATM    8  C   UNL     1      -9.993  11.636  64.707  1.00  0.00    -0.254 C  
HETATM    9  H   UNL     1      -8.277  11.079  65.695  1.00  0.00     0.000 HD 
HETATM   10  O   UNL     1     -10.887  11.405  63.905  1.00  0.00    -0.364 OA 
HETATM   11  N   UNL     1      -9.013  10.761  65.065  1.00  0.00    -0.198 N  
BRANCH  11  12
HETATM   12  C   UNL     1      -8.977   9.391  64.582  1.00  0.00    -0.187 C  
HETATM   13  C   UNL     1      -8.926   8.407  65.743  1.00  0.00    -0.207 C  
HETATM   14  C   UNL     1      -7.790   9.180  63.642  1.00  0.00    -0.136 C  
ENDBRANCH  11  12
ENDBRANCH   7   8
ENDBRANCH   6   7
ENDBRANCH   4   6
BRANCH   4  15
HETATM   15  C   UNL     1     -10.646  15.391  65.807  1.00  0.00    -0.348 C  
BRANCH  15  16
HETATM   16  O   UNL     1     -10.250  16.368  66.786  1.00  0.00    -0.272 OA 
BRANCH  16  17
HETATM   17  C   UNL     1      -9.653  17.485  66.314  1.00  0.00    -0.237 C  
HETATM   18  O   UNL     1      -8.517  17.583  65.882  1.00  0.00    -0.533 OA 
HETATM   19  H1  UNL     1     -10.050  19.378  66.059  1.00  0.00     0.000 HD 
HETATM   20  N   UNL     1     -10.500  18.535  66.415  1.00  0.00    -0.416 N  
HETATM   21  H2  UNL     1     -11.448  18.489  66.790  1.00  0.00     0.000 HD 
ENDBRANCH  16  17
ENDBRANCH  15  16
ENDBRANCH   4  15
ENDBRANCH   3   4
ENDBRANCH   2   3
TORSDOF 9
ENDMDL
MODEL      110
REMARK 921   NORMALIZED FREE ENERGY PREDICTED BY IDOCK:   -3.46 KCAL/MOL
REMARK 922        TOTAL FREE ENERGY PREDICTED BY IDOCK:   -6.23 KCAL/MOL
REMARK 923 INTER-LIGAND FREE ENERGY PREDICTED BY IDOCK:   -5.70 KCAL/MOL
REMARK 924 INTRA-LIGAND FREE ENERGY PREDICTED BY IDOCK:   -0.53 KCAL/MOL
REMARK 927      BINDING AFFINITY PREDICTED BY RF-SCORE:    0.00 PKD
ROOT
HETATM    1  C   UNL     1     -13.265   9.847  72.002  1.00  0.00    -0.555 C  
HETATM    2  C   UNL     1     -12.296   8.946  71.248  1.00  0.00    -0.342 C  
ENDROOT
BRANCH   2   3
HETATM    3  C   UNL     1     -10.962   9.653  70.973  1.00  0.00    -0.431 C  
BRANCH   3   4
HETATM    4  C   UNL     1     -10.624   9.902  69.469  1.00  0.00    -0.264 C  
HETATM    5  C   UNL     1      -9.200  10.476  69.328  1.00  0.00    -0.164 C  
BRANCH   4   6
HETATM    6  C   UNL     1     -11.642  10.943  68.923  1.00  0.00    -0.309 C  
BRANCH   6   7
HETATM    7  O   UNL     1     -11.662  12.123  69.750  1.00  0.00    -0.310 OA 
BRANCH   7   8
HETATM    8  C   UNL     1     -11.934  13.298  69.127  1.00  0.00    -0.296 C  
HETATM    9  H   UNL     1     -11.407  12.263  67.430  1.00  0.00     0.000 HD 
HETATM   10  O   UNL     1     -12.286  14.328  69.684  1.00  0.00    -0.329 OA 
HETATM   11  N   UNL     1     -11.767  13.149  67.784  1.00  0.00    -0.343 N  
BRANCH  11  12
HETATM   12  C   UNL     1     -12.082  14.205  66.837  1.00  0.00    -0.432 C  
HETATM   13  C   UNL     1     -12.623  13.624  65.537  1.00  0.00    -0.541 C  
HETATM   14  C   UNL     1     -10.855  15.076  66.570  1.00  0.00    -0.320 C  
ENDBRANCH  11  12
ENDBRANCH   7   8
ENDBRANCH   6   7
ENDBRANCH   4   6
BRANCH   4  15
HETATM   15  C   UNL     1     -10.717   8.598  68.635  1.00  0.00    -0.051 C  
BRANCH  15  16
HETATM   16  O   UNL     1     -10.138   7.502  69.365  1.00  0.00    -0.181 OA 
BRANCH  16  17
HETATM   17  C   UNL     1     -10.591   6.266  69.055  1.00  0.00    -0.267 C  
HETATM   18  O   UNL     1     -11.034   5.896  67.981  1.00  0.00    -0.274 OA 
HETATM   19  H1  UNL     1     -10.856   4.533  69.909  1.00  0.00     0.000 HD 
HETATM   20  N   UNL     1     -10.515   5.465  70.143  1.00  0.00    -0.292 N  
HETATM   21  H2  UNL     1     -10.169   5.751  71.058  1.00  0.00     0.000 HD 
ENDBRANCH  16  17
ENDBRANCH  15  16
ENDBRANCH   4  15
ENDBRANCH   3   4
ENDBRANCH   2   3
TORSDOF 9
ENDMDL
MODEL      111
REMARK 921   NORMALIZED FREE ENERGY PREDICTED BY IDOCK:   -3.46 KCAL/MOL
REMARK 922        TOTAL FREE ENERGY PREDICTED BY IDOCK:   -6.22 KCAL/MOL
REMARK 923 INTER-LIGAND FREE ENERGY PREDICTED BY IDOCK:   -5.44 KCAL/MOL
REMARK 924 INTRA-LIGAND FREE ENERGY PREDICTED BY IDOCK:   -0.78 KCAL/MOL
REMARK 927      BINDING AFFINITY PREDICTED BY RF-SCORE:    0.00 PKD
ROOT
HETATM    1  C   UNL     1     -12.195  15.270  72.741  1.00  0.00    -0.513 C  
HETATM    2  C   UNL     1     -11.621  14.846  71.396  1.00  0.00    -0.362 C  
ENDROOT
BRANCH   2   3
HETATM    3  C   UNL     1     -11.343  16.054  70.491  1.00  0.00    -0.420 C  
BRANCH   3   4
HETATM    4  C   UNL     1     -10.623  15.739  69.142  1.00  0.00    -0.242 C  
HETATM    5  C   UNL     1     -10.787  16.915  68.159  1.00  0.00    -0.351 C  
BRANCH   4   6
HETATM    6  C   UNL     1     -11.296  14.476  68.531  1.00  0.00    -0.286 C  
BRANCH   6   7
HETATM    7  O   UNL     1     -10.304  13.519  68.114  1.00  0.00    -0.233 OA 
BRANCH   7   8
HETATM    8  C   UNL     1     -10.264  13.223  66.789  1.00  0.00    -0.254 C  
HETATM    9  H   UNL     1     -12.103  14.143  66.756  1.00  0.00     0.000 HD 
HETATM   10  O   UNL     1      -9.360  12.621  66.227  1.00  0.00    -0.228 OA 
HETATM   11  N   UNL     1     -11.379  13.712  66.181  1.00  0.00    -0.307 N  
BRANCH  11  12
HETATM   12  C   UNL     1     -11.577  13.644  64.743  1.00  0.00    -0.355 C  
HETATM   13  C   UNL     1     -12.205  14.928  64.219  1.00  0.00    -0.365 C  
HETATM   14  C   UNL     1     -12.432  12.433  64.372  1.00  0.00    -0.520 C  
ENDBRANCH  11  12
ENDBRANCH   7   8
ENDBRANCH   6   7
ENDBRANCH   4   6
BRANCH   4  15
HETATM   15  C   UNL     1      -9.110  15.472  69.346  1.00  0.00    -0.280 C  
BRANCH  15  16
HETATM   16  O   UNL     1      -8.344  16.601  68.891  1.00  0.00    -0.238 OA 
BRANCH  16  17
HETATM   17  C   UNL     1      -7.137  16.330  68.343  1.00  0.00    -0.136 C  
HETATM   18  O   UNL     1      -6.056  16.767  68.699  1.00  0.00    -0.139 OA 
HETATM   19  H1  UNL     1      -6.380  15.296  66.874  1.00  0.00     0.000 HD 
HETATM   20  N   UNL     1      -7.290  15.500  67.286  1.00  0.00    -0.209 N  
HETATM   21  H2  UNL     1      -8.182  15.135  66.952  1.00  0.00     0.000 HD 
ENDBRANCH  16  17
ENDBRANCH  15  16
ENDBRANCH   4  15
ENDBRANCH   3   4
ENDBRANCH   2   3
TORSDOF 9
ENDMDL
MODEL      112
REMARK 921   NORMALIZED FREE ENERGY PREDICTED BY IDOCK:   -3.45 KCAL/MOL
REMARK 922        TOTAL FREE ENERGY PREDICTED BY IDOCK:   -6.22 KCAL/MOL
REMARK 923 INTER-LIGAND FREE ENERGY PREDICTED BY IDOCK:   -5.91 KCAL/MOL
REMARK 924 INTRA-LIGAND FREE ENERGY PREDICTED BY IDOCK:   -0.31 KCAL/MOL
REMARK 927      BINDING AFFINITY PREDICTED BY RF-SCORE:    0.00 PKD
ROOT
HETATM    1  C   UNL     1     -10.308   8.523  66.892  1.00  0.00    -0.367 C  
HETATM    2  C   UNL     1     -10.694   9.965  67.197  1.00  0.00    -0.276 C  
ENDROOT
BRANCH   2   3
HETATM    3  C   UNL     1     -10.462  10.881  65.988  1.00  0.00    -0.287 C  
BRANCH   3   4
HETATM    4  C   UNL     1     -10.906  12.367  66.168  1.00  0.00    -0.308 C  
HETATM    5  C   UNL     1     -11.797  12.808  64.990  1.00  0.00    -0.423 C  
BRANCH   4   6
HETATM    6  C   UNL     1      -9.621  13.245  66.182  1.00  0.00    -0.200 C  
BRANCH   6   7
HETATM    7  O   UNL     1      -9.904  14.574  65.703  1.00  0.00    -0.327 OA 
BRANCH   7   8
HETATM    8  C   UNL     1      -9.373  15.602  66.413  1.00  0.00    -0.300 C  
HETATM    9  H   UNL     1     -10.555  16.760  65.193  1.00  0.00     0.000 HD 
HETATM   10  O   UNL     1      -8.542  15.491  67.304  1.00  0.00    -0.171 OA 
HETATM   11  N   UNL     1      -9.918  16.775  65.989  1.00  0.00    -0.324 N  
BRANCH  11  12
HETATM   12  C   UNL     1      -9.624  18.047  66.627  1.00  0.00    -0.315 C  
HETATM   13  C   UNL     1     -10.484  19.159  66.041  1.00  0.00    -0.546 C  
HETATM   14  C   UNL     1      -8.140  18.387  66.499  1.00  0.00    -0.291 C  
ENDBRANCH  11  12
ENDBRANCH   7   8
ENDBRANCH   6   7
ENDBRANCH   4   6
BRANCH   4  15
HETATM   15  C   UNL     1     -11.691  12.577  67.488  1.00  0.00    -0.374 C  
BRANCH  15  16
HETATM   16  O   UNL     1     -12.135  13.941  67.588  1.00  0.00    -0.377 OA 
BRANCH  16  17
HETATM   17  C   UNL     1     -11.948  14.550  68.780  1.00  0.00    -0.280 C  
HETATM   18  O   UNL     1     -12.111  15.732  69.033  1.00  0.00    -0.349 OA 
HETATM   19  H1  UNL     1     -11.368  14.111  70.589  1.00  0.00     0.000 HD 
HETATM   20  N   UNL     1     -11.509  13.651  69.690  1.00  0.00    -0.395 N  
HETATM   21  H2  UNL     1     -11.343  12.662  69.504  1.00  0.00     0.000 HD 
ENDBRANCH  16  17
ENDBRANCH  15  16
ENDBRANCH   4  15
ENDBRANCH   3   4
ENDBRANCH   2   3
TORSDOF 9
ENDMDL
MODEL      113
REMARK 921   NORMALIZED FREE ENERGY PREDICTED BY IDOCK:   -3.44 KCAL/MOL
REMARK 922        TOTAL FREE ENERGY PREDICTED BY IDOCK:   -6.19 KCAL/MOL
REMARK 923 INTER-LIGAND FREE ENERGY PREDICTED BY IDOCK:   -5.56 KCAL/MOL
REMARK 924 INTRA-LIGAND FREE ENERGY PREDICTED BY IDOCK:   -0.63 KCAL/MOL
REMARK 927      BINDING AFFINITY PREDICTED BY RF-SCORE:    0.00 PKD
ROOT
HETATM    1  C   UNL     1     -11.352  16.032  71.061  1.00  0.00    -0.423 C  
HETATM    2  C   UNL     1     -11.359  16.040  69.538  1.00  0.00    -0.344 C  
ENDROOT
BRANCH   2   3
HETATM    3  C   UNL     1     -10.404  17.099  68.971  1.00  0.00    -0.331 C  
BRANCH   3   4
HETATM    4  C   UNL     1      -9.820  16.798  67.555  1.00  0.00    -0.255 C  
HETATM    5  C   UNL     1     -10.510  17.677  66.493  1.00  0.00    -0.283 C  
BRANCH   4   6
HETATM    6  C   UNL     1     -10.108  15.303  67.235  1.00  0.00    -0.236 C  
BRANCH   6   7
HETATM    7  O   UNL     1     -11.191  15.181  66.293  1.00  0.00    -0.337 OA 
BRANCH   7   8
HETATM    8  C   UNL     1     -11.796  13.968  66.216  1.00  0.00    -0.411 C  
HETATM    9  H   UNL     1     -10.185  13.343  67.330  1.00  0.00     0.000 HD 
HETATM   10  O   UNL     1     -12.836  13.734  65.616  1.00  0.00    -0.521 OA 
HETATM   11  N   UNL     1     -11.073  13.055  66.921  1.00  0.00    -0.270 N  
BRANCH  11  12
HETATM   12  C   UNL     1     -11.520  11.686  67.112  1.00  0.00    -0.271 C  
HETATM   13  C   UNL     1     -11.891  11.433  68.567  1.00  0.00    -0.364 C  
HETATM   14  C   UNL     1     -10.450  10.698  66.647  1.00  0.00    -0.296 C  
ENDBRANCH  11  12
ENDBRANCH   7   8
ENDBRANCH   6   7
ENDBRANCH   4   6
BRANCH   4  15
HETATM   15  C   UNL     1      -8.292  17.057  67.496  1.00  0.00    -0.188 C  
BRANCH  15  16
HETATM   16  O   UNL     1      -7.823  17.537  68.767  1.00  0.00    -0.267 OA 
BRANCH  16  17
HETATM   17  C   UNL     1      -6.867  18.492  68.735  1.00  0.00    -0.271 C  
HETATM   18  O   UNL     1      -5.723  18.371  68.329  1.00  0.00    -0.171 OA 
HETATM   19  H1  UNL     1      -6.628  20.361  69.237  1.00  0.00     0.000 HD 
HETATM   20  N   UNL     1      -7.349  19.641  69.261  1.00  0.00    -0.326 N  
HETATM   21  H2  UNL     1      -8.292  19.767  69.628  1.00  0.00     0.000 HD 
ENDBRANCH  16  17
ENDBRANCH  15  16
ENDBRANCH   4  15
ENDBRANCH   3   4
ENDBRANCH   2   3
TORSDOF 9
ENDMDL
MODEL      114
REMARK 921   NORMALIZED FREE ENERGY PREDICTED BY IDOCK:   -3.42 KCAL/MOL
REMARK 922        TOTAL FREE ENERGY PREDICTED BY IDOCK:   -6.16 KCAL/MOL
REMARK 923 INTER-LIGAND FREE ENERGY PREDICTED BY IDOCK:   -5.52 KCAL/MOL
REMARK 924 INTRA-LIGAND FREE ENERGY PREDICTED BY IDOCK:   -0.64 KCAL/MOL
REMARK 927      BINDING AFFINITY PREDICTED BY RF-SCORE:    0.00 PKD
ROOT
HETATM    1  C   UNL     1     -11.377  15.913  68.682  1.00  0.00    -0.376 C  
HETATM    2  C   UNL     1     -12.253  14.695  68.948  1.00  0.00    -0.174 C  
ENDROOT
BRANCH   2   3
HETATM    3  C   UNL     1     -11.444  13.533  69.539  1.00  0.00    -0.318 C  
BRANCH   3   4
HETATM    4  C   UNL     1     -11.260  12.293  68.609  1.00  0.00    -0.305 C  
HETATM    5  C   UNL     1     -11.906  12.554  67.233  1.00  0.00    -0.381 C  
BRANCH   4   6
HETATM    6  C   UNL     1     -11.979  11.088  69.281  1.00  0.00    -0.339 C  
BRANCH   6   7
HETATM    7  O   UNL     1     -12.259  11.367  70.666  1.00  0.00    -0.358 OA 
BRANCH   7   8
HETATM    8  C   UNL     1     -12.575  10.304  71.449  1.00  0.00    -0.434 C  
HETATM    9  H   UNL     1     -10.832   9.516  70.695  1.00  0.00     0.000 HD 
HETATM   10  O   UNL     1     -13.578  10.210  72.143  1.00  0.00    -0.368 OA 
HETATM   11  N   UNL     1     -11.595   9.363  71.354  1.00  0.00    -0.352 N  
BRANCH  11  12
HETATM   12  C   UNL     1     -11.596   8.152  72.156  1.00  0.00    -0.357 C  
HETATM   13  C   UNL     1     -10.203   7.856  72.695  1.00  0.00    -0.361 C  
HETATM   14  C   UNL     1     -12.125   6.968  71.346  1.00  0.00    -0.396 C  
ENDBRANCH  11  12
ENDBRANCH   7   8
ENDBRANCH   6   7
ENDBRANCH   4   6
BRANCH   4  15
HETATM   15  C   UNL     1      -9.763  11.950  68.396  1.00  0.00    -0.201 C  
BRANCH  15  16
HETATM   16  O   UNL     1      -9.071  13.084  67.843  1.00  0.00    -0.190 OA 
BRANCH  16  17
HETATM   17  C   UNL     1      -7.720  13.031  67.858  1.00  0.00    -0.145 C  
HETATM   18  O   UNL     1      -6.974  13.570  68.659  1.00  0.00    -0.089 OA 
HETATM   19  H1  UNL     1      -6.260  12.261  66.820  1.00  0.00     0.000 HD 
HETATM   20  N   UNL     1      -7.278  12.300  66.809  1.00  0.00    -0.380 N  
HETATM   21  H2  UNL     1      -7.875  11.855  66.112  1.00  0.00     0.000 HD 
ENDBRANCH  16  17
ENDBRANCH  15  16
ENDBRANCH   4  15
ENDBRANCH   3   4
ENDBRANCH   2   3
TORSDOF 9
ENDMDL
MODEL      115
REMARK 921   NORMALIZED FREE ENERGY PREDICTED BY IDOCK:   -3.41 KCAL/MOL
REMARK 922        TOTAL FREE ENERGY PREDICTED BY IDOCK:   -6.15 KCAL/MOL
REMARK 923 INTER-LIGAND FREE ENERGY PREDICTED BY IDOCK:   -5.61 KCAL/MOL
REMARK 924 INTRA-LIGAND FREE ENERGY PREDICTED BY IDOCK:   -0.54 KCAL/MOL
REMARK 927      BINDING AFFINITY PREDICTED BY RF-SCORE:    0.00 PKD
ROOT
HETATM    1  C   UNL     1     -12.040  15.096  69.827  1.00  0.00    -0.354 C  
HETATM    2  C   UNL     1     -11.835  13.784  69.082  1.00  0.00    -0.398 C  
ENDROOT
BRANCH   2   3
HETATM    3  C   UNL     1     -11.582  14.013  67.586  1.00  0.00    -0.385 C  
BRANCH   3   4
HETATM    4  C   UNL     1     -10.201  13.524  67.049  1.00  0.00    -0.249 C  
HETATM    5  C   UNL     1      -9.608  12.455  67.990  1.00  0.00    -0.211 C  
BRANCH   4   6
HETATM    6  C   UNL     1      -9.245  14.751  67.017  1.00  0.00    -0.233 C  
BRANCH   6   7
HETATM    7  O   UNL     1      -8.702  15.011  68.325  1.00  0.00    -0.156 OA 
BRANCH   7   8
HETATM    8  C   UNL     1      -7.359  15.194  68.401  1.00  0.00    -0.115 C  
HETATM    9  H   UNL     1      -7.725  15.396  70.414  1.00  0.00     0.000 HD 
HETATM   10  O   UNL     1      -6.592  15.202  67.449  1.00  0.00    -0.243 OA 
HETATM   11  N   UNL     1      -6.995  15.355  69.703  1.00  0.00    -0.188 N  
BRANCH  11  12
HETATM   12  C   UNL     1      -5.607  15.469  70.117  1.00  0.00    -0.142 C  
HETATM   13  C   UNL     1      -5.294  14.494  71.244  1.00  0.00    -0.156 C  
HETATM   14  C   UNL     1      -5.286  16.903  70.538  1.00  0.00    -0.228 C  
ENDBRANCH  11  12
ENDBRANCH   7   8
ENDBRANCH   6   7
ENDBRANCH   4   6
BRANCH   4  15
HETATM   15  C   UNL     1     -10.318  12.920  65.626  1.00  0.00    -0.282 C  
BRANCH  15  16
HETATM   16  O   UNL     1     -11.339  13.606  64.881  1.00  0.00    -0.322 OA 
BRANCH  16  17
HETATM   17  C   UNL     1     -11.809  12.976  63.780  1.00  0.00    -0.502 C  
HETATM   18  O   UNL     1     -11.658  11.802  63.488  1.00  0.00    -0.434 OA 
HETATM   19  H1  UNL     1     -12.823  13.382  62.165  1.00  0.00     0.000 HD 
HETATM   20  N   UNL     1     -12.469  13.858  62.995  1.00  0.00    -1.009 N  
HETATM   21  H2  UNL     1     -12.594  14.848  63.202  1.00  0.00     0.000 HD 
ENDBRANCH  16  17
ENDBRANCH  15  16
ENDBRANCH   4  15
ENDBRANCH   3   4
ENDBRANCH   2   3
TORSDOF 9
ENDMDL
MODEL      116
REMARK 921   NORMALIZED FREE ENERGY PREDICTED BY IDOCK:   -3.41 KCAL/MOL
REMARK 922        TOTAL FREE ENERGY PREDICTED BY IDOCK:   -6.15 KCAL/MOL
REMARK 923 INTER-LIGAND FREE ENERGY PREDICTED BY IDOCK:   -5.76 KCAL/MOL
REMARK 924 INTRA-LIGAND FREE ENERGY PREDICTED BY IDOCK:   -0.39 KCAL/MOL
REMARK 927      BINDING AFFINITY PREDICTED BY RF-SCORE:    0.00 PKD
ROOT
HETATM    1  C   UNL     1      -8.232  16.566  66.113  1.00  0.00    -0.279 C  
HETATM    2  C   UNL     1      -9.336  15.521  66.031  1.00  0.00    -0.379 C  
ENDROOT
BRANCH   2   3
HETATM    3  C   UNL     1      -9.728  14.998  67.420  1.00  0.00    -0.216 C  
BRANCH   3   4
HETATM    4  C   UNL     1     -10.287  13.542  67.464  1.00  0.00    -0.237 C  
HETATM    5  C   UNL     1     -10.417  12.974  66.036  1.00  0.00    -0.289 C  
BRANCH   4   6
HETATM    6  C   UNL     1     -11.700  13.598  68.113  1.00  0.00    -0.357 C  
BRANCH   6   7
HETATM    7  O   UNL     1     -12.033  14.946  68.497  1.00  0.00    -0.309 OA 
BRANCH   7   8
HETATM    8  C   UNL     1     -11.973  15.233  69.822  1.00  0.00    -0.347 C  
HETATM    9  H   UNL     1     -13.529  13.894  69.954  1.00  0.00     0.000 HD 
HETATM   10  O   UNL     1     -11.205  16.032  70.338  1.00  0.00    -0.342 OA 
HETATM   11  N   UNL     1     -12.892  14.483  70.491  1.00  0.00    -0.342 N  
BRANCH  11  12
HETATM   12  C   UNL     1     -13.001  14.492  71.940  1.00  0.00    -0.341 C  
HETATM   13  C   UNL     1     -13.533  13.160  72.452  1.00  0.00    -0.643 C  
HETATM   14  C   UNL     1     -13.887  15.645  72.409  1.00  0.00    -0.616 C  
ENDBRANCH  11  12
ENDBRANCH   7   8
ENDBRANCH   6   7
ENDBRANCH   4   6
BRANCH   4  15
HETATM   15  C   UNL     1      -9.374  12.599  68.290  1.00  0.00    -0.195 C  
BRANCH  15  16
HETATM   16  O   UNL     1      -9.669  11.227  67.977  1.00  0.00    -0.169 OA 
BRANCH  16  17
HETATM   17  C   UNL     1      -9.455  10.325  68.962  1.00  0.00    -0.200 C  
HETATM   18  O   UNL     1     -10.051   9.276  69.137  1.00  0.00    -0.186 OA 
HETATM   19  H1  UNL     1      -8.312  10.085  70.523  1.00  0.00     0.000 HD 
HETATM   20  N   UNL     1      -8.473  10.766  69.781  1.00  0.00    -0.318 N  
HETATM   21  H2  UNL     1      -7.971  11.646  69.673  1.00  0.00     0.000 HD 
ENDBRANCH  16  17
ENDBRANCH  15  16
ENDBRANCH   4  15
ENDBRANCH   3   4
ENDBRANCH   2   3
TORSDOF 9
ENDMDL
MODEL      117
REMARK 921   NORMALIZED FREE ENERGY PREDICTED BY IDOCK:   -3.38 KCAL/MOL
REMARK 922        TOTAL FREE ENERGY PREDICTED BY IDOCK:   -6.11 KCAL/MOL
REMARK 923 INTER-LIGAND FREE ENERGY PREDICTED BY IDOCK:   -5.35 KCAL/MOL
REMARK 924 INTRA-LIGAND FREE ENERGY PREDICTED BY IDOCK:   -0.77 KCAL/MOL
REMARK 927      BINDING AFFINITY PREDICTED BY RF-SCORE:    0.00 PKD
ROOT
HETATM    1  C   UNL     1      -8.284  15.677  67.754  1.00  0.00    -0.155 C  
HETATM    2  C   UNL     1      -8.666  14.334  67.145  1.00  0.00    -0.243 C  
ENDROOT
BRANCH   2   3
HETATM    3  C   UNL     1     -10.189  14.173  67.036  1.00  0.00    -0.260 C  
BRANCH   3   4
HETATM    4  C   UNL     1     -10.689  12.781  66.536  1.00  0.00    -0.277 C  
HETATM    5  C   UNL     1     -11.172  12.879  65.074  1.00  0.00    -0.324 C  
BRANCH   4   6
HETATM    6  C   UNL     1     -11.888  12.360  67.434  1.00  0.00    -0.289 C  
BRANCH   6   7
HETATM    7  O   UNL     1     -12.092  13.312  68.495  1.00  0.00    -0.341 OA 
BRANCH   7   8
HETATM    8  C   UNL     1     -12.031  12.832  69.763  1.00  0.00    -0.292 C  
HETATM    9  H   UNL     1     -12.152  11.000  68.836  1.00  0.00     0.000 HD 
HETATM   10  O   UNL     1     -11.970  13.515  70.776  1.00  0.00    -0.305 OA 
HETATM   11  N   UNL     1     -12.033  11.471  69.733  1.00  0.00    -0.334 N  
BRANCH  11  12
HETATM   12  C   UNL     1     -11.874  10.664  70.931  1.00  0.00    -0.331 C  
HETATM   13  C   UNL     1     -10.768   9.633  70.748  1.00  0.00    -0.401 C  
HETATM   14  C   UNL     1     -13.191   9.983  71.303  1.00  0.00    -0.469 C  
ENDBRANCH  11  12
ENDBRANCH   7   8
ENDBRANCH   6   7
ENDBRANCH   4   6
BRANCH   4  15
HETATM   15  C   UNL     1      -9.576  11.706  66.618  1.00  0.00    -0.204 C  
BRANCH  15  16
HETATM   16  O   UNL     1     -10.085  10.515  67.245  1.00  0.00    -0.185 OA 
BRANCH  16  17
HETATM   17  C   UNL     1      -9.970   9.367  66.540  1.00  0.00    -0.269 C  
HETATM   18  O   UNL     1      -9.353   9.203  65.501  1.00  0.00    -0.236 OA 
HETATM   19  H1  UNL     1     -10.596   7.522  66.609  1.00  0.00     0.000 HD 
HETATM   20  N   UNL     1     -10.683   8.387  67.141  1.00  0.00    -0.429 N  
HETATM   21  H2  UNL     1     -11.225   8.498  67.998  1.00  0.00     0.000 HD 
ENDBRANCH  16  17
ENDBRANCH  15  16
ENDBRANCH   4  15
ENDBRANCH   3   4
ENDBRANCH   2   3
TORSDOF 9
ENDMDL
MODEL      118
REMARK 921   NORMALIZED FREE ENERGY PREDICTED BY IDOCK:   -3.38 KCAL/MOL
REMARK 922        TOTAL FREE ENERGY PREDICTED BY IDOCK:   -6.11 KCAL/MOL
REMARK 923 INTER-LIGAND FREE ENERGY PREDICTED BY IDOCK:   -5.46 KCAL/MOL
REMARK 924 INTRA-LIGAND FREE ENERGY PREDICTED BY IDOCK:   -0.65 KCAL/MOL
REMARK 927      BINDING AFFINITY PREDICTED BY RF-SCORE:    0.00 PKD
ROOT
HETATM    1  C   UNL     1     -11.293   6.351  69.341  1.00  0.00    -0.443 C  
HETATM    2  C   UNL     1     -10.478   5.603  70.388  1.00  0.00    -0.355 C  
ENDROOT
BRANCH   2   3
HETATM    3  C   UNL     1      -9.842   6.561  71.404  1.00  0.00    -0.191 C  
BRANCH   3   4
HETATM    4  C   UNL     1     -10.576   6.678  72.777  1.00  0.00    -0.260 C  
HETATM    5  C   UNL     1     -11.279   5.350  73.124  1.00  0.00    -0.355 C  
BRANCH   4   6
HETATM    6  C   UNL     1     -11.650   7.795  72.645  1.00  0.00    -0.344 C  
BRANCH   6   7
HETATM    7  O   UNL     1     -11.104   8.954  71.985  1.00  0.00    -0.356 OA 
BRANCH   7   8
HETATM    8  C   UNL     1     -11.987   9.758  71.339  1.00  0.00    -0.411 C  
HETATM    9  H   UNL     1     -10.294  10.560  70.492  1.00  0.00     0.000 HD 
HETATM   10  O   UNL     1     -13.201   9.738  71.487  1.00  0.00    -0.365 OA 
HETATM   11  N   UNL     1     -11.313  10.581  70.489  1.00  0.00    -0.325 N  
BRANCH  11  12
HETATM   12  C   UNL     1     -11.992  11.490  69.581  1.00  0.00    -0.339 C  
HETATM   13  C   UNL     1     -11.406  11.394  68.179  1.00  0.00    -0.374 C  
HETATM   14  C   UNL     1     -11.922  12.926  70.100  1.00  0.00    -0.373 C  
ENDBRANCH  11  12
ENDBRANCH   7   8
ENDBRANCH   6   7
ENDBRANCH   4   6
BRANCH   4  15
HETATM   15  C   UNL     1      -9.596   7.033  73.924  1.00  0.00    -0.263 C  
BRANCH  15  16
HETATM   16  O   UNL     1      -8.246   6.728  73.533  1.00  0.00    -0.111 OA 
BRANCH  16  17
HETATM   17  C   UNL     1      -7.341   7.725  73.661  1.00  0.00    -0.123 C  
HETATM   18  O   UNL     1      -7.543   8.847  74.095  1.00  0.00    -0.416 OA 
HETATM   19  H1  UNL     1      -5.457   8.067  73.293  1.00  0.00     0.000 HD 
HETATM   20  N   UNL     1      -6.139   7.315  73.197  1.00  0.00    -0.056 N  
HETATM   21  H2  UNL     1      -5.944   6.392  72.809  1.00  0.00     0.000 HD 
ENDBRANCH  16  17
ENDBRANCH  15  16
ENDBRANCH   4  15
ENDBRANCH   3   4
ENDBRANCH   2   3
TORSDOF 9
ENDMDL
MODEL      119
REMARK 921   NORMALIZED FREE ENERGY PREDICTED BY IDOCK:   -3.38 KCAL/MOL
REMARK 922        TOTAL FREE ENERGY PREDICTED BY IDOCK:   -6.10 KCAL/MOL
REMARK 923 INTER-LIGAND FREE ENERGY PREDICTED BY IDOCK:   -5.41 KCAL/MOL
REMARK 924 INTRA-LIGAND FREE ENERGY PREDICTED BY IDOCK:   -0.69 KCAL/MOL
REMARK 927      BINDING AFFINITY PREDICTED BY RF-SCORE:    0.00 PKD
ROOT
HETATM    1  C   UNL     1     -10.872   5.123  73.739  1.00  0.00    -0.345 C  
HETATM    2  C   UNL     1     -10.703   5.216  72.229  1.00  0.00    -0.266 C  
ENDROOT
BRANCH   2   3
HETATM    3  C   UNL     1      -9.803   6.393  71.829  1.00  0.00    -0.178 C  
BRANCH   3   4
HETATM    4  C   UNL     1     -10.509   7.559  71.069  1.00  0.00    -0.222 C  
HETATM    5  C   UNL     1     -11.534   7.000  70.062  1.00  0.00    -0.262 C  
BRANCH   4   6
HETATM    6  C   UNL     1      -9.415   8.345  70.290  1.00  0.00    -0.164 C  
BRANCH   6   7
HETATM    7  O   UNL     1      -9.930   8.830  69.035  1.00  0.00    -0.181 OA 
BRANCH   7   8
HETATM    8  C   UNL     1      -9.758  10.152  68.778  1.00  0.00    -0.172 C  
HETATM    9  H   UNL     1     -11.579   9.977  67.838  1.00  0.00     0.000 HD 
HETATM   10  O   UNL     1      -8.782  10.814  69.101  1.00  0.00    -0.157 OA 
HETATM   11  N   UNL     1     -10.847  10.631  68.116  1.00  0.00    -0.224 N  
BRANCH  11  12
HETATM   12  C   UNL     1     -11.006  12.038  67.790  1.00  0.00    -0.232 C  
HETATM   13  C   UNL     1     -11.847  12.747  68.844  1.00  0.00    -0.351 C  
HETATM   14  C   UNL     1     -11.624  12.205  66.403  1.00  0.00    -0.429 C  
ENDBRANCH  11  12
ENDBRANCH   7   8
ENDBRANCH   6   7
ENDBRANCH   4   6
BRANCH   4  15
HETATM   15  C   UNL     1     -11.243   8.518  72.041  1.00  0.00    -0.348 C  
BRANCH  15  16
HETATM   16  O   UNL     1     -12.248   9.265  71.333  1.00  0.00    -0.311 OA 
BRANCH  16  17
HETATM   17  C   UNL     1     -13.338   9.633  72.043  1.00  0.00    -0.457 C  
HETATM   18  O   UNL     1     -14.178   8.896  72.531  1.00  0.00    -0.527 OA 
HETATM   19  H1  UNL     1     -14.222  11.259  72.657  1.00  0.00     0.000 HD 
HETATM   20  N   UNL     1     -13.400  10.982  72.121  1.00  0.00    -0.585 N  
HETATM   21  H2  UNL     1     -12.725  11.625  71.707  1.00  0.00     0.000 HD 
ENDBRANCH  16  17
ENDBRANCH  15  16
ENDBRANCH   4  15
ENDBRANCH   3   4
ENDBRANCH   2   3
TORSDOF 9
ENDMDL
MODEL      120
REMARK 921   NORMALIZED FREE ENERGY PREDICTED BY IDOCK:   -3.37 KCAL/MOL
REMARK 922        TOTAL FREE ENERGY PREDICTED BY IDOCK:   -6.10 KCAL/MOL
REMARK 923 INTER-LIGAND FREE ENERGY PREDICTED BY IDOCK:   -5.62 KCAL/MOL
REMARK 924 INTRA-LIGAND FREE ENERGY PREDICTED BY IDOCK:   -0.47 KCAL/MOL
REMARK 927      BINDING AFFINITY PREDICTED BY RF-SCORE:    0.00 PKD
ROOT
HETATM    1  C   UNL     1     -12.093  14.044  64.023  1.00  0.00    -0.413 C  
HETATM    2  C   UNL     1     -12.528  13.425  65.344  1.00  0.00    -0.543 C  
ENDROOT
BRANCH   2   3
HETATM    3  C   UNL     1     -11.558  12.329  65.806  1.00  0.00    -0.443 C  
BRANCH   3   4
HETATM    4  C   UNL     1     -10.747  12.644  67.102  1.00  0.00    -0.264 C  
HETATM    5  C   UNL     1      -9.831  13.865  66.879  1.00  0.00    -0.268 C  
BRANCH   4   6
HETATM    6  C   UNL     1      -9.862  11.403  67.418  1.00  0.00    -0.182 C  
BRANCH   6   7
HETATM    7  O   UNL     1     -10.340  10.241  66.713  1.00  0.00    -0.221 OA 
BRANCH   7   8
HETATM    8  C   UNL     1      -9.739   9.061  67.010  1.00  0.00    -0.189 C  
HETATM    9  H   UNL     1     -11.617   8.523  67.652  1.00  0.00     0.000 HD 
HETATM   10  O   UNL     1      -8.552   8.812  66.850  1.00  0.00    -0.113 OA 
HETATM   11  N   UNL     1     -10.665   8.191  67.499  1.00  0.00    -0.213 N  
BRANCH  11  12
HETATM   12  C   UNL     1     -10.347   6.808  67.812  1.00  0.00    -0.198 C  
HETATM   13  C   UNL     1     -10.518   5.921  66.587  1.00  0.00    -0.310 C  
HETATM   14  C   UNL     1     -11.209   6.304  68.969  1.00  0.00    -0.415 C  
ENDBRANCH  11  12
ENDBRANCH   7   8
ENDBRANCH   6   7
ENDBRANCH   4   6
BRANCH   4  15
HETATM   15  C   UNL     1     -11.678  12.937  68.306  1.00  0.00    -0.350 C  
BRANCH  15  16
HETATM   16  O   UNL     1     -11.790  14.356  68.510  1.00  0.00    -0.326 OA 
BRANCH  16  17
HETATM   17  C   UNL     1     -11.790  14.783  69.793  1.00  0.00    -0.316 C  
HETATM   18  O   UNL     1     -11.785  15.940  70.180  1.00  0.00    -0.332 OA 
HETATM   19  H1  UNL     1     -11.764  14.043  71.596  1.00  0.00     0.000 HD 
HETATM   20  N   UNL     1     -11.764  13.721  70.629  1.00  0.00    -0.527 N  
HETATM   21  H2  UNL     1     -11.747  12.744  70.335  1.00  0.00     0.000 HD 
ENDBRANCH  16  17
ENDBRANCH  15  16
ENDBRANCH   4  15
ENDBRANCH   3   4
ENDBRANCH   2   3
TORSDOF 9
ENDMDL
MODEL      121
REMARK 921   NORMALIZED FREE ENERGY PREDICTED BY IDOCK:   -3.37 KCAL/MOL
REMARK 922        TOTAL FREE ENERGY PREDICTED BY IDOCK:   -6.09 KCAL/MOL
REMARK 923 INTER-LIGAND FREE ENERGY PREDICTED BY IDOCK:   -5.37 KCAL/MOL
REMARK 924 INTRA-LIGAND FREE ENERGY PREDICTED BY IDOCK:   -0.71 KCAL/MOL
REMARK 927      BINDING AFFINITY PREDICTED BY RF-SCORE:    0.00 PKD
ROOT
HETATM    1  C   UNL     1      -9.113   8.851  66.037  1.00  0.00    -0.265 C  
HETATM    2  C   UNL     1      -9.635   8.705  67.461  1.00  0.00    -0.196 C  
ENDROOT
BRANCH   2   3
HETATM    3  C   UNL     1     -10.897   9.547  67.692  1.00  0.00    -0.253 C  
BRANCH   3   4
HETATM    4  C   UNL     1     -10.833  10.552  68.885  1.00  0.00    -0.275 C  
HETATM    5  C   UNL     1     -12.158  11.331  69.002  1.00  0.00    -0.325 C  
BRANCH   4   6
HETATM    6  C   UNL     1      -9.683  11.558  68.593  1.00  0.00    -0.165 C  
BRANCH   6   7
HETATM    7  O   UNL     1     -10.206  12.797  68.076  1.00  0.00    -0.215 OA 
BRANCH   7   8
HETATM    8  C   UNL     1      -9.842  13.129  66.810  1.00  0.00    -0.251 C  
HETATM    9  H   UNL     1     -11.586  12.168  66.296  1.00  0.00     0.000 HD 
HETATM   10  O   UNL     1      -8.818  13.722  66.502  1.00  0.00    -0.129 OA 
HETATM   11  N   UNL     1     -10.801  12.712  65.938  1.00  0.00    -0.265 N  
BRANCH  11  12
HETATM   12  C   UNL     1     -10.748  13.012  64.518  1.00  0.00    -0.385 C  
HETATM   13  C   UNL     1     -11.912  13.904  64.107  1.00  0.00    -0.464 C  
HETATM   14  C   UNL     1     -10.735  11.726  63.694  1.00  0.00    -0.503 C  
ENDBRANCH  11  12
ENDBRANCH   7   8
ENDBRANCH   6   7
ENDBRANCH   4   6
BRANCH   4  15
HETATM   15  C   UNL     1     -10.562   9.831  70.231  1.00  0.00    -0.292 C  
BRANCH  15  16
HETATM   16  O   UNL     1     -11.760   9.184  70.694  1.00  0.00    -0.271 OA 
BRANCH  16  17
HETATM   17  C   UNL     1     -11.785   8.824  71.997  1.00  0.00    -0.372 C  
HETATM   18  O   UNL     1     -10.941   8.179  72.596  1.00  0.00    -0.351 OA 
HETATM   19  H1  UNL     1     -12.947   8.992  73.555  1.00  0.00     0.000 HD 
HETATM   20  N   UNL     1     -12.928   9.263  72.572  1.00  0.00    -0.397 N  
HETATM   21  H2  UNL     1     -13.661   9.787  72.093  1.00  0.00     0.000 HD 
ENDBRANCH  16  17
ENDBRANCH  15  16
ENDBRANCH   4  15
ENDBRANCH   3   4
ENDBRANCH   2   3
TORSDOF 9
ENDMDL
MODEL      122
REMARK 921   NORMALIZED FREE ENERGY PREDICTED BY IDOCK:   -3.36 KCAL/MOL
REMARK 922        TOTAL FREE ENERGY PREDICTED BY IDOCK:   -6.08 KCAL/MOL
REMARK 923 INTER-LIGAND FREE ENERGY PREDICTED BY IDOCK:   -5.67 KCAL/MOL
REMARK 924 INTRA-LIGAND FREE ENERGY PREDICTED BY IDOCK:   -0.41 KCAL/MOL
REMARK 927      BINDING AFFINITY PREDICTED BY RF-SCORE:    0.00 PKD
ROOT
HETATM    1  C   UNL     1     -10.266  20.158  68.850  1.00  0.00    -0.280 C  
HETATM    2  C   UNL     1      -9.697  18.746  68.905  1.00  0.00    -0.393 C  
ENDROOT
BRANCH   2   3
HETATM    3  C   UNL     1     -10.431  17.800  67.945  1.00  0.00    -0.401 C  
BRANCH   3   4
HETATM    4  C   UNL     1      -9.899  17.778  66.477  1.00  0.00    -0.331 C  
HETATM    5  C   UNL     1     -10.471  18.968  65.681  1.00  0.00    -0.231 C  
BRANCH   4   6
HETATM    6  C   UNL     1     -10.385  16.454  65.820  1.00  0.00    -0.369 C  
BRANCH   6   7
HETATM    7  O   UNL     1      -9.295  15.524  65.677  1.00  0.00    -0.302 OA 
BRANCH   7   8
HETATM    8  C   UNL     1      -9.315  14.433  66.486  1.00  0.00    -0.278 C  
HETATM    9  H   UNL     1     -10.608  13.686  65.073  1.00  0.00     0.000 HD 
HETATM   10  O   UNL     1      -8.713  14.328  67.545  1.00  0.00    -0.177 OA 
HETATM   11  N   UNL     1     -10.099  13.470  65.929  1.00  0.00    -0.300 N  
BRANCH  11  12
HETATM   12  C   UNL     1     -10.237  12.145  66.510  1.00  0.00    -0.206 C  
HETATM   13  C   UNL     1     -10.404  11.091  65.424  1.00  0.00    -0.330 C  
HETATM   14  C   UNL     1     -11.411  12.104  67.488  1.00  0.00    -0.392 C  
ENDBRANCH  11  12
ENDBRANCH   7   8
ENDBRANCH   6   7
ENDBRANCH   4   6
BRANCH   4  15
HETATM   15  C   UNL     1      -8.352  17.846  66.425  1.00  0.00    -0.242 C  
BRANCH  15  16
HETATM   16  O   UNL     1      -7.933  18.868  65.505  1.00  0.00    -0.367 OA 
BRANCH  16  17
HETATM   17  C   UNL     1      -7.331  19.953  66.042  1.00  0.00    -0.309 C  
HETATM   18  O   UNL     1      -7.119  20.164  67.225  1.00  0.00    -0.235 OA 
HETATM   19  H1  UNL     1      -6.552  21.647  65.469  1.00  0.00     0.000 HD 
HETATM   20  N   UNL     1      -7.006  20.829  65.063  1.00  0.00    -0.532 N  
HETATM   21  H2  UNL     1      -7.188  20.691  64.069  1.00  0.00     0.000 HD 
ENDBRANCH  16  17
ENDBRANCH  15  16
ENDBRANCH   4  15
ENDBRANCH   3   4
ENDBRANCH   2   3
TORSDOF 9
ENDMDL
MODEL      123
REMARK 921   NORMALIZED FREE ENERGY PREDICTED BY IDOCK:   -3.36 KCAL/MOL
REMARK 922        TOTAL FREE ENERGY PREDICTED BY IDOCK:   -6.07 KCAL/MOL
REMARK 923 INTER-LIGAND FREE ENERGY PREDICTED BY IDOCK:   -5.33 KCAL/MOL
REMARK 924 INTRA-LIGAND FREE ENERGY PREDICTED BY IDOCK:   -0.74 KCAL/MOL
REMARK 927      BINDING AFFINITY PREDICTED BY RF-SCORE:    0.00 PKD
ROOT
HETATM    1  C   UNL     1     -11.844  12.474  69.272  1.00  0.00    -0.360 C  
HETATM    2  C   UNL     1     -11.438  13.940  69.184  1.00  0.00    -0.345 C  
ENDROOT
BRANCH   2   3
HETATM    3  C   UNL     1     -11.745  14.532  67.802  1.00  0.00    -0.403 C  
BRANCH   3   4
HETATM    4  C   UNL     1     -10.515  15.073  67.008  1.00  0.00    -0.278 C  
HETATM    5  C   UNL     1     -10.500  16.614  67.027  1.00  0.00    -0.283 C  
BRANCH   4   6
HETATM    6  C   UNL     1     -10.655  14.590  65.535  1.00  0.00    -0.351 C  
BRANCH   6   7
HETATM    7  O   UNL     1     -12.003  14.162  65.263  1.00  0.00    -0.351 OA 
BRANCH   7   8
HETATM    8  C   UNL     1     -12.147  12.957  64.654  1.00  0.00    -0.418 C  
HETATM    9  H   UNL     1     -10.112  13.097  64.392  1.00  0.00     0.000 HD 
HETATM   10  O   UNL     1     -13.207  12.370  64.490  1.00  0.00    -0.834 OA 
HETATM   11  N   UNL     1     -10.926  12.496  64.265  1.00  0.00    -0.333 N  
BRANCH  11  12
HETATM   12  C   UNL     1     -10.740  11.182  63.674  1.00  0.00    -0.308 C  
HETATM   13  C   UNL     1     -10.403  10.150  64.741  1.00  0.00     0.051 C  
HETATM   14  C   UNL     1      -9.656  11.222  62.598  1.00  0.00    -0.239 C  
ENDBRANCH  11  12
ENDBRANCH   7   8
ENDBRANCH   6   7
ENDBRANCH   4   6
BRANCH   4  15
HETATM   15  C   UNL     1      -9.177  14.557  67.598  1.00  0.00    -0.195 C  
BRANCH  15  16
HETATM   16  O   UNL     1      -8.782  13.342  66.938  1.00  0.00    -0.207 OA 
BRANCH  16  17
HETATM   17  C   UNL     1      -7.917  12.546  67.606  1.00  0.00    -0.170 C  
HETATM   18  O   UNL     1      -8.187  11.539  68.240  1.00  0.00    -0.137 OA 
HETATM   19  H1  UNL     1      -6.012  12.446  68.011  1.00  0.00     0.000 HD 
HETATM   20  N   UNL     1      -6.664  13.046  67.507  1.00  0.00    -0.169 N  
HETATM   21  H2  UNL     1      -6.411  13.895  67.003  1.00  0.00     0.000 HD 
ENDBRANCH  16  17
ENDBRANCH  15  16
ENDBRANCH   4  15
ENDBRANCH   3   4
ENDBRANCH   2   3
TORSDOF 9
ENDMDL
MODEL      124
REMARK 921   NORMALIZED FREE ENERGY PREDICTED BY IDOCK:   -3.35 KCAL/MOL
REMARK 922        TOTAL FREE ENERGY PREDICTED BY IDOCK:   -6.07 KCAL/MOL
REMARK 923 INTER-LIGAND FREE ENERGY PREDICTED BY IDOCK:   -5.45 KCAL/MOL
REMARK 924 INTRA-LIGAND FREE ENERGY PREDICTED BY IDOCK:   -0.61 KCAL/MOL
REMARK 927      BINDING AFFINITY PREDICTED BY RF-SCORE:    0.00 PKD
ROOT
HETATM    1  C   UNL     1     -10.321   6.832  66.772  1.00  0.00    -0.286 C  
HETATM    2  C   UNL     1     -10.292   8.324  67.078  1.00  0.00    -0.393 C  
ENDROOT
BRANCH   2   3
HETATM    3  C   UNL     1     -10.650   8.610  68.543  1.00  0.00    -0.162 C  
BRANCH   3   4
HETATM    4  C   UNL     1     -10.579  10.107  68.979  1.00  0.00    -0.245 C  
HETATM    5  C   UNL     1      -9.133  10.631  68.859  1.00  0.00    -0.181 C  
BRANCH   4   6
HETATM    6  C   UNL     1     -11.020  10.186  70.468  1.00  0.00    -0.310 C  
BRANCH   6   7
HETATM    7  O   UNL     1     -12.224   9.427  70.686  1.00  0.00    -0.216 OA 
BRANCH   7   8
HETATM    8  C   UNL     1     -12.312   8.748  71.859  1.00  0.00    -0.363 C  
HETATM    9  H   UNL     1     -10.552   7.887  71.232  1.00  0.00     0.000 HD 
HETATM   10  O   UNL     1     -13.222   8.850  72.669  1.00  0.00    -0.427 OA 
HETATM   11  N   UNL     1     -11.221   7.945  72.000  1.00  0.00    -0.269 N  
BRANCH  11  12
HETATM   12  C   UNL     1     -10.976   7.167  73.203  1.00  0.00    -0.305 C  
HETATM   13  C   UNL     1      -9.559   7.390  73.713  1.00  0.00    -0.333 C  
HETATM   14  C   UNL     1     -11.232   5.682  72.948  1.00  0.00    -0.338 C  
ENDBRANCH  11  12
ENDBRANCH   7   8
ENDBRANCH   6   7
ENDBRANCH   4   6
BRANCH   4  15
HETATM   15  C   UNL     1     -11.503  11.003  68.115  1.00  0.00    -0.302 C  
BRANCH  15  16
HETATM   16  O   UNL     1     -10.884  12.281  67.891  1.00  0.00    -0.205 OA 
BRANCH  16  17
HETATM   17  C   UNL     1     -11.603  13.370  68.246  1.00  0.00    -0.344 C  
HETATM   18  O   UNL     1     -12.138  14.170  67.497  1.00  0.00    -0.395 OA 
HETATM   19  H1  UNL     1     -12.173  14.303  69.860  1.00  0.00     0.000 HD 
HETATM   20  N   UNL     1     -11.630  13.482  69.593  1.00  0.00    -0.379 N  
HETATM   21  H2  UNL     1     -11.176  12.842  70.244  1.00  0.00     0.000 HD 
ENDBRANCH  16  17
ENDBRANCH  15  16
ENDBRANCH   4  15
ENDBRANCH   3   4
ENDBRANCH   2   3
TORSDOF 9
ENDMDL
MODEL      125
REMARK 921   NORMALIZED FREE ENERGY PREDICTED BY IDOCK:   -3.34 KCAL/MOL
REMARK 922        TOTAL FREE ENERGY PREDICTED BY IDOCK:   -6.05 KCAL/MOL
REMARK 923 INTER-LIGAND FREE ENERGY PREDICTED BY IDOCK:   -5.35 KCAL/MOL
REMARK 924 INTRA-LIGAND FREE ENERGY PREDICTED BY IDOCK:   -0.70 KCAL/MOL
REMARK 927      BINDING AFFINITY PREDICTED BY RF-SCORE:    0.00 PKD
ROOT
HETATM    1  C   UNL     1     -12.020  13.268  63.470  1.00  0.00    -0.537 C  
HETATM    2  C   UNL     1     -12.385  13.981  64.765  1.00  0.00    -0.437 C  
ENDROOT
BRANCH   2   3
HETATM    3  C   UNL     1     -12.278  13.046  65.977  1.00  0.00    -0.463 C  
BRANCH   3   4
HETATM    4  C   UNL     1     -11.151  13.389  67.001  1.00  0.00    -0.310 C  
HETATM    5  C   UNL     1     -10.583  14.795  66.723  1.00  0.00    -0.302 C  
BRANCH   4   6
HETATM    6  C   UNL     1     -10.013  12.343  66.819  1.00  0.00    -0.225 C  
BRANCH   6   7
HETATM    7  O   UNL     1     -10.477  11.210  66.060  1.00  0.00    -0.251 OA 
BRANCH   7   8
HETATM    8  C   UNL     1      -9.570  10.230  65.815  1.00  0.00    -0.224 C  
HETATM    9  H   UNL     1      -8.260  11.802  65.612  1.00  0.00     0.000 HD 
HETATM   10  O   UNL     1      -9.816   9.032  65.781  1.00  0.00    -0.262 OA 
HETATM   11  N   UNL     1      -8.341  10.785  65.627  1.00  0.00    -0.163 N  
BRANCH  11  12
HETATM   12  C   UNL     1      -7.143   9.984  65.446  1.00  0.00    -0.138 C  
HETATM   13  C   UNL     1      -6.095  10.330  66.495  1.00  0.00    -0.071 C  
HETATM   14  C   UNL     1      -6.579  10.167  64.037  1.00  0.00    -0.113 C  
ENDBRANCH  11  12
ENDBRANCH   7   8
ENDBRANCH   6   7
ENDBRANCH   4   6
BRANCH   4  15
HETATM   15  C   UNL     1     -11.667  13.345  68.462  1.00  0.00    -0.357 C  
BRANCH  15  16
HETATM   16  O   UNL     1     -12.270  14.603  68.811  1.00  0.00    -0.235 OA 
BRANCH  16  17
HETATM   17  C   UNL     1     -12.229  14.950  70.117  1.00  0.00    -0.336 C  
HETATM   18  O   UNL     1     -12.881  15.823  70.665  1.00  0.00    -0.438 OA 
HETATM   19  H1  UNL     1     -11.280  14.456  71.748  1.00  0.00     0.000 HD 
HETATM   20  N   UNL     1     -11.311  14.195  70.763  1.00  0.00    -0.490 N  
HETATM   21  H2  UNL     1     -10.737  13.472  70.329  1.00  0.00     0.000 HD 
ENDBRANCH  16  17
ENDBRANCH  15  16
ENDBRANCH   4  15
ENDBRANCH   3   4
ENDBRANCH   2   3
TORSDOF 9
ENDMDL
MODEL      126
REMARK 921   NORMALIZED FREE ENERGY PREDICTED BY IDOCK:   -3.34 KCAL/MOL
REMARK 922        TOTAL FREE ENERGY PREDICTED BY IDOCK:   -6.04 KCAL/MOL
REMARK 923 INTER-LIGAND FREE ENERGY PREDICTED BY IDOCK:   -5.39 KCAL/MOL
REMARK 924 INTRA-LIGAND FREE ENERGY PREDICTED BY IDOCK:   -0.65 KCAL/MOL
REMARK 927      BINDING AFFINITY PREDICTED BY RF-SCORE:    0.00 PKD
ROOT
HETATM    1  C   UNL     1     -12.320  13.914  70.320  1.00  0.00    -0.413 C  
HETATM    2  C   UNL     1     -11.809  12.725  69.516  1.00  0.00    -0.379 C  
ENDROOT
BRANCH   2   3
HETATM    3  C   UNL     1     -12.103  12.885  68.018  1.00  0.00    -0.202 C  
BRANCH   3   4
HETATM    4  C   UNL     1     -10.900  13.349  67.138  1.00  0.00    -0.284 C  
HETATM    5  C   UNL     1      -9.565  13.006  67.829  1.00  0.00    -0.208 C  
BRANCH   4   6
HETATM    6  C   UNL     1     -11.001  14.894  66.979  1.00  0.00    -0.327 C  
BRANCH   6   7
HETATM    7  O   UNL     1      -9.937  15.552  67.693  1.00  0.00    -0.230 OA 
BRANCH   7   8
HETATM    8  C   UNL     1      -9.332  16.590  67.060  1.00  0.00    -0.230 C  
HETATM    9  H   UNL     1     -10.733  17.721  68.054  1.00  0.00     0.000 HD 
HETATM   10  O   UNL     1      -8.398  16.493  66.277  1.00  0.00    -0.295 OA 
HETATM   11  N   UNL     1      -9.916  17.758  67.444  1.00  0.00    -0.311 N  
BRANCH  11  12
HETATM   12  C   UNL     1      -9.421  19.055  67.016  1.00  0.00    -0.317 C  
HETATM   13  C   UNL     1      -8.463  19.638  68.047  1.00  0.00    -0.352 C  
HETATM   14  C   UNL     1     -10.581  20.016  66.752  1.00  0.00    -0.454 C  
ENDBRANCH  11  12
ENDBRANCH   7   8
ENDBRANCH   6   7
ENDBRANCH   4   6
BRANCH   4  15
HETATM   15  C   UNL     1     -10.919  12.681  65.739  1.00  0.00    -0.280 C  
BRANCH  15  16
HETATM   16  O   UNL     1      -9.713  11.924  65.537  1.00  0.00    -0.233 OA 
BRANCH  16  17
HETATM   17  C   UNL     1      -9.856  10.699  64.983  1.00  0.00    -0.293 C  
HETATM   18  O   UNL     1      -9.879  10.431  63.793  1.00  0.00    -0.310 OA 
HETATM   19  H1  UNL     1     -10.116   8.848  65.537  1.00  0.00     0.000 HD 
HETATM   20  N   UNL     1     -10.008   9.772  65.955  1.00  0.00    -0.273 N  
HETATM   21  H2  UNL     1     -10.014   9.968  66.956  1.00  0.00     0.000 HD 
ENDBRANCH  16  17
ENDBRANCH  15  16
ENDBRANCH   4  15
ENDBRANCH   3   4
ENDBRANCH   2   3
TORSDOF 9
ENDMDL
MODEL      127
REMARK 921   NORMALIZED FREE ENERGY PREDICTED BY IDOCK:   -3.32 KCAL/MOL
REMARK 922        TOTAL FREE ENERGY PREDICTED BY IDOCK:   -6.02 KCAL/MOL
REMARK 923 INTER-LIGAND FREE ENERGY PREDICTED BY IDOCK:   -5.37 KCAL/MOL
REMARK 924 INTRA-LIGAND FREE ENERGY PREDICTED BY IDOCK:   -0.65 KCAL/MOL
REMARK 927      BINDING AFFINITY PREDICTED BY RF-SCORE:    0.00 PKD
ROOT
HETATM    1  C   UNL     1      -9.529  10.489  63.413  1.00  0.00    -0.354 C  
HETATM    2  C   UNL     1      -9.586  10.253  64.916  1.00  0.00    -0.365 C  
ENDROOT
BRANCH   2   3
HETATM    3  C   UNL     1      -9.190  11.509  65.704  1.00  0.00    -0.184 C  
BRANCH   3   4
HETATM    4  C   UNL     1     -10.132  11.891  66.889  1.00  0.00    -0.229 C  
HETATM    5  C   UNL     1      -9.303  12.234  68.143  1.00  0.00    -0.205 C  
BRANCH   4   6
HETATM    6  C   UNL     1     -11.025  10.655  67.199  1.00  0.00    -0.247 C  
BRANCH   6   7
HETATM    7  O   UNL     1     -10.483   9.895  68.296  1.00  0.00    -0.188 OA 
BRANCH   7   8
HETATM    8  C   UNL     1     -10.453   8.546  68.144  1.00  0.00    -0.182 C  
HETATM    9  H   UNL     1      -9.272   8.608  69.827  1.00  0.00     0.000 HD 
HETATM   10  O   UNL     1     -10.995   7.924  67.242  1.00  0.00    -0.199 OA 
HETATM   11  N   UNL     1      -9.737   7.991  69.161  1.00  0.00    -0.161 N  
BRANCH  11  12
HETATM   12  C   UNL     1      -9.611   6.554  69.333  1.00  0.00    -0.144 C  
HETATM   13  C   UNL     1     -10.671   6.026  70.290  1.00  0.00    -0.367 C  
HETATM   14  C   UNL     1      -8.210   6.189  69.823  1.00  0.00    -0.123 C  
ENDBRANCH  11  12
ENDBRANCH   7   8
ENDBRANCH   6   7
ENDBRANCH   4   6
BRANCH   4  15
HETATM   15  C   UNL     1     -11.030  13.106  66.541  1.00  0.00    -0.286 C  
BRANCH  15  16
HETATM   16  O   UNL     1     -11.700  12.883  65.288  1.00  0.00    -0.329 OA 
BRANCH  16  17
HETATM   17  C   UNL     1     -11.768  13.937  64.445  1.00  0.00    -0.404 C  
HETATM   18  O   UNL     1     -11.372  15.071  64.655  1.00  0.00    -0.384 OA 
HETATM   19  H1  UNL     1     -12.437  14.364  62.664  1.00  0.00     0.000 HD 
HETATM   20  N   UNL     1     -12.386  13.568  63.300  1.00  0.00    -1.017 N  
HETATM   21  H2  UNL     1     -12.746  12.635  63.102  1.00  0.00     0.000 HD 
ENDBRANCH  16  17
ENDBRANCH  15  16
ENDBRANCH   4  15
ENDBRANCH   3   4
ENDBRANCH   2   3
TORSDOF 9
ENDMDL
MODEL      128
REMARK 921   NORMALIZED FREE ENERGY PREDICTED BY IDOCK:   -3.32 KCAL/MOL
REMARK 922        TOTAL FREE ENERGY PREDICTED BY IDOCK:   -6.01 KCAL/MOL
REMARK 923 INTER-LIGAND FREE ENERGY PREDICTED BY IDOCK:   -5.35 KCAL/MOL
REMARK 924 INTRA-LIGAND FREE ENERGY PREDICTED BY IDOCK:   -0.66 KCAL/MOL
REMARK 927      BINDING AFFINITY PREDICTED BY RF-SCORE:    0.00 PKD
ROOT
HETATM    1  C   UNL     1     -10.823   6.325  66.997  1.00  0.00    -0.458 C  
HETATM    2  C   UNL     1     -10.425   7.763  67.305  1.00  0.00    -0.392 C  
ENDROOT
BRANCH   2   3
HETATM    3  C   UNL     1     -10.766   8.149  68.751  1.00  0.00    -0.074 C  
BRANCH   3   4
HETATM    4  C   UNL     1     -10.368   9.597  69.178  1.00  0.00    -0.219 C  
HETATM    5  C   UNL     1     -11.389  10.158  70.188  1.00  0.00    -0.372 C  
BRANCH   4   6
HETATM    6  C   UNL     1     -10.384  10.486  67.901  1.00  0.00    -0.192 C  
BRANCH   6   7
HETATM    7  O   UNL     1     -11.674  11.102  67.723  1.00  0.00    -0.560 OA 
BRANCH   7   8
HETATM    8  C   UNL     1     -11.708  12.239  66.982  1.00  0.00    -0.329 C  
HETATM    9  H   UNL     1     -10.395  12.937  68.404  1.00  0.00     0.000 HD 
HETATM   10  O   UNL     1     -12.383  12.408  65.977  1.00  0.00    -0.627 OA 
HETATM   11  N   UNL     1     -10.863  13.159  67.525  1.00  0.00    -0.251 N  
BRANCH  11  12
HETATM   12  C   UNL     1     -10.603  14.444  66.899  1.00  0.00    -0.278 C  
HETATM   13  C   UNL     1      -9.108  14.661  66.706  1.00  0.00    -0.287 C  
HETATM   14  C   UNL     1     -11.212  15.579  67.721  1.00  0.00    -0.302 C  
ENDBRANCH  11  12
ENDBRANCH   7   8
ENDBRANCH   6   7
ENDBRANCH   4   6
BRANCH   4  15
HETATM   15  C   UNL     1      -8.959   9.639  69.823  1.00  0.00    -0.211 C  
BRANCH  15  16
HETATM   16  O   UNL     1      -8.705   8.417  70.537  1.00  0.00    -0.135 OA 
BRANCH  16  17
HETATM   17  C   UNL     1      -8.393   8.539  71.847  1.00  0.00    -0.156 C  
HETATM   18  O   UNL     1      -7.443   9.140  72.321  1.00  0.00    -0.320 OA 
HETATM   19  H1  UNL     1      -9.050   7.946  73.585  1.00  0.00     0.000 HD 
HETATM   20  N   UNL     1      -9.286   7.854  72.597  1.00  0.00    -0.189 N  
HETATM   21  H2  UNL     1     -10.077   7.326  72.229  1.00  0.00     0.000 HD 
ENDBRANCH  16  17
ENDBRANCH  15  16
ENDBRANCH   4  15
ENDBRANCH   3   4
ENDBRANCH   2   3
TORSDOF 9
ENDMDL
MODEL      129
REMARK 921   NORMALIZED FREE ENERGY PREDICTED BY IDOCK:   -3.32 KCAL/MOL
REMARK 922        TOTAL FREE ENERGY PREDICTED BY IDOCK:   -6.01 KCAL/MOL
REMARK 923 INTER-LIGAND FREE ENERGY PREDICTED BY IDOCK:   -5.08 KCAL/MOL
REMARK 924 INTRA-LIGAND FREE ENERGY PREDICTED BY IDOCK:   -0.92 KCAL/MOL
REMARK 927      BINDING AFFINITY PREDICTED BY RF-SCORE:    0.00 PKD
ROOT
HETATM    1  C   UNL     1      -6.827  12.694  67.468  1.00  0.00    -0.151 C  
HETATM    2  C   UNL     1      -7.637  11.619  68.181  1.00  0.00    -0.115 C  
ENDROOT
BRANCH   2   3
HETATM    3  C   UNL     1      -8.260  10.626  67.190  1.00  0.00    -0.121 C  
BRANCH   3   4
HETATM    4  C   UNL     1      -9.481   9.813  67.722  1.00  0.00    -0.152 C  
HETATM    5  C   UNL     1     -10.787  10.328  67.085  1.00  0.00    -0.278 C  
BRANCH   4   6
HETATM    6  C   UNL     1      -9.555  10.026  69.262  1.00  0.00    -0.216 C  
BRANCH   6   7
HETATM    7  O   UNL     1      -9.548   8.763  69.954  1.00  0.00    -0.170 OA 
BRANCH   7   8
HETATM    8  C   UNL     1     -10.225   8.710  71.130  1.00  0.00    -0.230 C  
HETATM    9  H   UNL     1     -11.878   8.956  69.933  1.00  0.00     0.000 HD 
HETATM   10  O   UNL     1      -9.713   8.592  72.235  1.00  0.00    -0.301 OA 
HETATM   11  N   UNL     1     -11.562   8.795  70.889  1.00  0.00    -0.282 N  
BRANCH  11  12
HETATM   12  C   UNL     1     -12.554   8.664  71.942  1.00  0.00    -0.359 C  
HETATM   13  C   UNL     1     -13.446   7.454  71.701  1.00  0.00    -0.437 C  
HETATM   14  C   UNL     1     -13.391   9.938  72.057  1.00  0.00    -0.532 C  
ENDBRANCH  11  12
ENDBRANCH   7   8
ENDBRANCH   6   7
ENDBRANCH   4   6
BRANCH   4  15
HETATM   15  C   UNL     1      -9.343   8.300  67.414  1.00  0.00    -0.141 C  
BRANCH  15  16
HETATM   16  O   UNL     1     -10.574   7.792  66.870  1.00  0.00    -0.343 OA 
BRANCH  16  17
HETATM   17  C   UNL     1     -10.907   6.527  67.210  1.00  0.00    -0.390 C  
HETATM   18  O   UNL     1     -10.828   5.534  66.507  1.00  0.00    -0.288 OA 
HETATM   19  H1  UNL     1     -11.640   5.550  68.730  1.00  0.00     0.000 HD 
HETATM   20  N   UNL     1     -11.389   6.504  68.474  1.00  0.00    -0.578 N  
HETATM   21  H2  UNL     1     -11.487   7.320  69.078  1.00  0.00     0.000 HD 
ENDBRANCH  16  17
ENDBRANCH  15  16
ENDBRANCH   4  15
ENDBRANCH   3   4
ENDBRANCH   2   3
TORSDOF 9
ENDMDL
MODEL      130
REMARK 921   NORMALIZED FREE ENERGY PREDICTED BY IDOCK:   -3.32 KCAL/MOL
REMARK 922        TOTAL FREE ENERGY PREDICTED BY IDOCK:   -6.01 KCAL/MOL
REMARK 923 INTER-LIGAND FREE ENERGY PREDICTED BY IDOCK:   -5.32 KCAL/MOL
REMARK 924 INTRA-LIGAND FREE ENERGY PREDICTED BY IDOCK:   -0.68 KCAL/MOL
REMARK 927      BINDING AFFINITY PREDICTED BY RF-SCORE:    0.00 PKD
ROOT
HETATM    1  C   UNL     1     -11.482  11.423  68.998  1.00  0.00    -0.366 C  
HETATM    2  C   UNL     1     -11.868  12.170  67.728  1.00  0.00    -0.327 C  
ENDROOT
BRANCH   2   3
HETATM    3  C   UNL     1     -10.663  12.371  66.799  1.00  0.00    -0.263 C  
BRANCH   3   4
HETATM    4  C   UNL     1     -11.000  12.624  65.296  1.00  0.00    -0.320 C  
HETATM    5  C   UNL     1     -12.525  12.577  65.073  1.00  0.00    -0.494 C  
BRANCH   4   6
HETATM    6  C   UNL     1     -10.336  11.487  64.466  1.00  0.00    -0.302 C  
BRANCH   6   7
HETATM    7  O   UNL     1     -10.235  10.279  65.243  1.00  0.00    -0.307 OA 
BRANCH   7   8
HETATM    8  C   UNL     1      -9.168   9.479  64.987  1.00  0.00    -0.236 C  
HETATM    9  H   UNL     1      -9.265  10.327  63.116  1.00  0.00     0.000 HD 
HETATM   10  O   UNL     1      -8.666   8.694  65.780  1.00  0.00    -0.161 OA 
HETATM   11  N   UNL     1      -8.733   9.696  63.715  1.00  0.00    -0.209 N  
BRANCH  11  12
HETATM   12  C   UNL     1      -7.541   9.061  63.180  1.00  0.00    -0.106 C  
HETATM   13  C   UNL     1      -6.733  10.043  62.342  1.00  0.00    -0.123 C  
HETATM   14  C   UNL     1      -7.908   7.825  62.359  1.00  0.00    -0.132 C  
ENDBRANCH  11  12
ENDBRANCH   7   8
ENDBRANCH   6   7
ENDBRANCH   4   6
BRANCH   4  15
HETATM   15  C   UNL     1     -10.471  13.998  64.811  1.00  0.00    -0.421 C  
BRANCH  15  16
HETATM   16  O   UNL     1     -11.243  15.060  65.398  1.00  0.00    -0.345 OA 
BRANCH  16  17
HETATM   17  C   UNL     1     -10.546  16.086  65.935  1.00  0.00    -0.328 C  
HETATM   18  O   UNL     1     -10.038  17.020  65.337  1.00  0.00    -0.581 OA 
HETATM   19  H1  UNL     1      -9.925  16.699  67.679  1.00  0.00     0.000 HD 
HETATM   20  N   UNL     1     -10.451  15.925  67.275  1.00  0.00    -0.305 N  
HETATM   21  H2  UNL     1     -10.847  15.145  67.800  1.00  0.00     0.000 HD 
ENDBRANCH  16  17
ENDBRANCH  15  16
ENDBRANCH   4  15
ENDBRANCH   3   4
ENDBRANCH   2   3
TORSDOF 9
ENDMDL
MODEL      131
REMARK 921   NORMALIZED FREE ENERGY PREDICTED BY IDOCK:   -3.31 KCAL/MOL
REMARK 922        TOTAL FREE ENERGY PREDICTED BY IDOCK:   -6.00 KCAL/MOL
REMARK 923 INTER-LIGAND FREE ENERGY PREDICTED BY IDOCK:   -5.56 KCAL/MOL
REMARK 924 INTRA-LIGAND FREE ENERGY PREDICTED BY IDOCK:   -0.44 KCAL/MOL
REMARK 927      BINDING AFFINITY PREDICTED BY RF-SCORE:    0.00 PKD
ROOT
HETATM    1  C   UNL     1     -14.118   7.852  72.161  1.00  0.00    -0.316 C  
HETATM    2  C   UNL     1     -12.675   8.271  71.914  1.00  0.00    -0.373 C  
ENDROOT
BRANCH   2   3
HETATM    3  C   UNL     1     -12.526   9.048  70.599  1.00  0.00     0.113 C  
BRANCH   3   4
HETATM    4  C   UNL     1     -11.071   9.468  70.221  1.00  0.00    -0.317 C  
HETATM    5  C   UNL     1     -10.138   9.331  71.441  1.00  0.00    -0.348 C  
BRANCH   4   6
HETATM    6  C   UNL     1     -11.109  10.961  69.783  1.00  0.00    -0.262 C  
BRANCH   6   7
HETATM    7  O   UNL     1     -12.142  11.675  70.489  1.00  0.00    -0.361 OA 
BRANCH   7   8
HETATM    8  C   UNL     1     -12.281  12.992  70.193  1.00  0.00    -0.272 C  
HETATM    9  H   UNL     1     -13.147  13.089  72.056  1.00  0.00     0.000 HD 
HETATM   10  O   UNL     1     -11.944  13.521  69.144  1.00  0.00    -0.322 OA 
HETATM   11  N   UNL     1     -12.843  13.638  71.252  1.00  0.00    -0.348 N  
BRANCH  11  12
HETATM   12  C   UNL     1     -13.027  15.079  71.279  1.00  0.00    -0.377 C  
HETATM   13  C   UNL     1     -11.744  15.782  71.701  1.00  0.00    -0.542 C  
HETATM   14  C   UNL     1     -14.182  15.459  72.205  1.00  0.00    -0.660 C  
ENDBRANCH  11  12
ENDBRANCH   7   8
ENDBRANCH   6   7
ENDBRANCH   4   6
BRANCH   4  15
HETATM   15  C   UNL     1     -10.504   8.603  69.066  1.00  0.00    -0.199 C  
BRANCH  15  16
HETATM   16  O   UNL     1     -11.062   7.278  69.122  1.00  0.00    -0.125 OA 
BRANCH  16  17
HETATM   17  C   UNL     1     -10.783   6.463  68.080  1.00  0.00    -0.291 C  
HETATM   18  O   UNL     1      -9.804   5.746  67.952  1.00  0.00    -0.116 OA 
HETATM   19  H1  UNL     1     -11.541   5.953  66.357  1.00  0.00     0.000 HD 
HETATM   20  N   UNL     1     -11.752   6.569  67.143  1.00  0.00    -0.439 N  
HETATM   21  H2  UNL     1     -12.570   7.174  67.211  1.00  0.00     0.000 HD 
ENDBRANCH  16  17
ENDBRANCH  15  16
ENDBRANCH   4  15
ENDBRANCH   3   4
ENDBRANCH   2   3
TORSDOF 9
ENDMDL
MODEL      132
REMARK 921   NORMALIZED FREE ENERGY PREDICTED BY IDOCK:   -3.31 KCAL/MOL
REMARK 922        TOTAL FREE ENERGY PREDICTED BY IDOCK:   -5.99 KCAL/MOL
REMARK 923 INTER-LIGAND FREE ENERGY PREDICTED BY IDOCK:   -5.78 KCAL/MOL
REMARK 924 INTRA-LIGAND FREE ENERGY PREDICTED BY IDOCK:   -0.21 KCAL/MOL
REMARK 927      BINDING AFFINITY PREDICTED BY RF-SCORE:    0.00 PKD
ROOT
HETATM    1  C   UNL     1     -11.984  12.624  65.229  1.00  0.00    -0.487 C  
HETATM    2  C   UNL     1     -11.564  12.916  66.664  1.00  0.00    -0.428 C  
ENDROOT
BRANCH   2   3
HETATM    3  C   UNL     1     -12.011  14.313  67.113  1.00  0.00    -0.449 C  
BRANCH   3   4
HETATM    4  C   UNL     1     -11.203  14.936  68.295  1.00  0.00    -0.306 C  
HETATM    5  C   UNL     1     -11.113  16.467  68.135  1.00  0.00    -0.303 C  
BRANCH   4   6
HETATM    6  C   UNL     1      -9.766  14.341  68.250  1.00  0.00    -0.221 C  
BRANCH   6   7
HETATM    7  O   UNL     1      -8.984  14.971  67.218  1.00  0.00    -0.181 OA 
BRANCH   7   8
HETATM    8  C   UNL     1      -8.046  15.864  67.625  1.00  0.00    -0.144 C  
HETATM    9  H   UNL     1      -8.316  16.662  65.749  1.00  0.00     0.000 HD 
HETATM   10  O   UNL     1      -7.484  15.853  68.710  1.00  0.00    -0.148 OA 
HETATM   11  N   UNL     1      -7.839  16.784  66.642  1.00  0.00    -0.241 N  
BRANCH  11  12
HETATM   12  C   UNL     1      -6.966  17.931  66.819  1.00  0.00    -0.191 C  
HETATM   13  C   UNL     1      -7.706  19.079  67.491  1.00  0.00    -0.262 C  
HETATM   14  C   UNL     1      -6.380  18.376  65.479  1.00  0.00    -0.310 C  
ENDBRANCH  11  12
ENDBRANCH   7   8
ENDBRANCH   6   7
ENDBRANCH   4   6
BRANCH   4  15
HETATM   15  C   UNL     1     -11.854  14.619  69.666  1.00  0.00    -0.320 C  
BRANCH  15  16
HETATM   16  O   UNL     1     -11.785  15.771  70.524  1.00  0.00    -0.320 OA 
BRANCH  16  17
HETATM   17  C   UNL     1     -12.624  15.785  71.584  1.00  0.00    -0.459 C  
HETATM   18  O   UNL     1     -13.814  15.517  71.580  1.00  0.00    -0.484 OA 
HETATM   19  H1  UNL     1     -12.589  16.189  73.491  1.00  0.00     0.000 HD 
HETATM   20  N   UNL     1     -11.956  16.179  72.692  1.00  0.00    -0.526 N  
HETATM   21  H2  UNL     1     -10.967  16.429  72.722  1.00  0.00     0.000 HD 
ENDBRANCH  16  17
ENDBRANCH  15  16
ENDBRANCH   4  15
ENDBRANCH   3   4
ENDBRANCH   2   3
TORSDOF 9
ENDMDL
MODEL      133
REMARK 921   NORMALIZED FREE ENERGY PREDICTED BY IDOCK:   -3.30 KCAL/MOL
REMARK 922        TOTAL FREE ENERGY PREDICTED BY IDOCK:   -5.98 KCAL/MOL
REMARK 923 INTER-LIGAND FREE ENERGY PREDICTED BY IDOCK:   -5.46 KCAL/MOL
REMARK 924 INTRA-LIGAND FREE ENERGY PREDICTED BY IDOCK:   -0.52 KCAL/MOL
REMARK 927      BINDING AFFINITY PREDICTED BY RF-SCORE:    0.00 PKD
ROOT
HETATM    1  C   UNL     1      -6.640   6.108  68.378  1.00  0.00    -0.058 C  
HETATM    2  C   UNL     1      -8.158   6.233  68.357  1.00  0.00    -0.112 C  
ENDROOT
BRANCH   2   3
HETATM    3  C   UNL     1      -8.607   7.621  67.881  1.00  0.00    -0.122 C  
BRANCH   3   4
HETATM    4  C   UNL     1     -10.145   7.889  67.927  1.00  0.00    -0.240 C  
HETATM    5  C   UNL     1     -10.924   6.575  67.716  1.00  0.00    -0.407 C  
BRANCH   4   6
HETATM    6  C   UNL     1     -10.487   8.868  66.768  1.00  0.00    -0.199 C  
BRANCH   6   7
HETATM    7  O   UNL     1     -10.191  10.227  67.143  1.00  0.00    -0.203 OA 
BRANCH   7   8
HETATM    8  C   UNL     1     -11.126  11.162  66.832  1.00  0.00    -0.247 C  
HETATM    9  H   UNL     1     -10.035  11.353  65.099  1.00  0.00     0.000 HD 
HETATM   10  O   UNL     1     -12.056  11.497  67.552  1.00  0.00    -0.614 OA 
HETATM   11  N   UNL     1     -10.877  11.657  65.588  1.00  0.00    -0.282 N  
BRANCH  11  12
HETATM   12  C   UNL     1     -11.765  12.602  64.933  1.00  0.00    -0.353 C  
HETATM   13  C   UNL     1     -12.309  12.024  63.633  1.00  0.00    -0.648 C  
HETATM   14  C   UNL     1     -11.049  13.928  64.677  1.00  0.00    -0.389 C  
ENDBRANCH  11  12
ENDBRANCH   7   8
ENDBRANCH   6   7
ENDBRANCH   4   6
BRANCH   4  15
HETATM   15  C   UNL     1     -10.580   8.511  69.279  1.00  0.00    -0.181 C  
BRANCH  15  16
HETATM   16  O   UNL     1     -11.247   7.523  70.085  1.00  0.00    -0.259 OA 
BRANCH  16  17
HETATM   17  C   UNL     1     -11.855   7.971  71.206  1.00  0.00    -0.294 C  
HETATM   18  O   UNL     1     -11.320   8.274  72.260  1.00  0.00    -0.325 OA 
HETATM   19  H1  UNL     1     -13.652   8.353  71.861  1.00  0.00     0.000 HD 
HETATM   20  N   UNL     1     -13.193   8.015  71.015  1.00  0.00    -0.526 N  
HETATM   21  H2  UNL     1     -13.671   7.750  70.154  1.00  0.00     0.000 HD 
ENDBRANCH  16  17
ENDBRANCH  15  16
ENDBRANCH   4  15
ENDBRANCH   3   4
ENDBRANCH   2   3
TORSDOF 9
ENDMDL
MODEL      134
REMARK 921   NORMALIZED FREE ENERGY PREDICTED BY IDOCK:   -3.29 KCAL/MOL
REMARK 922        TOTAL FREE ENERGY PREDICTED BY IDOCK:   -5.97 KCAL/MOL
REMARK 923 INTER-LIGAND FREE ENERGY PREDICTED BY IDOCK:   -5.62 KCAL/MOL
REMARK 924 INTRA-LIGAND FREE ENERGY PREDICTED BY IDOCK:   -0.35 KCAL/MOL
REMARK 927      BINDING AFFINITY PREDICTED BY RF-SCORE:    0.00 PKD
ROOT
HETATM    1  C   UNL     1      -7.353  15.156  67.208  1.00  0.00    -0.216 C  
HETATM    2  C   UNL     1      -7.520  16.598  66.746  1.00  0.00    -0.289 C  
ENDROOT
BRANCH   2   3
HETATM    3  C   UNL     1      -8.105  17.484  67.854  1.00  0.00    -0.230 C  
BRANCH   3   4
HETATM    4  C   UNL     1      -9.392  18.282  67.475  1.00  0.00    -0.263 C  
HETATM    5  C   UNL     1     -10.001  18.944  68.728  1.00  0.00    -0.466 C  
BRANCH   4   6
HETATM    6  C   UNL     1     -10.420  17.269  66.893  1.00  0.00    -0.272 C  
BRANCH   6   7
HETATM    7  O   UNL     1     -10.958  16.430  67.933  1.00  0.00    -0.339 OA 
BRANCH   7   8
HETATM    8  C   UNL     1     -11.263  15.153  67.588  1.00  0.00    -0.327 C  
HETATM    9  H   UNL     1     -10.457  15.689  65.773  1.00  0.00     0.000 HD 
HETATM   10  O   UNL     1     -11.814  14.337  68.313  1.00  0.00    -0.322 OA 
HETATM   11  N   UNL     1     -10.848  14.917  66.313  1.00  0.00    -0.325 N  
BRANCH  11  12
HETATM   12  C   UNL     1     -10.941  13.606  65.692  1.00  0.00    -0.290 C  
HETATM   13  C   UNL     1     -12.386  13.125  65.656  1.00  0.00    -0.519 C  
HETATM   14  C   UNL     1     -10.054  12.598  66.422  1.00  0.00    -0.263 C  
ENDBRANCH  11  12
ENDBRANCH   7   8
ENDBRANCH   6   7
ENDBRANCH   4   6
BRANCH   4  15
HETATM   15  C   UNL     1      -9.098  19.384  66.426  1.00  0.00    -0.360 C  
BRANCH  15  16
HETATM   16  O   UNL     1      -8.375  20.467  67.036  1.00  0.00    -0.322 OA 
BRANCH  16  17
HETATM   17  C   UNL     1      -7.100  20.648  66.625  1.00  0.00    -0.238 C  
HETATM   18  O   UNL     1      -6.671  20.522  65.489  1.00  0.00    -0.250 OA 
HETATM   19  H1  UNL     1      -5.357  21.105  67.370  1.00  0.00     0.000 HD 
HETATM   20  N   UNL     1      -6.318  20.969  67.681  1.00  0.00    -0.325 N  
HETATM   21  H2  UNL     1      -6.643  21.061  68.643  1.00  0.00     0.000 HD 
ENDBRANCH  16  17
ENDBRANCH  15  16
ENDBRANCH   4  15
ENDBRANCH   3   4
ENDBRANCH   2   3
TORSDOF 9
ENDMDL
MODEL      135
REMARK 921   NORMALIZED FREE ENERGY PREDICTED BY IDOCK:   -3.29 KCAL/MOL
REMARK 922        TOTAL FREE ENERGY PREDICTED BY IDOCK:   -5.96 KCAL/MOL
REMARK 923 INTER-LIGAND FREE ENERGY PREDICTED BY IDOCK:   -5.16 KCAL/MOL
REMARK 924 INTRA-LIGAND FREE ENERGY PREDICTED BY IDOCK:   -0.80 KCAL/MOL
REMARK 927      BINDING AFFINITY PREDICTED BY RF-SCORE:    0.00 PKD
ROOT
HETATM    1  C   UNL     1     -13.264   9.338  72.195  1.00  0.00    -0.535 C  
HETATM    2  C   UNL     1     -12.174   8.748  71.310  1.00  0.00    -0.332 C  
ENDROOT
BRANCH   2   3
HETATM    3  C   UNL     1     -11.046   9.755  71.050  1.00  0.00    -0.431 C  
BRANCH   3   4
HETATM    4  C   UNL     1     -10.399   9.698  69.631  1.00  0.00    -0.245 C  
HETATM    5  C   UNL     1      -8.863   9.785  69.738  1.00  0.00    -0.241 C  
BRANCH   4   6
HETATM    6  C   UNL     1     -10.917  10.925  68.826  1.00  0.00    -0.237 C  
BRANCH   6   7
HETATM    7  O   UNL     1      -9.835  11.822  68.508  1.00  0.00    -0.203 OA 
BRANCH   7   8
HETATM    8  C   UNL     1      -9.816  12.328  67.248  1.00  0.00    -0.205 C  
HETATM    9  H   UNL     1     -11.630  11.375  67.078  1.00  0.00     0.000 HD 
HETATM   10  O   UNL     1      -8.910  12.995  66.768  1.00  0.00    -0.207 OA 
HETATM   11  N   UNL     1     -10.968  11.990  66.606  1.00  0.00    -0.272 N  
BRANCH  11  12
HETATM   12  C   UNL     1     -11.288  12.473  65.274  1.00  0.00    -0.324 C  
HETATM   13  C   UNL     1     -12.768  12.813  65.161  1.00  0.00    -0.402 C  
HETATM   14  C   UNL     1     -10.888  11.446  64.215  1.00  0.00    -0.416 C  
ENDBRANCH  11  12
ENDBRANCH   7   8
ENDBRANCH   6   7
ENDBRANCH   4   6
BRANCH   4  15
HETATM   15  C   UNL     1     -10.769   8.392  68.882  1.00  0.00    -0.068 C  
BRANCH  15  16
HETATM   16  O   UNL     1     -10.803   8.629  67.463  1.00  0.00    -0.202 OA 
BRANCH  16  17
HETATM   17  C   UNL     1      -9.943   7.906  66.711  1.00  0.00    -0.263 C  
HETATM   18  O   UNL     1      -9.626   6.740  66.876  1.00  0.00    -0.147 OA 
HETATM   19  H1  UNL     1      -8.782   8.136  65.161  1.00  0.00     0.000 HD 
HETATM   20  N   UNL     1      -9.431   8.682  65.728  1.00  0.00    -0.428 N  
HETATM   21  H2  UNL     1      -9.659   9.664  65.578  1.00  0.00     0.000 HD 
ENDBRANCH  16  17
ENDBRANCH  15  16
ENDBRANCH   4  15
ENDBRANCH   3   4
ENDBRANCH   2   3
TORSDOF 9
ENDMDL
MODEL      136
REMARK 921   NORMALIZED FREE ENERGY PREDICTED BY IDOCK:   -3.28 KCAL/MOL
REMARK 922        TOTAL FREE ENERGY PREDICTED BY IDOCK:   -5.95 KCAL/MOL
REMARK 923 INTER-LIGAND FREE ENERGY PREDICTED BY IDOCK:   -5.32 KCAL/MOL
REMARK 924 INTRA-LIGAND FREE ENERGY PREDICTED BY IDOCK:   -0.63 KCAL/MOL
REMARK 927      BINDING AFFINITY PREDICTED BY RF-SCORE:    0.00 PKD
ROOT
HETATM    1  C   UNL     1      -8.908   7.309  69.893  1.00  0.00    -0.142 C  
HETATM    2  C   UNL     1     -10.208   7.746  69.231  1.00  0.00    -0.211 C  
ENDROOT
BRANCH   2   3
HETATM    3  C   UNL     1     -10.691   9.101  69.766  1.00  0.00    -0.239 C  
BRANCH   3   4
HETATM    4  C   UNL     1     -10.740  10.262  68.725  1.00  0.00    -0.247 C  
HETATM    5  C   UNL     1      -9.468  11.128  68.826  1.00  0.00    -0.173 C  
BRANCH   4   6
HETATM    6  C   UNL     1     -11.977  11.145  69.060  1.00  0.00    -0.320 C  
BRANCH   6   7
HETATM    7  O   UNL     1     -12.092  11.345  70.482  1.00  0.00    -0.357 OA 
BRANCH   7   8
HETATM    8  C   UNL     1     -12.507  12.571  70.892  1.00  0.00    -0.269 C  
HETATM    9  H   UNL     1     -11.097  13.247  69.557  1.00  0.00     0.000 HD 
HETATM   10  O   UNL     1     -13.360  12.780  71.743  1.00  0.00    -0.426 OA 
HETATM   11  N   UNL     1     -11.837  13.532  70.200  1.00  0.00    -0.302 N  
BRANCH  11  12
HETATM   12  C   UNL     1     -12.134  14.947  70.342  1.00  0.00    -0.330 C  
HETATM   13  C   UNL     1     -11.824  15.699  69.055  1.00  0.00    -0.379 C  
HETATM   14  C   UNL     1     -11.362  15.546  71.518  1.00  0.00    -0.466 C  
ENDBRANCH  11  12
ENDBRANCH   7   8
ENDBRANCH   6   7
ENDBRANCH   4   6
BRANCH   4  15
HETATM   15  C   UNL     1     -10.862   9.729  67.274  1.00  0.00    -0.177 C  
BRANCH  15  16
HETATM   16  O   UNL     1      -9.821  10.289  66.453  1.00  0.00    -0.197 OA 
BRANCH  16  17
HETATM   17  C   UNL     1     -10.015  10.238  65.116  1.00  0.00    -0.325 C  
HETATM   18  O   UNL     1     -10.655  11.023  64.438  1.00  0.00    -0.352 OA 
HETATM   19  H1  UNL     1      -9.555   9.102  63.599  1.00  0.00     0.000 HD 
HETATM   20  N   UNL     1      -9.409   9.141  64.607  1.00  0.00    -0.415 N  
HETATM   21  H2  UNL     1      -8.885   8.455  65.151  1.00  0.00     0.000 HD 
ENDBRANCH  16  17
ENDBRANCH  15  16
ENDBRANCH   4  15
ENDBRANCH   3   4
ENDBRANCH   2   3
TORSDOF 9
ENDMDL
MODEL      137
REMARK 921   NORMALIZED FREE ENERGY PREDICTED BY IDOCK:   -3.28 KCAL/MOL
REMARK 922        TOTAL FREE ENERGY PREDICTED BY IDOCK:   -5.95 KCAL/MOL
REMARK 923 INTER-LIGAND FREE ENERGY PREDICTED BY IDOCK:   -5.22 KCAL/MOL
REMARK 924 INTRA-LIGAND FREE ENERGY PREDICTED BY IDOCK:   -0.73 KCAL/MOL
REMARK 927      BINDING AFFINITY PREDICTED BY RF-SCORE:    0.00 PKD
ROOT
HETATM    1  C   UNL     1     -12.065  13.395  64.003  1.00  0.00    -0.506 C  
HETATM    2  C   UNL     1     -12.567  13.995  65.309  1.00  0.00    -0.495 C  
ENDROOT
BRANCH   2   3
HETATM    3  C   UNL     1     -11.883  13.358  66.526  1.00  0.00    -0.443 C  
BRANCH   3   4
HETATM    4  C   UNL     1     -10.884  14.276  67.300  1.00  0.00    -0.285 C  
HETATM    5  C   UNL     1     -11.186  15.760  67.012  1.00  0.00    -0.082 C  
BRANCH   4   6
HETATM    6  C   UNL     1      -9.451  13.946  66.792  1.00  0.00    -0.279 C  
BRANCH   6   7
HETATM    7  O   UNL     1      -8.797  13.014  67.674  1.00  0.00    -0.169 OA 
BRANCH   7   8
HETATM    8  C   UNL     1      -8.180  11.954  67.090  1.00  0.00    -0.171 C  
HETATM    9  H   UNL     1     -10.027  11.631  66.246  1.00  0.00     0.000 HD 
HETATM   10  O   UNL     1      -7.014  11.631  67.266  1.00  0.00    -0.110 OA 
HETATM   11  N   UNL     1      -9.057  11.315  66.268  1.00  0.00    -0.193 N  
BRANCH  11  12
HETATM   12  C   UNL     1      -8.664  10.201  65.423  1.00  0.00    -0.161 C  
HETATM   13  C   UNL     1      -9.524  10.141  64.168  1.00  0.00    -0.353 C  
HETATM   14  C   UNL     1      -8.741   8.884  66.195  1.00  0.00    -0.177 C  
ENDBRANCH  11  12
ENDBRANCH   7   8
ENDBRANCH   6   7
ENDBRANCH   4   6
BRANCH   4  15
HETATM   15  C   UNL     1     -10.958  14.044  68.831  1.00  0.00    -0.259 C  
BRANCH  15  16
HETATM   16  O   UNL     1     -12.003  14.850  69.403  1.00  0.00    -0.302 OA 
BRANCH  16  17
HETATM   17  C   UNL     1     -12.656  14.326  70.464  1.00  0.00    -0.353 C  
HETATM   18  O   UNL     1     -13.591  14.824  71.069  1.00  0.00    -0.380 OA 
HETATM   19  H1  UNL     1     -12.591  12.747  71.607  1.00  0.00     0.000 HD 
HETATM   20  N   UNL     1     -12.098  13.142  70.806  1.00  0.00    -0.503 N  
HETATM   21  H2  UNL     1     -11.304  12.710  70.334  1.00  0.00     0.000 HD 
ENDBRANCH  16  17
ENDBRANCH  15  16
ENDBRANCH   4  15
ENDBRANCH   3   4
ENDBRANCH   2   3
TORSDOF 9
ENDMDL
MODEL      138
REMARK 921   NORMALIZED FREE ENERGY PREDICTED BY IDOCK:   -3.28 KCAL/MOL
REMARK 922        TOTAL FREE ENERGY PREDICTED BY IDOCK:   -5.95 KCAL/MOL
REMARK 923 INTER-LIGAND FREE ENERGY PREDICTED BY IDOCK:   -5.32 KCAL/MOL
REMARK 924 INTRA-LIGAND FREE ENERGY PREDICTED BY IDOCK:   -0.62 KCAL/MOL
REMARK 927      BINDING AFFINITY PREDICTED BY RF-SCORE:    0.00 PKD
ROOT
HETATM    1  C   UNL     1     -10.079  19.948  67.616  1.00  0.00    -0.564 C  
HETATM    2  C   UNL     1     -10.594  18.843  66.703  1.00  0.00    -0.469 C  
ENDROOT
BRANCH   2   3
HETATM    3  C   UNL     1     -10.908  17.561  67.486  1.00  0.00    -0.205 C  
BRANCH   3   4
HETATM    4  C   UNL     1     -10.387  16.234  66.850  1.00  0.00    -0.299 C  
HETATM    5  C   UNL     1     -10.659  16.224  65.332  1.00  0.00    -0.371 C  
BRANCH   4   6
HETATM    6  C   UNL     1     -11.165  15.058  67.507  1.00  0.00    -0.330 C  
BRANCH   6   7
HETATM    7  O   UNL     1     -10.875  13.815  66.840  1.00  0.00    -0.282 OA 
BRANCH   7   8
HETATM    8  C   UNL     1     -10.291  12.845  67.588  1.00  0.00    -0.218 C  
HETATM    9  H   UNL     1     -11.039  11.591  66.140  1.00  0.00     0.000 HD 
HETATM   10  O   UNL     1      -9.691  13.027  68.638  1.00  0.00    -0.163 OA 
HETATM   11  N   UNL     1     -10.465  11.638  66.982  1.00  0.00    -0.216 N  
BRANCH  11  12
HETATM   12  C   UNL     1      -9.865  10.416  67.490  1.00  0.00    -0.172 C  
HETATM   13  C   UNL     1      -9.643   9.413  66.366  1.00  0.00    -0.285 C  
HETATM   14  C   UNL     1     -10.729   9.809  68.595  1.00  0.00    -0.247 C  
ENDBRANCH  11  12
ENDBRANCH   7   8
ENDBRANCH   6   7
ENDBRANCH   4   6
BRANCH   4  15
HETATM   15  C   UNL     1      -8.866  16.043  67.081  1.00  0.00    -0.204 C  
BRANCH  15  16
HETATM   16  O   UNL     1      -8.130  16.507  65.936  1.00  0.00    -0.289 OA 
BRANCH  16  17
HETATM   17  C   UNL     1      -7.331  17.581  66.127  1.00  0.00    -0.311 C  
HETATM   18  O   UNL     1      -6.917  18.347  65.273  1.00  0.00    -0.534 OA 
HETATM   19  H1  UNL     1      -6.407  18.495  67.580  1.00  0.00     0.000 HD 
HETATM   20  N   UNL     1      -7.009  17.685  67.436  1.00  0.00    -0.166 N  
HETATM   21  H2  UNL     1      -7.323  17.049  68.169  1.00  0.00     0.000 HD 
ENDBRANCH  16  17
ENDBRANCH  15  16
ENDBRANCH   4  15
ENDBRANCH   3   4
ENDBRANCH   2   3
TORSDOF 9
ENDMDL
MODEL      139
REMARK 921   NORMALIZED FREE ENERGY PREDICTED BY IDOCK:   -3.27 KCAL/MOL
REMARK 922        TOTAL FREE ENERGY PREDICTED BY IDOCK:   -5.94 KCAL/MOL
REMARK 923 INTER-LIGAND FREE ENERGY PREDICTED BY IDOCK:   -5.50 KCAL/MOL
REMARK 924 INTRA-LIGAND FREE ENERGY PREDICTED BY IDOCK:   -0.44 KCAL/MOL
REMARK 927      BINDING AFFINITY PREDICTED BY RF-SCORE:    0.00 PKD
ROOT
HETATM    1  C   UNL     1      -7.108  10.312  69.089  1.00  0.00    -0.074 C  
HETATM    2  C   UNL     1      -8.211  10.543  68.065  1.00  0.00    -0.112 C  
ENDROOT
BRANCH   2   3
HETATM    3  C   UNL     1      -9.159  11.671  68.495  1.00  0.00    -0.157 C  
BRANCH   3   4
HETATM    4  C   UNL     1     -10.558  11.683  67.802  1.00  0.00    -0.227 C  
HETATM    5  C   UNL     1     -11.050  13.132  67.613  1.00  0.00    -0.295 C  
BRANCH   4   6
HETATM    6  C   UNL     1     -11.553  10.931  68.732  1.00  0.00    -0.309 C  
BRANCH   6   7
HETATM    7  O   UNL     1     -11.293  11.240  70.115  1.00  0.00    -0.265 OA 
BRANCH   7   8
HETATM    8  C   UNL     1     -12.317  11.787  70.819  1.00  0.00    -0.337 C  
HETATM    9  H   UNL     1     -11.420  13.567  70.312  1.00  0.00     0.000 HD 
HETATM   10  O   UNL     1     -13.192  11.159  71.398  1.00  0.00    -0.350 OA 
HETATM   11  N   UNL     1     -12.228  13.145  70.769  1.00  0.00    -0.348 N  
BRANCH  11  12
HETATM   12  C   UNL     1     -13.240  14.015  71.343  1.00  0.00    -0.334 C  
HETATM   13  C   UNL     1     -13.183  15.402  70.717  1.00  0.00    -0.440 C  
HETATM   14  C   UNL     1     -13.082  14.100  72.861  1.00  0.00    -0.544 C  
ENDBRANCH  11  12
ENDBRANCH   7   8
ENDBRANCH   6   7
ENDBRANCH   4   6
BRANCH   4  15
HETATM   15  C   UNL     1     -10.519  10.989  66.416  1.00  0.00    -0.258 C  
BRANCH  15  16
HETATM   16  O   UNL     1     -10.954  11.902  65.394  1.00  0.00    -0.289 OA 
BRANCH  16  17
HETATM   17  C   UNL     1     -10.709  11.537  64.115  1.00  0.00    -0.368 C  
HETATM   18  O   UNL     1     -10.814  12.235  63.121  1.00  0.00    -0.377 OA 
HETATM   19  H1  UNL     1     -10.164   9.959  63.107  1.00  0.00     0.000 HD 
HETATM   20  N   UNL     1     -10.349  10.234  64.072  1.00  0.00    -0.416 N  
HETATM   21  H2  UNL     1     -10.273   9.620  64.882  1.00  0.00     0.000 HD 
ENDBRANCH  16  17
ENDBRANCH  15  16
ENDBRANCH   4  15
ENDBRANCH   3   4
ENDBRANCH   2   3
TORSDOF 9
ENDMDL
MODEL      140
REMARK 921   NORMALIZED FREE ENERGY PREDICTED BY IDOCK:   -3.25 KCAL/MOL
REMARK 922        TOTAL FREE ENERGY PREDICTED BY IDOCK:   -5.91 KCAL/MOL
REMARK 923 INTER-LIGAND FREE ENERGY PREDICTED BY IDOCK:   -5.83 KCAL/MOL
REMARK 924 INTRA-LIGAND FREE ENERGY PREDICTED BY IDOCK:   -0.08 KCAL/MOL
REMARK 927      BINDING AFFINITY PREDICTED BY RF-SCORE:    0.00 PKD
ROOT
HETATM    1  C   UNL     1     -11.363  15.896  70.044  1.00  0.00    -0.358 C  
HETATM    2  C   UNL     1     -11.780  14.702  69.196  1.00  0.00    -0.342 C  
ENDROOT
BRANCH   2   3
HETATM    3  C   UNL     1     -11.290  14.836  67.747  1.00  0.00    -0.344 C  
BRANCH   3   4
HETATM    4  C   UNL     1     -11.418  13.553  66.867  1.00  0.00    -0.374 C  
HETATM    5  C   UNL     1     -11.906  12.364  67.719  1.00  0.00    -0.362 C  
BRANCH   4   6
HETATM    6  C   UNL     1     -10.005  13.223  66.306  1.00  0.00    -0.291 C  
BRANCH   6   7
HETATM    7  O   UNL     1      -9.009  13.312  67.343  1.00  0.00    -0.194 OA 
BRANCH   7   8
HETATM    8  C   UNL     1      -8.011  12.392  67.308  1.00  0.00    -0.178 C  
HETATM    9  H   UNL     1      -9.530  11.092  66.826  1.00  0.00     0.000 HD 
HETATM   10  O   UNL     1      -6.834  12.617  67.553  1.00  0.00    -0.126 OA 
HETATM   11  N   UNL     1      -8.521  11.183  66.945  1.00  0.00    -0.142 N  
BRANCH  11  12
HETATM   12  C   UNL     1      -7.682  10.019  66.720  1.00  0.00    -0.103 C  
HETATM   13  C   UNL     1      -6.950   9.622  67.995  1.00  0.00    -0.078 C  
HETATM   14  C   UNL     1      -6.690  10.278  65.586  1.00  0.00    -0.122 C  
ENDBRANCH  11  12
ENDBRANCH   7   8
ENDBRANCH   6   7
ENDBRANCH   4   6
BRANCH   4  15
HETATM   15  C   UNL     1     -12.408  13.758  65.691  1.00  0.00    -0.482 C  
BRANCH  15  16
HETATM   16  O   UNL     1     -11.729  13.578  64.437  1.00  0.00    -0.374 OA 
BRANCH  16  17
HETATM   17  C   UNL     1     -12.127  12.532  63.680  1.00  0.00    -0.554 C  
HETATM   18  O   UNL     1     -13.264  12.107  63.556  1.00  0.00    -0.744 OA 
HETATM   19  H1  UNL     1     -11.358  11.181  62.503  1.00  0.00     0.000 HD 
HETATM   20  N   UNL     1     -11.056  11.970  63.073  1.00  0.00    -0.662 N  
HETATM   21  H2  UNL     1     -10.093  12.289  63.173  1.00  0.00     0.000 HD 
ENDBRANCH  16  17
ENDBRANCH  15  16
ENDBRANCH   4  15
ENDBRANCH   3   4
ENDBRANCH   2   3
TORSDOF 9
ENDMDL
MODEL      141
REMARK 921   NORMALIZED FREE ENERGY PREDICTED BY IDOCK:   -3.25 KCAL/MOL
REMARK 922        TOTAL FREE ENERGY PREDICTED BY IDOCK:   -5.91 KCAL/MOL
REMARK 923 INTER-LIGAND FREE ENERGY PREDICTED BY IDOCK:   -5.35 KCAL/MOL
REMARK 924 INTRA-LIGAND FREE ENERGY PREDICTED BY IDOCK:   -0.56 KCAL/MOL
REMARK 927      BINDING AFFINITY PREDICTED BY RF-SCORE:    0.00 PKD
ROOT
HETATM    1  C   UNL     1     -12.248  12.856  64.956  1.00  0.00    -0.515 C  
HETATM    2  C   UNL     1     -12.063  14.053  65.878  1.00  0.00    -0.448 C  
ENDROOT
BRANCH   2   3
HETATM    3  C   UNL     1     -12.452  13.720  67.325  1.00  0.00    -0.022 C  
BRANCH   3   4
HETATM    4  C   UNL     1     -11.348  13.974  68.400  1.00  0.00    -0.321 C  
HETATM    5  C   UNL     1     -10.564  15.261  68.069  1.00  0.00    -0.261 C  
BRANCH   4   6
HETATM    6  C   UNL     1     -10.368  12.766  68.365  1.00  0.00    -0.243 C  
BRANCH   6   7
HETATM    7  O   UNL     1     -11.052  11.544  68.702  1.00  0.00    -0.203 OA 
BRANCH   7   8
HETATM    8  C   UNL     1     -10.324  10.400  68.627  1.00  0.00    -0.184 C  
HETATM    9  H   UNL     1     -11.228  10.211  66.789  1.00  0.00     0.000 HD 
HETATM   10  O   UNL     1      -9.582   9.975  69.501  1.00  0.00    -0.207 OA 
HETATM   11  N   UNL     1     -10.538   9.805  67.421  1.00  0.00    -0.267 N  
BRANCH  11  12
HETATM   12  C   UNL     1      -9.820   8.613  67.001  1.00  0.00    -0.220 C  
HETATM   13  C   UNL     1      -9.577   8.628  65.498  1.00  0.00     0.078 C  
HETATM   14  C   UNL     1     -10.578   7.352  67.414  1.00  0.00    -0.371 C  
ENDBRANCH  11  12
ENDBRANCH   7   8
ENDBRANCH   6   7
ENDBRANCH   4   6
BRANCH   4  15
HETATM   15  C   UNL     1     -11.950  14.114  69.821  1.00  0.00    -0.339 C  
BRANCH  15  16
HETATM   16  O   UNL     1     -12.295  15.486  70.080  1.00  0.00    -0.369 OA 
BRANCH  16  17
HETATM   17  C   UNL     1     -12.696  15.780  71.337  1.00  0.00    -0.447 C  
HETATM   18  O   UNL     1     -13.667  15.330  71.921  1.00  0.00    -0.412 OA 
HETATM   19  H1  UNL     1     -12.169  16.923  72.827  1.00  0.00     0.000 HD 
HETATM   20  N   UNL     1     -11.866  16.701  71.879  1.00  0.00    -0.598 N  
HETATM   21  H2  UNL     1     -11.059  17.111  71.409  1.00  0.00     0.000 HD 
ENDBRANCH  16  17
ENDBRANCH  15  16
ENDBRANCH   4  15
ENDBRANCH   3   4
ENDBRANCH   2   3
TORSDOF 9
ENDMDL
MODEL      142
REMARK 921   NORMALIZED FREE ENERGY PREDICTED BY IDOCK:   -3.24 KCAL/MOL
REMARK 922        TOTAL FREE ENERGY PREDICTED BY IDOCK:   -5.88 KCAL/MOL
REMARK 923 INTER-LIGAND FREE ENERGY PREDICTED BY IDOCK:   -5.21 KCAL/MOL
REMARK 924 INTRA-LIGAND FREE ENERGY PREDICTED BY IDOCK:   -0.68 KCAL/MOL
REMARK 927      BINDING AFFINITY PREDICTED BY RF-SCORE:    0.00 PKD
ROOT
HETATM    1  C   UNL     1     -12.886  15.495  71.203  1.00  0.00    -0.551 C  
HETATM    2  C   UNL     1     -12.393  14.698  70.003  1.00  0.00    -0.365 C  
ENDROOT
BRANCH   2   3
HETATM    3  C   UNL     1     -11.881  15.616  68.884  1.00  0.00    -0.368 C  
BRANCH   3   4
HETATM    4  C   UNL     1     -10.803  14.997  67.940  1.00  0.00    -0.280 C  
HETATM    5  C   UNL     1     -10.986  15.520  66.501  1.00  0.00    -0.243 C  
BRANCH   4   6
HETATM    6  C   UNL     1     -11.002  13.454  67.943  1.00  0.00    -0.256 C  
BRANCH   6   7
HETATM    7  O   UNL     1      -9.748  12.777  68.154  1.00  0.00    -0.214 OA 
BRANCH   7   8
HETATM    8  C   UNL     1      -9.136  12.273  67.052  1.00  0.00    -0.201 C  
HETATM    9  H   UNL     1     -11.059  12.061  66.356  1.00  0.00     0.000 HD 
HETATM   10  O   UNL     1      -7.929  12.130  66.916  1.00  0.00    -0.157 OA 
HETATM   11  N   UNL     1     -10.073  11.963  66.114  1.00  0.00    -0.221 N  
BRANCH  11  12
HETATM   12  C   UNL     1      -9.722  11.497  64.784  1.00  0.00    -0.219 C  
HETATM   13  C   UNL     1     -10.668  12.074  63.739  1.00  0.00    -0.478 C  
HETATM   14  C   UNL     1      -9.722   9.970  64.728  1.00  0.00    -0.363 C  
ENDBRANCH  11  12
ENDBRANCH   7   8
ENDBRANCH   6   7
ENDBRANCH   4   6
BRANCH   4  15
HETATM   15  C   UNL     1      -9.364  15.336  68.409  1.00  0.00    -0.194 C  
BRANCH  15  16
HETATM   16  O   UNL     1      -9.375  16.530  69.211  1.00  0.00    -0.231 OA 
BRANCH  16  17
HETATM   17  C   UNL     1      -8.794  17.624  68.669  1.00  0.00    -0.259 C  
HETATM   18  O   UNL     1      -7.601  17.821  68.516  1.00  0.00    -0.258 OA 
HETATM   19  H1  UNL     1      -9.306  19.352  67.922  1.00  0.00     0.000 HD 
HETATM   20  N   UNL     1      -9.744  18.527  68.330  1.00  0.00    -0.345 N  
HETATM   21  H2  UNL     1     -10.747  18.400  68.464  1.00  0.00     0.000 HD 
ENDBRANCH  16  17
ENDBRANCH  15  16
ENDBRANCH   4  15
ENDBRANCH   3   4
ENDBRANCH   2   3
TORSDOF 9
ENDMDL
MODEL      143
REMARK 921   NORMALIZED FREE ENERGY PREDICTED BY IDOCK:   -3.22 KCAL/MOL
REMARK 922        TOTAL FREE ENERGY PREDICTED BY IDOCK:   -5.87 KCAL/MOL
REMARK 923 INTER-LIGAND FREE ENERGY PREDICTED BY IDOCK:   -4.80 KCAL/MOL
REMARK 924 INTRA-LIGAND FREE ENERGY PREDICTED BY IDOCK:   -1.07 KCAL/MOL
REMARK 927      BINDING AFFINITY PREDICTED BY RF-SCORE:    0.00 PKD
ROOT
HETATM    1  C   UNL     1     -12.270  15.363  72.731  1.00  0.00    -0.525 C  
HETATM    2  C   UNL     1     -11.838  15.129  71.289  1.00  0.00    -0.403 C  
ENDROOT
BRANCH   2   3
HETATM    3  C   UNL     1     -11.529  16.448  70.568  1.00  0.00    -0.163 C  
BRANCH   3   4
HETATM    4  C   UNL     1     -10.792  16.315  69.198  1.00  0.00    -0.314 C  
HETATM    5  C   UNL     1     -11.656  15.519  68.200  1.00  0.00    -0.313 C  
BRANCH   4   6
HETATM    6  C   UNL     1      -9.467  15.539  69.448  1.00  0.00    -0.278 C  
BRANCH   6   7
HETATM    7  O   UNL     1      -8.382  16.126  68.706  1.00  0.00    -0.203 OA 
BRANCH   7   8
HETATM    8  C   UNL     1      -7.611  15.276  67.980  1.00  0.00    -0.125 C  
HETATM    9  H   UNL     1      -8.652  13.822  68.996  1.00  0.00     0.000 HD 
HETATM   10  O   UNL     1      -6.746  15.611  67.183  1.00  0.00    -0.244 OA 
HETATM   11  N   UNL     1      -7.960  13.991  68.266  1.00  0.00    -0.137 N  
BRANCH  11  12
HETATM   12  C   UNL     1      -7.384  12.853  67.571  1.00  0.00    -0.154 C  
HETATM   13  C   UNL     1      -8.452  11.820  67.240  1.00  0.00    -0.160 C  
HETATM   14  C   UNL     1      -6.263  12.226  68.399  1.00  0.00    -0.053 C  
ENDBRANCH  11  12
ENDBRANCH   7   8
ENDBRANCH   6   7
ENDBRANCH   4   6
BRANCH   4  15
HETATM   15  C   UNL     1     -10.473  17.701  68.581  1.00  0.00    -0.317 C  
BRANCH  15  16
HETATM   16  O   UNL     1     -11.017  17.787  67.252  1.00  0.00    -0.218 OA 
BRANCH  16  17
HETATM   17  C   UNL     1     -10.256  18.413  66.328  1.00  0.00    -0.406 C  
HETATM   18  O   UNL     1     -10.641  19.167  65.449  1.00  0.00    -0.508 OA 
HETATM   19  H1  UNL     1      -8.385  18.534  65.789  1.00  0.00     0.000 HD 
HETATM   20  N   UNL     1      -8.960  18.061  66.487  1.00  0.00    -0.273 N  
HETATM   21  H2  UNL     1      -8.610  17.418  67.197  1.00  0.00     0.000 HD 
ENDBRANCH  16  17
ENDBRANCH  15  16
ENDBRANCH   4  15
ENDBRANCH   3   4
ENDBRANCH   2   3
TORSDOF 9
ENDMDL
MODEL      144
REMARK 921   NORMALIZED FREE ENERGY PREDICTED BY IDOCK:   -3.22 KCAL/MOL
REMARK 922        TOTAL FREE ENERGY PREDICTED BY IDOCK:   -5.86 KCAL/MOL
REMARK 923 INTER-LIGAND FREE ENERGY PREDICTED BY IDOCK:   -4.91 KCAL/MOL
REMARK 924 INTRA-LIGAND FREE ENERGY PREDICTED BY IDOCK:   -0.95 KCAL/MOL
REMARK 927      BINDING AFFINITY PREDICTED BY RF-SCORE:    0.00 PKD
ROOT
HETATM    1  C   UNL     1      -9.108  15.302  67.747  1.00  0.00    -0.182 C  
HETATM    2  C   UNL     1     -10.229  14.396  67.256  1.00  0.00    -0.252 C  
ENDROOT
BRANCH   2   3
HETATM    3  C   UNL     1     -10.383  13.153  68.143  1.00  0.00    -0.247 C  
BRANCH   3   4
HETATM    4  C   UNL     1     -10.971  11.888  67.441  1.00  0.00    -0.315 C  
HETATM    5  C   UNL     1     -11.660  12.280  66.118  1.00  0.00    -0.450 C  
BRANCH   4   6
HETATM    6  C   UNL     1     -12.033  11.269  68.396  1.00  0.00    -0.185 C  
BRANCH   6   7
HETATM    7  O   UNL     1     -11.819  11.708  69.751  1.00  0.00    -0.308 OA 
BRANCH   7   8
HETATM    8  C   UNL     1     -12.155  10.833  70.734  1.00  0.00    -0.372 C  
HETATM    9  H   UNL     1     -11.166   9.472  69.551  1.00  0.00     0.000 HD 
HETATM   10  O   UNL     1     -12.807  11.106  71.731  1.00  0.00    -0.422 OA 
HETATM   11  N   UNL     1     -11.641   9.606  70.443  1.00  0.00    -0.255 N  
BRANCH  11  12
HETATM   12  C   UNL     1     -11.744   8.481  71.357  1.00  0.00    -0.294 C  
HETATM   13  C   UNL     1     -10.513   8.393  72.250  1.00  0.00    -0.407 C  
HETATM   14  C   UNL     1     -11.948   7.176  70.587  1.00  0.00    -0.312 C  
ENDBRANCH  11  12
ENDBRANCH   7   8
ENDBRANCH   6   7
ENDBRANCH   4   6
BRANCH   4  15
HETATM   15  C   UNL     1      -9.873  10.837  67.135  1.00  0.00    -0.185 C  
BRANCH  15  16
HETATM   16  O   UNL     1      -8.836  10.902  68.130  1.00  0.00    -0.128 OA 
BRANCH  16  17
HETATM   17  C   UNL     1      -8.637   9.786  68.866  1.00  0.00    -0.134 C  
HETATM   18  O   UNL     1      -8.878   8.637  68.537  1.00  0.00    -0.140 OA 
HETATM   19  H1  UNL     1      -7.992   9.279  70.636  1.00  0.00     0.000 HD 
HETATM   20  N   UNL     1      -8.143  10.121  70.080  1.00  0.00    -0.325 N  
HETATM   21  H2  UNL     1      -7.950  11.072  70.393  1.00  0.00     0.000 HD 
ENDBRANCH  16  17
ENDBRANCH  15  16
ENDBRANCH   4  15
ENDBRANCH   3   4
ENDBRANCH   2   3
TORSDOF 9
ENDMDL
MODEL      145
REMARK 921   NORMALIZED FREE ENERGY PREDICTED BY IDOCK:   -3.20 KCAL/MOL
REMARK 922        TOTAL FREE ENERGY PREDICTED BY IDOCK:   -5.83 KCAL/MOL
REMARK 923 INTER-LIGAND FREE ENERGY PREDICTED BY IDOCK:   -5.40 KCAL/MOL
REMARK 924 INTRA-LIGAND FREE ENERGY PREDICTED BY IDOCK:   -0.43 KCAL/MOL
REMARK 927      BINDING AFFINITY PREDICTED BY RF-SCORE:    0.00 PKD
ROOT
HETATM    1  C   UNL     1      -7.118  12.100  67.690  1.00  0.00    -0.124 C  
HETATM    2  C   UNL     1      -8.434  12.569  67.082  1.00  0.00    -0.186 C  
ENDROOT
BRANCH   2   3
HETATM    3  C   UNL     1      -9.566  12.580  68.118  1.00  0.00    -0.215 C  
BRANCH   3   4
HETATM    4  C   UNL     1     -11.013  12.479  67.542  1.00  0.00    -0.288 C  
HETATM    5  C   UNL     1     -11.700  13.859  67.574  1.00  0.00    -0.416 C  
BRANCH   4   6
HETATM    6  C   UNL     1     -11.814  11.498  68.446  1.00  0.00    -0.283 C  
BRANCH   6   7
HETATM    7  O   UNL     1     -11.057  11.153  69.622  1.00  0.00    -0.251 OA 
BRANCH   7   8
HETATM    8  C   UNL     1     -11.082   9.849  70.000  1.00  0.00    -0.285 C  
HETATM    9  H   UNL     1      -9.412   9.705  68.809  1.00  0.00     0.000 HD 
HETATM   10  O   UNL     1     -11.922   9.340  70.728  1.00  0.00    -0.276 OA 
HETATM   11  N   UNL     1     -10.017   9.199  69.455  1.00  0.00    -0.182 N  
BRANCH  11  12
HETATM   12  C   UNL     1      -9.712   7.811  69.759  1.00  0.00    -0.176 C  
HETATM   13  C   UNL     1      -8.224   7.628  70.027  1.00  0.00    -0.125 C  
HETATM   14  C   UNL     1     -10.175   6.895  68.626  1.00  0.00    -0.181 C  
ENDBRANCH  11  12
ENDBRANCH   7   8
ENDBRANCH   6   7
ENDBRANCH   4   6
BRANCH   4  15
HETATM   15  C   UNL     1     -11.016  11.959  66.082  1.00  0.00    -0.308 C  
BRANCH  15  16
HETATM   16  O   UNL     1     -12.149  12.488  65.371  1.00  0.00    -0.433 OA 
BRANCH  16  17
HETATM   17  C   UNL     1     -11.878  13.307  64.329  1.00  0.00    -0.417 C  
HETATM   18  O   UNL     1     -12.612  14.159  63.857  1.00  0.00    -0.752 OA 
HETATM   19  H1  UNL     1     -10.447  13.646  63.049  1.00  0.00     0.000 HD 
HETATM   20  N   UNL     1     -10.651  13.028  63.835  1.00  0.00    -0.508 N  
HETATM   21  H2  UNL     1     -10.024  12.309  64.194  1.00  0.00     0.000 HD 
ENDBRANCH  16  17
ENDBRANCH  15  16
ENDBRANCH   4  15
ENDBRANCH   3   4
ENDBRANCH   2   3
TORSDOF 9
ENDMDL
MODEL      146
REMARK 921   NORMALIZED FREE ENERGY PREDICTED BY IDOCK:   -3.20 KCAL/MOL
REMARK 922        TOTAL FREE ENERGY PREDICTED BY IDOCK:   -5.82 KCAL/MOL
REMARK 923 INTER-LIGAND FREE ENERGY PREDICTED BY IDOCK:   -5.20 KCAL/MOL
REMARK 924 INTRA-LIGAND FREE ENERGY PREDICTED BY IDOCK:   -0.63 KCAL/MOL
REMARK 927      BINDING AFFINITY PREDICTED BY RF-SCORE:    0.00 PKD
ROOT
HETATM    1  C   UNL     1     -10.473   9.197  67.523  1.00  0.00    -0.335 C  
HETATM    2  C   UNL     1     -10.087   7.844  68.105  1.00  0.00    -0.228 C  
ENDROOT
BRANCH   2   3
HETATM    3  C   UNL     1      -9.661   7.959  69.575  1.00  0.00    -0.173 C  
BRANCH   3   4
HETATM    4  C   UNL     1     -10.442   7.055  70.580  1.00  0.00    -0.227 C  
HETATM    5  C   UNL     1     -10.873   5.742  69.896  1.00  0.00    -0.417 C  
BRANCH   4   6
HETATM    6  C   UNL     1     -11.715   7.832  71.023  1.00  0.00    -0.281 C  
BRANCH   6   7
HETATM    7  O   UNL     1     -11.377   9.162  71.459  1.00  0.00    -0.314 OA 
BRANCH   7   8
HETATM    8  C   UNL     1     -12.149  10.173  70.985  1.00  0.00    -0.377 C  
HETATM    9  H   UNL     1     -10.344  10.994  70.437  1.00  0.00     0.000 HD 
HETATM   10  O   UNL     1     -13.367  10.230  71.066  1.00  0.00    -0.368 OA 
HETATM   11  N   UNL     1     -11.357  11.109  70.392  1.00  0.00    -0.179 N  
BRANCH  11  12
HETATM   12  C   UNL     1     -11.900  12.264  69.698  1.00  0.00    -0.324 C  
HETATM   13  C   UNL     1     -10.901  12.808  68.686  1.00  0.00    -0.284 C  
HETATM   14  C   UNL     1     -12.308  13.350  70.693  1.00  0.00    -0.423 C  
ENDBRANCH  11  12
ENDBRANCH   7   8
ENDBRANCH   6   7
ENDBRANCH   4   6
BRANCH   4  15
HETATM   15  C   UNL     1      -9.587   6.707  71.825  1.00  0.00    -0.158 C  
BRANCH  15  16
HETATM   16  O   UNL     1      -9.852   5.357  72.244  1.00  0.00    -0.158 OA 
BRANCH  16  17
HETATM   17  C   UNL     1     -10.665   5.206  73.314  1.00  0.00    -0.266 C  
HETATM   18  O   UNL     1     -11.338   4.227  73.591  1.00  0.00    -0.268 OA 
HETATM   19  H1  UNL     1     -11.277   6.224  74.860  1.00  0.00     0.000 HD 
HETATM   20  N   UNL     1     -10.664   6.338  74.054  1.00  0.00    -0.414 N  
HETATM   21  H2  UNL     1     -10.128   7.179  73.837  1.00  0.00     0.000 HD 
ENDBRANCH  16  17
ENDBRANCH  15  16
ENDBRANCH   4  15
ENDBRANCH   3   4
ENDBRANCH   2   3
TORSDOF 9
ENDMDL
MODEL      147
REMARK 921   NORMALIZED FREE ENERGY PREDICTED BY IDOCK:   -3.19 KCAL/MOL
REMARK 922        TOTAL FREE ENERGY PREDICTED BY IDOCK:   -5.82 KCAL/MOL
REMARK 923 INTER-LIGAND FREE ENERGY PREDICTED BY IDOCK:   -5.29 KCAL/MOL
REMARK 924 INTRA-LIGAND FREE ENERGY PREDICTED BY IDOCK:   -0.52 KCAL/MOL
REMARK 927      BINDING AFFINITY PREDICTED BY RF-SCORE:    0.00 PKD
ROOT
HETATM    1  C   UNL     1     -12.081  13.692  63.858  1.00  0.00    -0.462 C  
HETATM    2  C   UNL     1     -12.482  12.661  64.903  1.00  0.00    -0.564 C  
ENDROOT
BRANCH   2   3
HETATM    3  C   UNL     1     -12.185  13.150  66.327  1.00  0.00    -0.423 C  
BRANCH   3   4
HETATM    4  C   UNL     1     -10.952  12.496  67.026  1.00  0.00    -0.306 C  
HETATM    5  C   UNL     1     -10.258  11.504  66.071  1.00  0.00    -0.283 C  
BRANCH   4   6
HETATM    6  C   UNL     1     -11.471  11.717  68.269  1.00  0.00    -0.307 C  
BRANCH   6   7
HETATM    7  O   UNL     1     -11.236  10.304  68.122  1.00  0.00    -0.278 OA 
BRANCH   7   8
HETATM    8  C   UNL     1     -10.836   9.636  69.234  1.00  0.00    -0.205 C  
HETATM    9  H   UNL     1     -11.000   7.980  68.025  1.00  0.00     0.000 HD 
HETATM   10  O   UNL     1     -10.604  10.146  70.321  1.00  0.00    -0.285 OA 
HETATM   11  N   UNL     1     -10.719   8.310  68.949  1.00  0.00    -0.127 N  
BRANCH  11  12
HETATM   12  C   UNL     1     -10.209   7.347  69.910  1.00  0.00    -0.211 C  
HETATM   13  C   UNL     1      -8.811   6.882  69.525  1.00  0.00    -0.133 C  
HETATM   14  C   UNL     1     -11.159   6.156  70.038  1.00  0.00    -0.462 C  
ENDBRANCH  11  12
ENDBRANCH   7   8
ENDBRANCH   6   7
ENDBRANCH   4   6
BRANCH   4  15
HETATM   15  C   UNL     1      -9.915  13.557  67.474  1.00  0.00    -0.230 C  
BRANCH  15  16
HETATM   16  O   UNL     1     -10.520  14.480  68.397  1.00  0.00    -0.234 OA 
BRANCH  16  17
HETATM   17  C   UNL     1     -10.385  15.794  68.111  1.00  0.00    -0.242 C  
HETATM   18  O   UNL     1     -10.821  16.380  67.134  1.00  0.00    -0.279 OA 
HETATM   19  H1  UNL     1      -9.548  17.391  68.855  1.00  0.00     0.000 HD 
HETATM   20  N   UNL     1      -9.649  16.399  69.071  1.00  0.00    -0.259 N  
HETATM   21  H2  UNL     1      -9.254  15.933  69.888  1.00  0.00     0.000 HD 
ENDBRANCH  16  17
ENDBRANCH  15  16
ENDBRANCH   4  15
ENDBRANCH   3   4
ENDBRANCH   2   3
TORSDOF 9
ENDMDL
MODEL      148
REMARK 921   NORMALIZED FREE ENERGY PREDICTED BY IDOCK:   -3.18 KCAL/MOL
REMARK 922        TOTAL FREE ENERGY PREDICTED BY IDOCK:   -5.80 KCAL/MOL
REMARK 923 INTER-LIGAND FREE ENERGY PREDICTED BY IDOCK:   -5.32 KCAL/MOL
REMARK 924 INTRA-LIGAND FREE ENERGY PREDICTED BY IDOCK:   -0.48 KCAL/MOL
REMARK 927      BINDING AFFINITY PREDICTED BY RF-SCORE:    0.00 PKD
ROOT
HETATM    1  C   UNL     1      -6.070  14.108  68.301  1.00  0.00    -0.118 C  
HETATM    2  C   UNL     1      -7.270  14.256  67.376  1.00  0.00    -0.137 C  
ENDROOT
BRANCH   2   3
HETATM    3  C   UNL     1      -8.592  14.008  68.116  1.00  0.00    -0.181 C  
BRANCH   3   4
HETATM    4  C   UNL     1      -9.837  14.760  67.551  1.00  0.00    -0.218 C  
HETATM    5  C   UNL     1      -9.597  15.169  66.084  1.00  0.00    -0.344 C  
BRANCH   4   6
HETATM    6  C   UNL     1     -10.039  16.046  68.404  1.00  0.00    -0.229 C  
BRANCH   6   7
HETATM    7  O   UNL     1      -8.811  16.428  69.053  1.00  0.00    -0.253 OA 
BRANCH   7   8
HETATM    8  C   UNL     1      -8.249  17.597  68.651  1.00  0.00    -0.264 C  
HETATM    9  H   UNL     1      -9.866  17.679  67.383  1.00  0.00     0.000 HD 
HETATM   10  O   UNL     1      -7.199  18.059  69.075  1.00  0.00    -0.264 OA 
HETATM   11  N   UNL     1      -9.043  18.183  67.713  1.00  0.00    -0.260 N  
BRANCH  11  12
HETATM   12  C   UNL     1      -8.760  19.498  67.163  1.00  0.00    -0.301 C  
HETATM   13  C   UNL     1     -10.015  20.116  66.561  1.00  0.00    -0.586 C  
HETATM   14  C   UNL     1      -7.643  19.421  66.123  1.00  0.00    -0.308 C  
ENDBRANCH  11  12
ENDBRANCH   7   8
ENDBRANCH   6   7
ENDBRANCH   4   6
BRANCH   4  15
HETATM   15  C   UNL     1     -11.116  13.887  67.619  1.00  0.00    -0.277 C  
BRANCH  15  16
HETATM   16  O   UNL     1     -10.807  12.602  68.185  1.00  0.00    -0.211 OA 
BRANCH  16  17
HETATM   17  C   UNL     1     -11.694  12.107  69.078  1.00  0.00    -0.322 C  
HETATM   18  O   UNL     1     -12.400  11.122  68.942  1.00  0.00    -0.512 OA 
HETATM   19  H1  UNL     1     -12.394  12.522  70.851  1.00  0.00     0.000 HD 
HETATM   20  N   UNL     1     -11.725  12.895  70.177  1.00  0.00    -0.530 N  
HETATM   21  H2  UNL     1     -11.163  13.735  70.312  1.00  0.00     0.000 HD 
ENDBRANCH  16  17
ENDBRANCH  15  16
ENDBRANCH   4  15
ENDBRANCH   3   4
ENDBRANCH   2   3
TORSDOF 9
ENDMDL
MODEL      149
REMARK 921   NORMALIZED FREE ENERGY PREDICTED BY IDOCK:   -3.17 KCAL/MOL
REMARK 922        TOTAL FREE ENERGY PREDICTED BY IDOCK:   -5.79 KCAL/MOL
REMARK 923 INTER-LIGAND FREE ENERGY PREDICTED BY IDOCK:   -4.91 KCAL/MOL
REMARK 924 INTRA-LIGAND FREE ENERGY PREDICTED BY IDOCK:   -0.88 KCAL/MOL
REMARK 927      BINDING AFFINITY PREDICTED BY RF-SCORE:    0.00 PKD
ROOT
HETATM    1  C   UNL     1      -8.228   5.911  73.288  1.00  0.00    -0.116 C  
HETATM    2  C   UNL     1      -9.678   6.375  73.326  1.00  0.00    -0.174 C  
ENDROOT
BRANCH   2   3
HETATM    3  C   UNL     1     -10.478   5.835  72.133  1.00  0.00    -0.258 C  
BRANCH   3   4
HETATM    4  C   UNL     1     -11.156   6.911  71.228  1.00  0.00    -0.293 C  
HETATM    5  C   UNL     1     -12.691   6.774  71.290  1.00  0.00    -0.299 C  
BRANCH   4   6
HETATM    6  C   UNL     1     -10.688   6.661  69.766  1.00  0.00    -0.257 C  
BRANCH   6   7
HETATM    7  O   UNL     1     -10.532   7.906  69.059  1.00  0.00    -0.214 OA 
BRANCH   7   8
HETATM    8  C   UNL     1     -10.477   7.834  67.704  1.00  0.00    -0.239 C  
HETATM    9  H   UNL     1      -9.544   9.659  67.868  1.00  0.00     0.000 HD 
HETATM   10  O   UNL     1     -10.930   6.923  67.026  1.00  0.00    -0.379 OA 
HETATM   11  N   UNL     1      -9.826   8.926  67.217  1.00  0.00    -0.183 N  
BRANCH  11  12
HETATM   12  C   UNL     1      -9.517   9.086  65.807  1.00  0.00    -0.236 C  
HETATM   13  C   UNL     1      -8.047   8.798  65.536  1.00  0.00    -0.115 C  
HETATM   14  C   UNL     1      -9.890  10.489  65.328  1.00  0.00    -0.345 C  
ENDBRANCH  11  12
ENDBRANCH   7   8
ENDBRANCH   6   7
ENDBRANCH   4   6
BRANCH   4  15
HETATM   15  C   UNL     1     -10.770   8.350  71.658  1.00  0.00    -0.265 C  
BRANCH  15  16
HETATM   16  O   UNL     1     -11.952   9.101  71.987  1.00  0.00    -0.367 OA 
BRANCH  16  17
HETATM   17  C   UNL     1     -12.156  10.240  71.288  1.00  0.00    -0.382 C  
HETATM   18  O   UNL     1     -13.133  10.968  71.341  1.00  0.00    -0.395 OA 
HETATM   19  H1  UNL     1     -11.262  11.324  69.936  1.00  0.00     0.000 HD 
HETATM   20  N   UNL     1     -11.108  10.465  70.463  1.00  0.00    -0.394 N  
HETATM   21  H2  UNL     1     -10.288   9.865  70.380  1.00  0.00     0.000 HD 
ENDBRANCH  16  17
ENDBRANCH  15  16
ENDBRANCH   4  15
ENDBRANCH   3   4
ENDBRANCH   2   3
TORSDOF 9
ENDMDL
MODEL      150
REMARK 921   NORMALIZED FREE ENERGY PREDICTED BY IDOCK:   -3.17 KCAL/MOL
REMARK 922        TOTAL FREE ENERGY PREDICTED BY IDOCK:   -5.78 KCAL/MOL
REMARK 923 INTER-LIGAND FREE ENERGY PREDICTED BY IDOCK:   -5.05 KCAL/MOL
REMARK 924 INTRA-LIGAND FREE ENERGY PREDICTED BY IDOCK:   -0.73 KCAL/MOL
REMARK 927      BINDING AFFINITY PREDICTED BY RF-SCORE:    0.00 PKD
ROOT
HETATM    1  C   UNL     1      -6.882   9.235  69.957  1.00  0.00    -0.053 C  
HETATM    2  C   UNL     1      -7.373   8.479  68.729  1.00  0.00    -0.090 C  
ENDROOT
BRANCH   2   3
HETATM    3  C   UNL     1      -8.172   9.388  67.785  1.00  0.00    -0.114 C  
BRANCH   3   4
HETATM    4  C   UNL     1      -9.718   9.394  67.996  1.00  0.00    -0.167 C  
HETATM    5  C   UNL     1     -10.156   8.148  68.792  1.00  0.00    -0.211 C  
BRANCH   4   6
HETATM    6  C   UNL     1     -10.386   9.352  66.591  1.00  0.00    -0.214 C  
BRANCH   6   7
HETATM    7  O   UNL     1      -9.447   9.728  65.566  1.00  0.00    -0.221 OA 
BRANCH   7   8
HETATM    8  C   UNL     1      -9.834  10.716  64.719  1.00  0.00    -0.310 C  
HETATM    9  H   UNL     1     -11.403  10.920  66.032  1.00  0.00     0.000 HD 
HETATM   10  O   UNL     1      -9.252  11.035  63.692  1.00  0.00    -0.213 OA 
HETATM   11  N   UNL     1     -10.963  11.307  65.198  1.00  0.00    -0.199 N  
BRANCH  11  12
HETATM   12  C   UNL     1     -11.564  12.468  64.564  1.00  0.00    -0.348 C  
HETATM   13  C   UNL     1     -12.306  13.321  65.585  1.00  0.00    -0.521 C  
HETATM   14  C   UNL     1     -12.500  12.043  63.433  1.00  0.00    -0.625 C  
ENDBRANCH  11  12
ENDBRANCH   7   8
ENDBRANCH   6   7
ENDBRANCH   4   6
BRANCH   4  15
HETATM   15  C   UNL     1     -10.191  10.659  68.757  1.00  0.00    -0.190 C  
BRANCH  15  16
HETATM   16  O   UNL     1     -11.628  10.721  68.768  1.00  0.00    -0.282 OA 
BRANCH  16  17
HETATM   17  C   UNL     1     -12.209  11.024  69.950  1.00  0.00    -0.336 C  
HETATM   18  O   UNL     1     -12.067  12.049  70.596  1.00  0.00    -0.373 OA 
HETATM   19  H1  UNL     1     -13.418  10.219  71.252  1.00  0.00     0.000 HD 
HETATM   20  N   UNL     1     -12.979   9.990  70.360  1.00  0.00    -0.585 N  
HETATM   21  H2  UNL     1     -13.102   9.114  69.853  1.00  0.00     0.000 HD 
ENDBRANCH  16  17
ENDBRANCH  15  16
ENDBRANCH   4  15
ENDBRANCH   3   4
ENDBRANCH   2   3
TORSDOF 9
ENDMDL
MODEL      151
REMARK 921   NORMALIZED FREE ENERGY PREDICTED BY IDOCK:   -3.16 KCAL/MOL
REMARK 922        TOTAL FREE ENERGY PREDICTED BY IDOCK:   -5.77 KCAL/MOL
REMARK 923 INTER-LIGAND FREE ENERGY PREDICTED BY IDOCK:   -4.95 KCAL/MOL
REMARK 924 INTRA-LIGAND FREE ENERGY PREDICTED BY IDOCK:   -0.82 KCAL/MOL
REMARK 927      BINDING AFFINITY PREDICTED BY RF-SCORE:    0.00 PKD
ROOT
HETATM    1  C   UNL     1      -9.570  13.993  66.490  1.00  0.00    -0.307 C  
HETATM    2  C   UNL     1      -9.198  12.952  67.537  1.00  0.00    -0.192 C  
ENDROOT
BRANCH   2   3
HETATM    3  C   UNL     1      -9.280  11.527  66.975  1.00  0.00    -0.180 C  
BRANCH   3   4
HETATM    4  C   UNL     1     -10.169  10.529  67.783  1.00  0.00    -0.223 C  
HETATM    5  C   UNL     1     -11.479  11.213  68.223  1.00  0.00    -0.373 C  
BRANCH   4   6
HETATM    6  C   UNL     1      -9.371  10.107  69.050  1.00  0.00    -0.188 C  
BRANCH   6   7
HETATM    7  O   UNL     1     -10.202  10.181  70.225  1.00  0.00    -0.247 OA 
BRANCH   7   8
HETATM    8  C   UNL     1     -10.181   9.105  71.053  1.00  0.00    -0.302 C  
HETATM    9  H   UNL     1     -11.758   8.468  69.898  1.00  0.00     0.000 HD 
HETATM   10  O   UNL     1      -9.419   8.955  71.997  1.00  0.00    -0.295 OA 
HETATM   11  N   UNL     1     -11.132   8.213  70.661  1.00  0.00    -0.253 N  
BRANCH  11  12
HETATM   12  C   UNL     1     -11.287   6.913  71.290  1.00  0.00    -0.279 C  
HETATM   13  C   UNL     1     -10.907   5.795  70.327  1.00  0.00    -0.373 C  
HETATM   14  C   UNL     1     -12.716   6.725  71.799  1.00  0.00    -0.342 C  
ENDBRANCH  11  12
ENDBRANCH   7   8
ENDBRANCH   6   7
ENDBRANCH   4   6
BRANCH   4  15
HETATM   15  C   UNL     1     -10.524   9.271  66.950  1.00  0.00    -0.214 C  
BRANCH  15  16
HETATM   16  O   UNL     1      -9.474   8.293  67.060  1.00  0.00    -0.155 OA 
BRANCH  16  17
HETATM   17  C   UNL     1      -9.843   6.997  66.951  1.00  0.00    -0.199 C  
HETATM   18  O   UNL     1      -9.106   6.031  66.848  1.00  0.00    -0.120 OA 
HETATM   19  H1  UNL     1     -11.471   5.927  66.855  1.00  0.00     0.000 HD 
HETATM   20  N   UNL     1     -11.193   6.905  66.938  1.00  0.00    -0.713 N  
HETATM   21  H2  UNL     1     -11.835   7.695  67.001  1.00  0.00     0.000 HD 
ENDBRANCH  16  17
ENDBRANCH  15  16
ENDBRANCH   4  15
ENDBRANCH   3   4
ENDBRANCH   2   3
TORSDOF 9
ENDMDL
MODEL      152
REMARK 921   NORMALIZED FREE ENERGY PREDICTED BY IDOCK:   -3.14 KCAL/MOL
REMARK 922        TOTAL FREE ENERGY PREDICTED BY IDOCK:   -5.73 KCAL/MOL
REMARK 923 INTER-LIGAND FREE ENERGY PREDICTED BY IDOCK:   -5.70 KCAL/MOL
REMARK 924 INTRA-LIGAND FREE ENERGY PREDICTED BY IDOCK:   -0.03 KCAL/MOL
REMARK 927      BINDING AFFINITY PREDICTED BY RF-SCORE:    0.00 PKD
ROOT
HETATM    1  C   UNL     1      -6.611  19.793  66.736  1.00  0.00    -0.206 C  
HETATM    2  C   UNL     1      -6.470  18.277  66.775  1.00  0.00    -0.209 C  
ENDROOT
BRANCH   2   3
HETATM    3  C   UNL     1      -7.768  17.575  66.350  1.00  0.00    -0.332 C  
BRANCH   3   4
HETATM    4  C   UNL     1      -8.592  16.919  67.502  1.00  0.00    -0.211 C  
HETATM    5  C   UNL     1      -7.676  16.594  68.699  1.00  0.00    -0.224 C  
BRANCH   4   6
HETATM    6  C   UNL     1      -9.193  15.592  66.955  1.00  0.00    -0.236 C  
BRANCH   6   7
HETATM    7  O   UNL     1     -10.375  15.224  67.691  1.00  0.00    -0.244 OA 
BRANCH   7   8
HETATM    8  C   UNL     1     -11.131  14.225  67.167  1.00  0.00    -0.311 C  
HETATM    9  H   UNL     1      -9.542  13.999  65.882  1.00  0.00     0.000 HD 
HETATM   10  O   UNL     1     -12.250  13.912  67.548  1.00  0.00    -0.366 OA 
HETATM   11  N   UNL     1     -10.445  13.616  66.162  1.00  0.00    -0.292 N  
BRANCH  11  12
HETATM   12  C   UNL     1     -10.950  12.441  65.472  1.00  0.00    -0.293 C  
HETATM   13  C   UNL     1     -12.384  12.659  65.007  1.00  0.00    -0.561 C  
HETATM   14  C   UNL     1     -10.854  11.206  66.367  1.00  0.00    -0.284 C  
ENDBRANCH  11  12
ENDBRANCH   7   8
ENDBRANCH   6   7
ENDBRANCH   4   6
BRANCH   4  15
HETATM   15  C   UNL     1      -9.736  17.844  67.991  1.00  0.00    -0.303 C  
BRANCH  15  16
HETATM   16  O   UNL     1     -10.331  18.526  66.873  1.00  0.00    -0.360 OA 
BRANCH  16  17
HETATM   17  C   UNL     1     -10.184  19.870  66.840  1.00  0.00    -0.470 C  
HETATM   18  O   UNL     1      -9.923  20.602  67.779  1.00  0.00    -0.366 OA 
HETATM   19  H1  UNL     1     -10.293  21.337  65.560  1.00  0.00     0.000 HD 
HETATM   20  N   UNL     1     -10.404  20.323  65.584  1.00  0.00    -0.435 N  
HETATM   21  H2  UNL     1     -10.644  19.739  64.784  1.00  0.00     0.000 HD 
ENDBRANCH  16  17
ENDBRANCH  15  16
ENDBRANCH   4  15
ENDBRANCH   3   4
ENDBRANCH   2   3
TORSDOF 9
ENDMDL
MODEL      153
REMARK 921   NORMALIZED FREE ENERGY PREDICTED BY IDOCK:   -3.13 KCAL/MOL
REMARK 922        TOTAL FREE ENERGY PREDICTED BY IDOCK:   -5.73 KCAL/MOL
REMARK 923 INTER-LIGAND FREE ENERGY PREDICTED BY IDOCK:   -5.01 KCAL/MOL
REMARK 924 INTRA-LIGAND FREE ENERGY PREDICTED BY IDOCK:   -0.72 KCAL/MOL
REMARK 927      BINDING AFFINITY PREDICTED BY RF-SCORE:    0.00 PKD
ROOT
HETATM    1  C   UNL     1     -10.024   9.302  66.065  1.00  0.00    -0.325 C  
HETATM    2  C   UNL     1     -10.031   8.024  66.893  1.00  0.00    -0.338 C  
ENDROOT
BRANCH   2   3
HETATM    3  C   UNL     1      -9.419   8.245  68.283  1.00  0.00    -0.146 C  
BRANCH   3   4
HETATM    4  C   UNL     1     -10.307   7.812  69.492  1.00  0.00    -0.219 C  
HETATM    5  C   UNL     1     -11.182   6.602  69.108  1.00  0.00    -0.305 C  
BRANCH   4   6
HETATM    6  C   UNL     1     -11.235   9.009  69.849  1.00  0.00    -0.079 C  
BRANCH   6   7
HETATM    7  O   UNL     1     -10.602  10.262  69.522  1.00  0.00    -0.213 OA 
BRANCH   7   8
HETATM    8  C   UNL     1     -11.417  11.263  69.102  1.00  0.00    -0.297 C  
HETATM    9  H   UNL     1     -11.026  12.057  70.959  1.00  0.00     0.000 HD 
HETATM   10  O   UNL     1     -11.988  11.304  68.022  1.00  0.00    -0.621 OA 
HETATM   11  N   UNL     1     -11.491  12.222  70.066  1.00  0.00    -0.137 N  
BRANCH  11  12
HETATM   12  C   UNL     1     -12.207  13.471  69.870  1.00  0.00    -0.292 C  
HETATM   13  C   UNL     1     -11.249  14.593  69.491  1.00  0.00    -0.300 C  
HETATM   14  C   UNL     1     -13.003  13.840  71.122  1.00  0.00    -0.370 C  
ENDBRANCH  11  12
ENDBRANCH   7   8
ENDBRANCH   6   7
ENDBRANCH   4   6
BRANCH   4  15
HETATM   15  C   UNL     1      -9.452   7.432  70.727  1.00  0.00    -0.167 C  
BRANCH  15  16
HETATM   16  O   UNL     1     -10.148   6.464  71.531  1.00  0.00    -0.190 OA 
BRANCH  16  17
HETATM   17  C   UNL     1     -10.643   6.903  72.710  1.00  0.00    -0.240 C  
HETATM   18  O   UNL     1     -10.447   7.990  73.228  1.00  0.00    -0.293 OA 
HETATM   19  H1  UNL     1     -11.762   6.264  74.174  1.00  0.00     0.000 HD 
HETATM   20  N   UNL     1     -11.390   5.932  73.284  1.00  0.00    -0.476 N  
HETATM   21  H2  UNL     1     -11.554   5.008  72.887  1.00  0.00     0.000 HD 
ENDBRANCH  16  17
ENDBRANCH  15  16
ENDBRANCH   4  15
ENDBRANCH   3   4
ENDBRANCH   2   3
TORSDOF 9
ENDMDL
MODEL      154
REMARK 921   NORMALIZED FREE ENERGY PREDICTED BY IDOCK:   -3.13 KCAL/MOL
REMARK 922        TOTAL FREE ENERGY PREDICTED BY IDOCK:   -5.72 KCAL/MOL
REMARK 923 INTER-LIGAND FREE ENERGY PREDICTED BY IDOCK:   -4.95 KCAL/MOL
REMARK 924 INTRA-LIGAND FREE ENERGY PREDICTED BY IDOCK:   -0.78 KCAL/MOL
REMARK 927      BINDING AFFINITY PREDICTED BY RF-SCORE:    0.00 PKD
ROOT
HETATM    1  C   UNL     1      -6.835  18.513  65.477  1.00  0.00    -0.230 C  
HETATM    2  C   UNL     1      -7.889  17.537  65.983  1.00  0.00    -0.213 C  
ENDROOT
BRANCH   2   3
HETATM    3  C   UNL     1      -8.220  17.776  67.462  1.00  0.00    -0.228 C  
BRANCH   3   4
HETATM    4  C   UNL     1      -7.823  16.625  68.440  1.00  0.00    -0.202 C  
HETATM    5  C   UNL     1      -7.273  15.419  67.653  1.00  0.00    -0.206 C  
BRANCH   4   6
HETATM    6  C   UNL     1      -9.109  16.186  69.198  1.00  0.00    -0.243 C  
BRANCH   6   7
HETATM    7  O   UNL     1     -10.288  16.511  68.437  1.00  0.00    -0.264 OA 
BRANCH   7   8
HETATM    8  C   UNL     1     -10.974  15.467  67.903  1.00  0.00    -0.316 C  
HETATM    9  H   UNL     1     -10.244  16.190  66.122  1.00  0.00     0.000 HD 
HETATM   10  O   UNL     1     -11.652  14.670  68.535  1.00  0.00    -0.287 OA 
HETATM   11  N   UNL     1     -10.777  15.437  66.556  1.00  0.00    -0.307 N  
BRANCH  11  12
HETATM   12  C   UNL     1     -11.300  14.374  65.716  1.00  0.00    -0.330 C  
HETATM   13  C   UNL     1     -10.193  13.409  65.309  1.00  0.00    -0.312 C  
HETATM   14  C   UNL     1     -11.994  14.951  64.482  1.00  0.00    -0.420 C  
ENDBRANCH  11  12
ENDBRANCH   7   8
ENDBRANCH   6   7
ENDBRANCH   4   6
BRANCH   4  15
HETATM   15  C   UNL     1      -6.749  17.082  69.460  1.00  0.00    -0.156 C  
BRANCH  15  16
HETATM   16  O   UNL     1      -6.608  18.513  69.421  1.00  0.00    -0.262 OA 
BRANCH  16  17
HETATM   17  C   UNL     1      -5.881  19.074  70.414  1.00  0.00    -0.170 C  
HETATM   18  O   UNL     1      -5.134  18.501  71.189  1.00  0.00    -0.282 OA 
HETATM   19  H1  UNL     1      -5.572  20.827  71.209  1.00  0.00     0.000 HD 
HETATM   20  N   UNL     1      -6.120  20.404  70.460  1.00  0.00    -0.517 N  
HETATM   21  H2  UNL     1      -6.753  20.908  69.840  1.00  0.00     0.000 HD 
ENDBRANCH  16  17
ENDBRANCH  15  16
ENDBRANCH   4  15
ENDBRANCH   3   4
ENDBRANCH   2   3
TORSDOF 9
ENDMDL
MODEL      155
REMARK 921   NORMALIZED FREE ENERGY PREDICTED BY IDOCK:   -3.13 KCAL/MOL
REMARK 922        TOTAL FREE ENERGY PREDICTED BY IDOCK:   -5.72 KCAL/MOL
REMARK 923 INTER-LIGAND FREE ENERGY PREDICTED BY IDOCK:   -5.06 KCAL/MOL
REMARK 924 INTRA-LIGAND FREE ENERGY PREDICTED BY IDOCK:   -0.66 KCAL/MOL
REMARK 927      BINDING AFFINITY PREDICTED BY RF-SCORE:    0.00 PKD
ROOT
HETATM    1  C   UNL     1      -9.773  10.413  64.966  1.00  0.00    -0.362 C  
HETATM    2  C   UNL     1      -9.701   9.255  65.954  1.00  0.00    -0.355 C  
ENDROOT
BRANCH   2   3
HETATM    3  C   UNL     1     -10.745   9.396  67.070  1.00  0.00    -0.207 C  
BRANCH   3   4
HETATM    4  C   UNL     1     -10.234  10.031  68.400  1.00  0.00    -0.196 C  
HETATM    5  C   UNL     1     -10.790   9.257  69.613  1.00  0.00    -0.228 C  
BRANCH   4   6
HETATM    6  C   UNL     1     -10.757  11.495  68.456  1.00  0.00    -0.209 C  
BRANCH   6   7
HETATM    7  O   UNL     1     -11.956  11.640  67.670  1.00  0.00    -0.618 OA 
BRANCH   7   8
HETATM    8  C   UNL     1     -11.953  12.622  66.732  1.00  0.00    -0.292 C  
HETATM    9  H   UNL     1     -10.950  13.689  68.176  1.00  0.00     0.000 HD 
HETATM   10  O   UNL     1     -12.464  12.543  65.624  1.00  0.00    -0.648 OA 
HETATM   11  N   UNL     1     -11.281  13.705  67.212  1.00  0.00    -0.300 N  
BRANCH  11  12
HETATM   12  C   UNL     1     -11.019  14.882  66.401  1.00  0.00    -0.336 C  
HETATM   13  C   UNL     1      -9.850  14.641  65.456  1.00  0.00    -0.327 C  
HETATM   14  C   UNL     1     -10.757  16.100  67.286  1.00  0.00    -0.277 C  
ENDBRANCH  11  12
ENDBRANCH   7   8
ENDBRANCH   6   7
ENDBRANCH   4   6
BRANCH   4  15
HETATM   15  C   UNL     1      -8.685  10.031  68.481  1.00  0.00    -0.123 C  
BRANCH  15  16
HETATM   16  O   UNL     1      -8.172  11.326  68.126  1.00  0.00    -0.127 OA 
BRANCH  16  17
HETATM   17  C   UNL     1      -6.981  11.671  68.666  1.00  0.00    -0.088 C  
HETATM   18  O   UNL     1      -5.911  11.110  68.500  1.00  0.00    -0.043 OA 
HETATM   19  H1  UNL     1      -6.240  13.006  69.879  1.00  0.00     0.000 HD 
HETATM   20  N   UNL     1      -7.138  12.746  69.472  1.00  0.00    -0.324 N  
HETATM   21  H2  UNL     1      -8.022  13.224  69.646  1.00  0.00     0.000 HD 
ENDBRANCH  16  17
ENDBRANCH  15  16
ENDBRANCH   4  15
ENDBRANCH   3   4
ENDBRANCH   2   3
TORSDOF 9
ENDMDL
MODEL      156
REMARK 921   NORMALIZED FREE ENERGY PREDICTED BY IDOCK:   -3.12 KCAL/MOL
REMARK 922        TOTAL FREE ENERGY PREDICTED BY IDOCK:   -5.71 KCAL/MOL
REMARK 923 INTER-LIGAND FREE ENERGY PREDICTED BY IDOCK:   -5.17 KCAL/MOL
REMARK 924 INTRA-LIGAND FREE ENERGY PREDICTED BY IDOCK:   -0.55 KCAL/MOL
REMARK 927      BINDING AFFINITY PREDICTED BY RF-SCORE:    0.00 PKD
ROOT
HETATM    1  C   UNL     1     -10.597   7.343  66.890  1.00  0.00    -0.375 C  
HETATM    2  C   UNL     1     -10.318   8.839  66.857  1.00  0.00    -0.344 C  
ENDROOT
BRANCH   2   3
HETATM    3  C   UNL     1     -10.634   9.506  68.203  1.00  0.00    -0.265 C  
BRANCH   3   4
HETATM    4  C   UNL     1     -10.700  11.065  68.188  1.00  0.00    -0.246 C  
HETATM    5  C   UNL     1     -11.362  11.562  66.887  1.00  0.00    -0.324 C  
BRANCH   4   6
HETATM    6  C   UNL     1      -9.240  11.600  68.245  1.00  0.00    -0.187 C  
BRANCH   6   7
HETATM    7  O   UNL     1      -8.922  12.346  67.054  1.00  0.00    -0.196 OA 
BRANCH   7   8
HETATM    8  C   UNL     1      -8.423  13.595  67.235  1.00  0.00    -0.194 C  
HETATM    9  H   UNL     1     -10.317  14.187  66.695  1.00  0.00     0.000 HD 
HETATM   10  O   UNL     1      -7.271  13.857  67.553  1.00  0.00    -0.170 OA 
HETATM   11  N   UNL     1      -9.406  14.512  67.020  1.00  0.00    -0.228 N  
BRANCH  11  12
HETATM   12  C   UNL     1      -9.207  15.935  67.237  1.00  0.00    -0.206 C  
HETATM   13  C   UNL     1      -9.652  16.338  68.636  1.00  0.00    -0.237 C  
HETATM   14  C   UNL     1      -9.947  16.751  66.178  1.00  0.00    -0.345 C  
ENDBRANCH  11  12
ENDBRANCH   7   8
ENDBRANCH   6   7
ENDBRANCH   4   6
BRANCH   4  15
HETATM   15  C   UNL     1     -11.502  11.618  69.394  1.00  0.00    -0.307 C  
BRANCH  15  16
HETATM   16  O   UNL     1     -12.417  10.620  69.878  1.00  0.00    -0.300 OA 
BRANCH  16  17
HETATM   17  C   UNL     1     -12.389  10.370  71.207  1.00  0.00    -0.401 C  
HETATM   18  O   UNL     1     -11.766   9.488  71.773  1.00  0.00    -0.383 OA 
HETATM   19  H1  UNL     1     -13.176  11.050  72.856  1.00  0.00     0.000 HD 
HETATM   20  N   UNL     1     -13.198  11.239  71.854  1.00  0.00    -0.461 N  
HETATM   21  H2  UNL     1     -13.747  11.974  71.407  1.00  0.00     0.000 HD 
ENDBRANCH  16  17
ENDBRANCH  15  16
ENDBRANCH   4  15
ENDBRANCH   3   4
ENDBRANCH   2   3
TORSDOF 9
ENDMDL
MODEL      157
REMARK 921   NORMALIZED FREE ENERGY PREDICTED BY IDOCK:   -3.12 KCAL/MOL
REMARK 922        TOTAL FREE ENERGY PREDICTED BY IDOCK:   -5.70 KCAL/MOL
REMARK 923 INTER-LIGAND FREE ENERGY PREDICTED BY IDOCK:   -4.96 KCAL/MOL
REMARK 924 INTRA-LIGAND FREE ENERGY PREDICTED BY IDOCK:   -0.75 KCAL/MOL
REMARK 927      BINDING AFFINITY PREDICTED BY RF-SCORE:    0.00 PKD
ROOT
HETATM    1  C   UNL     1     -12.528  13.082  70.847  1.00  0.00    -0.396 C  
HETATM    2  C   UNL     1     -11.861  12.970  69.482  1.00  0.00    -0.385 C  
ENDROOT
BRANCH   2   3
HETATM    3  C   UNL     1     -11.952  14.285  68.696  1.00  0.00    -0.348 C  
BRANCH   3   4
HETATM    4  C   UNL     1     -11.301  14.274  67.278  1.00  0.00    -0.350 C  
HETATM    5  C   UNL     1     -12.160  13.448  66.300  1.00  0.00    -0.475 C  
BRANCH   4   6
HETATM    6  C   UNL     1      -9.902  13.605  67.406  1.00  0.00    -0.234 C  
BRANCH   6   7
HETATM    7  O   UNL     1      -9.825  12.419  66.593  1.00  0.00    -0.214 OA 
BRANCH   7   8
HETATM    8  C   UNL     1      -9.269  11.322  67.168  1.00  0.00    -0.163 C  
HETATM    9  H   UNL     1     -11.213  10.655  67.250  1.00  0.00     0.000 HD 
HETATM   10  O   UNL     1      -8.078  11.175  67.405  1.00  0.00    -0.125 OA 
HETATM   11  N   UNL     1     -10.240  10.404  67.428  1.00  0.00    -0.202 N  
BRANCH  11  12
HETATM   12  C   UNL     1      -9.944   9.081  67.951  1.00  0.00    -0.178 C  
HETATM   13  C   UNL     1     -10.407   7.999  66.985  1.00  0.00    -0.414 C  
HETATM   14  C   UNL     1     -10.582   8.888  69.326  1.00  0.00    -0.219 C  
ENDBRANCH  11  12
ENDBRANCH   7   8
ENDBRANCH   6   7
ENDBRANCH   4   6
BRANCH   4  15
HETATM   15  C   UNL     1     -11.141  15.706  66.707  1.00  0.00    -0.169 C  
BRANCH  15  16
HETATM   16  O   UNL     1      -9.789  16.163  66.890  1.00  0.00    -0.230 OA 
BRANCH  16  17
HETATM   17  C   UNL     1      -9.621  17.247  67.681  1.00  0.00    -0.256 C  
HETATM   18  O   UNL     1     -10.465  18.075  67.978  1.00  0.00    -0.372 OA 
HETATM   19  H1  UNL     1      -8.208  18.135  68.690  1.00  0.00     0.000 HD 
HETATM   20  N   UNL     1      -8.335  17.317  68.094  1.00  0.00    -0.225 N  
HETATM   21  H2  UNL     1      -7.602  16.652  67.846  1.00  0.00     0.000 HD 
ENDBRANCH  16  17
ENDBRANCH  15  16
ENDBRANCH   4  15
ENDBRANCH   3   4
ENDBRANCH   2   3
TORSDOF 9
ENDMDL
MODEL      158
REMARK 921   NORMALIZED FREE ENERGY PREDICTED BY IDOCK:   -3.12 KCAL/MOL
REMARK 922        TOTAL FREE ENERGY PREDICTED BY IDOCK:   -5.70 KCAL/MOL
REMARK 923 INTER-LIGAND FREE ENERGY PREDICTED BY IDOCK:   -5.12 KCAL/MOL
REMARK 924 INTRA-LIGAND FREE ENERGY PREDICTED BY IDOCK:   -0.58 KCAL/MOL
REMARK 927      BINDING AFFINITY PREDICTED BY RF-SCORE:    0.00 PKD
ROOT
HETATM    1  C   UNL     1      -9.391   5.878  71.049  1.00  0.00    -0.178 C  
HETATM    2  C   UNL     1      -8.820   7.116  70.370  1.00  0.00    -0.151 C  
ENDROOT
BRANCH   2   3
HETATM    3  C   UNL     1      -9.462   8.404  70.903  1.00  0.00    -0.205 C  
BRANCH   3   4
HETATM    4  C   UNL     1     -10.173   9.297  69.839  1.00  0.00    -0.235 C  
HETATM    5  C   UNL     1     -10.676   8.435  68.663  1.00  0.00    -0.075 C  
BRANCH   4   6
HETATM    6  C   UNL     1      -9.127  10.317  69.303  1.00  0.00    -0.194 C  
BRANCH   6   7
HETATM    7  O   UNL     1      -9.654  11.048  68.179  1.00  0.00    -0.160 OA 
BRANCH   7   8
HETATM    8  C   UNL     1      -9.361  12.373  68.124  1.00  0.00    -0.209 C  
HETATM    9  H   UNL     1     -11.399  12.601  68.269  1.00  0.00     0.000 HD 
HETATM   10  O   UNL     1      -8.239  12.844  68.003  1.00  0.00    -0.147 OA 
HETATM   11  N   UNL     1     -10.508  13.096  68.238  1.00  0.00    -0.245 N  
BRANCH  11  12
HETATM   12  C   UNL     1     -10.511  14.547  68.317  1.00  0.00    -0.242 C  
HETATM   13  C   UNL     1     -11.563  15.036  69.304  1.00  0.00    -0.338 C  
HETATM   14  C   UNL     1     -10.738  15.162  66.936  1.00  0.00    -0.308 C  
ENDBRANCH  11  12
ENDBRANCH   7   8
ENDBRANCH   6   7
ENDBRANCH   4   6
BRANCH   4  15
HETATM   15  C   UNL     1     -11.380  10.061  70.443  1.00  0.00    -0.320 C  
BRANCH  15  16
HETATM   16  O   UNL     1     -12.088   9.216  71.366  1.00  0.00    -0.301 OA 
BRANCH  16  17
HETATM   17  C   UNL     1     -13.088   9.794  72.068  1.00  0.00    -0.452 C  
HETATM   18  O   UNL     1     -13.411  10.970  72.051  1.00  0.00    -0.455 OA 
HETATM   19  H1  UNL     1     -14.447   9.307  73.379  1.00  0.00     0.000 HD 
HETATM   20  N   UNL     1     -13.693   8.870  72.849  1.00  0.00    -0.906 N  
HETATM   21  H2  UNL     1     -13.433   7.886  72.901  1.00  0.00     0.000 HD 
ENDBRANCH  16  17
ENDBRANCH  15  16
ENDBRANCH   4  15
ENDBRANCH   3   4
ENDBRANCH   2   3
TORSDOF 9
ENDMDL
MODEL      159
REMARK 921   NORMALIZED FREE ENERGY PREDICTED BY IDOCK:   -3.10 KCAL/MOL
REMARK 922        TOTAL FREE ENERGY PREDICTED BY IDOCK:   -5.67 KCAL/MOL
REMARK 923 INTER-LIGAND FREE ENERGY PREDICTED BY IDOCK:   -5.03 KCAL/MOL
REMARK 924 INTRA-LIGAND FREE ENERGY PREDICTED BY IDOCK:   -0.65 KCAL/MOL
REMARK 927      BINDING AFFINITY PREDICTED BY RF-SCORE:    0.00 PKD
ROOT
HETATM    1  C   UNL     1     -10.017  10.215  65.367  1.00  0.00    -0.377 C  
HETATM    2  C   UNL     1     -10.056   9.403  66.655  1.00  0.00    -0.332 C  
ENDROOT
BRANCH   2   3
HETATM    3  C   UNL     1     -11.035  10.001  67.674  1.00  0.00    -0.297 C  
BRANCH   3   4
HETATM    4  C   UNL     1     -10.392  10.565  68.981  1.00  0.00    -0.232 C  
HETATM    5  C   UNL     1     -11.186  10.091  70.216  1.00  0.00    -0.379 C  
BRANCH   4   6
HETATM    6  C   UNL     1     -10.457  12.117  68.907  1.00  0.00    -0.113 C  
BRANCH   6   7
HETATM    7  O   UNL     1     -11.696  12.550  68.313  1.00  0.00    -0.307 OA 
BRANCH   7   8
HETATM    8  C   UNL     1     -12.016  13.862  68.460  1.00  0.00    -0.359 C  
HETATM    9  H   UNL     1     -12.058  13.396  70.463  1.00  0.00     0.000 HD 
HETATM   10  O   UNL     1     -12.160  14.661  67.546  1.00  0.00    -0.340 OA 
HETATM   11  N   UNL     1     -12.136  14.153  69.785  1.00  0.00    -0.336 N  
BRANCH  11  12
HETATM   12  C   UNL     1     -12.372  15.503  70.268  1.00  0.00    -0.396 C  
HETATM   13  C   UNL     1     -11.060  16.192  70.618  1.00  0.00    -0.318 C  
HETATM   14  C   UNL     1     -13.314  15.489  71.471  1.00  0.00    -0.593 C  
ENDBRANCH  11  12
ENDBRANCH   7   8
ENDBRANCH   6   7
ENDBRANCH   4   6
BRANCH   4  15
HETATM   15  C   UNL     1      -8.917  10.114  69.138  1.00  0.00    -0.175 C  
BRANCH  15  16
HETATM   16  O   UNL     1      -8.042  11.253  69.063  1.00  0.00    -0.127 OA 
BRANCH  16  17
HETATM   17  C   UNL     1      -6.717  11.002  69.159  1.00  0.00    -0.084 C  
HETATM   18  O   UNL     1      -6.012  10.457  68.327  1.00  0.00    -0.041 OA 
HETATM   19  H1  UNL     1      -5.258  11.233  70.433  1.00  0.00     0.000 HD 
HETATM   20  N   UNL     1      -6.258  11.422  70.360  1.00  0.00    -0.221 N  
HETATM   21  H2  UNL     1      -6.826  11.862  71.084  1.00  0.00     0.000 HD 
ENDBRANCH  16  17
ENDBRANCH  15  16
ENDBRANCH   4  15
ENDBRANCH   3   4
ENDBRANCH   2   3
TORSDOF 9
ENDMDL
MODEL      160
REMARK 921   NORMALIZED FREE ENERGY PREDICTED BY IDOCK:   -3.10 KCAL/MOL
REMARK 922        TOTAL FREE ENERGY PREDICTED BY IDOCK:   -5.67 KCAL/MOL
REMARK 923 INTER-LIGAND FREE ENERGY PREDICTED BY IDOCK:   -5.09 KCAL/MOL
REMARK 924 INTRA-LIGAND FREE ENERGY PREDICTED BY IDOCK:   -0.58 KCAL/MOL
REMARK 927      BINDING AFFINITY PREDICTED BY RF-SCORE:    0.00 PKD
ROOT
HETATM    1  C   UNL     1     -11.166  12.883  63.533  1.00  0.00    -0.350 C  
HETATM    2  C   UNL     1     -10.903  11.749  64.515  1.00  0.00    -0.377 C  
ENDROOT
BRANCH   2   3
HETATM    3  C   UNL     1     -11.602  11.990  65.860  1.00  0.00    -0.364 C  
BRANCH   3   4
HETATM    4  C   UNL     1     -10.663  12.109  67.101  1.00  0.00    -0.267 C  
HETATM    5  C   UNL     1      -9.889  10.792  67.316  1.00  0.00    -0.208 C  
BRANCH   4   6
HETATM    6  C   UNL     1     -11.557  12.374  68.346  1.00  0.00    -0.324 C  
BRANCH   6   7
HETATM    7  O   UNL     1     -12.162  11.153  68.812  1.00  0.00    -0.555 OA 
BRANCH   7   8
HETATM    8  C   UNL     1     -12.417  11.069  70.143  1.00  0.00    -0.269 C  
HETATM    9  H   UNL     1     -11.821   9.115  69.905  1.00  0.00     0.000 HD 
HETATM   10  O   UNL     1     -12.843  11.978  70.840  1.00  0.00    -0.238 OA 
HETATM   11  N   UNL     1     -12.109   9.818  70.585  1.00  0.00    -0.259 N  
BRANCH  11  12
HETATM   12  C   UNL     1     -12.178   9.449  71.988  1.00  0.00    -0.326 C  
HETATM   13  C   UNL     1     -10.915   8.714  72.419  1.00  0.00    -0.323 C  
HETATM   14  C   UNL     1     -13.418   8.599  72.264  1.00  0.00    -0.414 C  
ENDBRANCH  11  12
ENDBRANCH   7   8
ENDBRANCH   6   7
ENDBRANCH   4   6
BRANCH   4  15
HETATM   15  C   UNL     1      -9.641  13.263  66.941  1.00  0.00    -0.249 C  
BRANCH  15  16
HETATM   16  O   UNL     1      -8.301  12.739  66.934  1.00  0.00    -0.155 OA 
BRANCH  16  17
HETATM   17  C   UNL     1      -7.350  13.509  67.510  1.00  0.00    -0.164 C  
HETATM   18  O   UNL     1      -7.093  14.673  67.251  1.00  0.00    -0.172 OA 
HETATM   19  H1  UNL     1      -5.952  13.366  68.862  1.00  0.00     0.000 HD 
HETATM   20  N   UNL     1      -6.669  12.785  68.428  1.00  0.00    -0.079 N  
HETATM   21  H2  UNL     1      -6.847  11.806  68.651  1.00  0.00     0.000 HD 
ENDBRANCH  16  17
ENDBRANCH  15  16
ENDBRANCH   4  15
ENDBRANCH   3   4
ENDBRANCH   2   3
TORSDOF 9
ENDMDL
MODEL      161
REMARK 921   NORMALIZED FREE ENERGY PREDICTED BY IDOCK:   -3.09 KCAL/MOL
REMARK 922        TOTAL FREE ENERGY PREDICTED BY IDOCK:   -5.66 KCAL/MOL
REMARK 923 INTER-LIGAND FREE ENERGY PREDICTED BY IDOCK:   -5.03 KCAL/MOL
REMARK 924 INTRA-LIGAND FREE ENERGY PREDICTED BY IDOCK:   -0.64 KCAL/MOL
REMARK 927      BINDING AFFINITY PREDICTED BY RF-SCORE:    0.00 PKD
ROOT
HETATM    1  C   UNL     1     -11.802  15.873  71.541  1.00  0.00    -0.536 C  
HETATM    2  C   UNL     1     -11.714  15.666  70.035  1.00  0.00    -0.369 C  
ENDROOT
BRANCH   2   3
HETATM    3  C   UNL     1     -10.287  15.884  69.515  1.00  0.00    -0.277 C  
BRANCH   3   4
HETATM    4  C   UNL     1      -9.978  15.280  68.109  1.00  0.00    -0.221 C  
HETATM    5  C   UNL     1     -11.107  15.626  67.117  1.00  0.00    -0.218 C  
BRANCH   4   6
HETATM    6  C   UNL     1      -9.903  13.734  68.266  1.00  0.00    -0.232 C  
BRANCH   6   7
HETATM    7  O   UNL     1     -10.960  13.093  67.526  1.00  0.00    -0.253 OA 
BRANCH   7   8
HETATM    8  C   UNL     1     -11.179  11.779  67.793  1.00  0.00    -0.266 C  
HETATM    9  H   UNL     1      -9.233  11.560  67.166  1.00  0.00     0.000 HD 
HETATM   10  O   UNL     1     -12.233  11.305  68.192  1.00  0.00    -0.622 OA 
HETATM   11  N   UNL     1     -10.038  11.074  67.560  1.00  0.00    -0.177 N  
BRANCH  11  12
HETATM   12  C   UNL     1      -9.926   9.655  67.852  1.00  0.00    -0.166 C  
HETATM   13  C   UNL     1      -8.592   9.341  68.518  1.00  0.00    -0.128 C  
HETATM   14  C   UNL     1     -10.103   8.826  66.580  1.00  0.00    -0.358 C  
ENDBRANCH  11  12
ENDBRANCH   7   8
ENDBRANCH   6   7
ENDBRANCH   4   6
BRANCH   4  15
HETATM   15  C   UNL     1      -8.638  15.809  67.537  1.00  0.00    -0.166 C  
BRANCH  15  16
HETATM   16  O   UNL     1      -8.380  17.135  68.030  1.00  0.00    -0.206 OA 
BRANCH  16  17
HETATM   17  C   UNL     1      -8.362  18.127  67.111  1.00  0.00    -0.238 C  
HETATM   18  O   UNL     1      -7.629  18.215  66.141  1.00  0.00    -0.309 OA 
HETATM   19  H1  UNL     1      -9.267  19.815  66.742  1.00  0.00     0.000 HD 
HETATM   20  N   UNL     1      -9.280  19.067  67.435  1.00  0.00    -0.287 N  
HETATM   21  H2  UNL     1      -9.893  19.032  68.249  1.00  0.00     0.000 HD 
ENDBRANCH  16  17
ENDBRANCH  15  16
ENDBRANCH   4  15
ENDBRANCH   3   4
ENDBRANCH   2   3
TORSDOF 9
ENDMDL
MODEL      162
REMARK 921   NORMALIZED FREE ENERGY PREDICTED BY IDOCK:   -3.09 KCAL/MOL
REMARK 922        TOTAL FREE ENERGY PREDICTED BY IDOCK:   -5.66 KCAL/MOL
REMARK 923 INTER-LIGAND FREE ENERGY PREDICTED BY IDOCK:   -5.00 KCAL/MOL
REMARK 924 INTRA-LIGAND FREE ENERGY PREDICTED BY IDOCK:   -0.66 KCAL/MOL
REMARK 927      BINDING AFFINITY PREDICTED BY RF-SCORE:    0.00 PKD
ROOT
HETATM    1  C   UNL     1      -9.921  15.466  65.673  1.00  0.00    -0.396 C  
HETATM    2  C   UNL     1     -10.110  14.797  67.028  1.00  0.00    -0.245 C  
ENDROOT
BRANCH   2   3
HETATM    3  C   UNL     1      -9.546  13.370  67.039  1.00  0.00    -0.244 C  
BRANCH   3   4
HETATM    4  C   UNL     1     -10.585  12.233  67.294  1.00  0.00    -0.249 C  
HETATM    5  C   UNL     1     -12.021  12.773  67.137  1.00  0.00    -0.351 C  
BRANCH   4   6
HETATM    6  C   UNL     1     -10.393  11.737  68.756  1.00  0.00    -0.179 C  
BRANCH   6   7
HETATM    7  O   UNL     1     -11.077  10.487  68.967  1.00  0.00    -0.219 OA 
BRANCH   7   8
HETATM    8  C   UNL     1     -11.684  10.321  70.170  1.00  0.00    -0.284 C  
HETATM    9  H   UNL     1     -11.444   8.320  69.763  1.00  0.00     0.000 HD 
HETATM   10  O   UNL     1     -12.091  11.224  70.887  1.00  0.00    -0.348 OA 
HETATM   11  N   UNL     1     -11.757   8.993  70.462  1.00  0.00    -0.189 N  
BRANCH  11  12
HETATM   12  C   UNL     1     -12.263   8.500  71.732  1.00  0.00    -0.334 C  
HETATM   13  C   UNL     1     -11.119   8.133  72.667  1.00  0.00    -0.450 C  
HETATM   14  C   UNL     1     -13.191   7.305  71.516  1.00  0.00    -0.434 C  
ENDBRANCH  11  12
ENDBRANCH   7   8
ENDBRANCH   6   7
ENDBRANCH   4   6
BRANCH   4  15
HETATM   15  C   UNL     1     -10.393  11.047  66.314  1.00  0.00    -0.251 C  
BRANCH  15  16
HETATM   16  O   UNL     1      -8.992  10.767  66.147  1.00  0.00    -0.165 OA 
BRANCH  16  17
HETATM   17  C   UNL     1      -8.625   9.468  66.208  1.00  0.00    -0.130 C  
HETATM   18  O   UNL     1      -7.634   9.010  66.753  1.00  0.00    -0.089 OA 
HETATM   19  H1  UNL     1      -9.241   7.727  65.580  1.00  0.00     0.000 HD 
HETATM   20  N   UNL     1      -9.518   8.707  65.534  1.00  0.00    -0.443 N  
HETATM   21  H2  UNL     1     -10.344   9.062  65.052  1.00  0.00     0.000 HD 
ENDBRANCH  16  17
ENDBRANCH  15  16
ENDBRANCH   4  15
ENDBRANCH   3   4
ENDBRANCH   2   3
TORSDOF 9
ENDMDL
MODEL      163
REMARK 921   NORMALIZED FREE ENERGY PREDICTED BY IDOCK:   -3.06 KCAL/MOL
REMARK 922        TOTAL FREE ENERGY PREDICTED BY IDOCK:   -5.61 KCAL/MOL
REMARK 923 INTER-LIGAND FREE ENERGY PREDICTED BY IDOCK:   -5.29 KCAL/MOL
REMARK 924 INTRA-LIGAND FREE ENERGY PREDICTED BY IDOCK:   -0.32 KCAL/MOL
REMARK 927      BINDING AFFINITY PREDICTED BY RF-SCORE:    0.00 PKD
ROOT
HETATM    1  C   UNL     1      -6.207  17.012  66.531  1.00  0.00    -0.205 C  
HETATM    2  C   UNL     1      -7.679  17.230  66.207  1.00  0.00    -0.353 C  
ENDROOT
BRANCH   2   3
HETATM    3  C   UNL     1      -8.593  16.627  67.282  1.00  0.00    -0.208 C  
BRANCH   3   4
HETATM    4  C   UNL     1     -10.120  16.645  66.962  1.00  0.00    -0.281 C  
HETATM    5  C   UNL     1     -10.689  18.067  67.138  1.00  0.00    -0.276 C  
BRANCH   4   6
HETATM    6  C   UNL     1     -10.825  15.693  67.971  1.00  0.00    -0.308 C  
BRANCH   6   7
HETATM    7  O   UNL     1     -10.384  14.335  67.787  1.00  0.00    -0.235 OA 
BRANCH   7   8
HETATM    8  C   UNL     1     -10.743  13.443  68.747  1.00  0.00    -0.232 C  
HETATM    9  H   UNL     1      -9.975  12.060  67.432  1.00  0.00     0.000 HD 
HETATM   10  O   UNL     1     -11.298  13.724  69.799  1.00  0.00    -0.223 OA 
HETATM   11  N   UNL     1     -10.376  12.190  68.362  1.00  0.00    -0.225 N  
BRANCH  11  12
HETATM   12  C   UNL     1     -10.533  11.032  69.224  1.00  0.00    -0.180 C  
HETATM   13  C   UNL     1      -9.604   9.904  68.794  1.00  0.00    -0.160 C  
HETATM   14  C   UNL     1     -11.987  10.560  69.236  1.00  0.00    -0.194 C  
ENDBRANCH  11  12
ENDBRANCH   7   8
ENDBRANCH   6   7
ENDBRANCH   4   6
BRANCH   4  15
HETATM   15  C   UNL     1     -10.410  16.172  65.514  1.00  0.00    -0.367 C  
BRANCH  15  16
HETATM   16  O   UNL     1     -11.547  15.291  65.500  1.00  0.00    -0.222 OA 
BRANCH  16  17
HETATM   17  C   UNL     1     -11.529  14.297  64.584  1.00  0.00    -0.385 C  
HETATM   18  O   UNL     1     -12.444  13.957  63.853  1.00  0.00    -0.698 OA 
HETATM   19  H1  UNL     1     -10.311  12.932  63.908  1.00  0.00     0.000 HD 
HETATM   20  N   UNL     1     -10.325  13.681  64.600  1.00  0.00    -0.540 N  
HETATM   21  H2  UNL     1      -9.548  13.930  65.212  1.00  0.00     0.000 HD 
ENDBRANCH  16  17
ENDBRANCH  15  16
ENDBRANCH   4  15
ENDBRANCH   3   4
ENDBRANCH   2   3
TORSDOF 9
ENDMDL
MODEL      164
REMARK 921   NORMALIZED FREE ENERGY PREDICTED BY IDOCK:   -3.04 KCAL/MOL
REMARK 922        TOTAL FREE ENERGY PREDICTED BY IDOCK:   -5.59 KCAL/MOL
REMARK 923 INTER-LIGAND FREE ENERGY PREDICTED BY IDOCK:   -4.86 KCAL/MOL
REMARK 924 INTRA-LIGAND FREE ENERGY PREDICTED BY IDOCK:   -0.72 KCAL/MOL
REMARK 927      BINDING AFFINITY PREDICTED BY RF-SCORE:    0.00 PKD
ROOT
HETATM    1  C   UNL     1     -10.307  11.007  66.308  1.00  0.00    -0.304 C  
HETATM    2  C   UNL     1     -10.774  10.131  67.463  1.00  0.00    -0.347 C  
ENDROOT
BRANCH   2   3
HETATM    3  C   UNL     1     -10.048  10.479  68.769  1.00  0.00    -0.202 C  
BRANCH   3   4
HETATM    4  C   UNL     1     -10.107   9.392  69.888  1.00  0.00    -0.243 C  
HETATM    5  C   UNL     1      -8.717   9.207  70.530  1.00  0.00    -0.258 C  
BRANCH   4   6
HETATM    6  C   UNL     1     -10.534   8.052  69.222  1.00  0.00    -0.215 C  
BRANCH   6   7
HETATM    7  O   UNL     1      -9.485   7.070  69.329  1.00  0.00    -0.148 OA 
BRANCH   7   8
HETATM    8  C   UNL     1      -9.860   5.818  69.697  1.00  0.00    -0.176 C  
HETATM    9  H   UNL     1      -9.562   6.531  71.602  1.00  0.00     0.000 HD 
HETATM   10  O   UNL     1     -10.146   4.911  68.928  1.00  0.00    -0.171 OA 
HETATM   11  N   UNL     1      -9.882   5.732  71.055  1.00  0.00    -0.173 N  
BRANCH  11  12
HETATM   12  C   UNL     1     -10.342   4.545  71.754  1.00  0.00    -0.105 C  
HETATM   13  C   UNL     1     -11.131   4.921  73.002  1.00  0.00    -0.368 C  
HETATM   14  C   UNL     1      -9.166   3.637  72.112  1.00  0.00    -0.167 C  
ENDBRANCH  11  12
ENDBRANCH   7   8
ENDBRANCH   6   7
ENDBRANCH   4   6
BRANCH   4  15
HETATM   15  C   UNL     1     -11.120   9.765  71.000  1.00  0.00    -0.361 C  
BRANCH  15  16
HETATM   16  O   UNL     1     -11.501   8.589  71.736  1.00  0.00    -0.270 OA 
BRANCH  16  17
HETATM   17  C   UNL     1     -12.828   8.368  71.874  1.00  0.00    -0.353 C  
HETATM   18  O   UNL     1     -13.623   9.048  72.501  1.00  0.00    -0.461 OA 
HETATM   19  H1  UNL     1     -14.173   7.064  71.333  1.00  0.00     0.000 HD 
HETATM   20  N   UNL     1     -13.173   7.231  71.228  1.00  0.00    -0.537 N  
HETATM   21  H2  UNL     1     -12.528   6.631  70.714  1.00  0.00     0.000 HD 
ENDBRANCH  16  17
ENDBRANCH  15  16
ENDBRANCH   4  15
ENDBRANCH   3   4
ENDBRANCH   2   3
TORSDOF 9
ENDMDL
MODEL      165
REMARK 921   NORMALIZED FREE ENERGY PREDICTED BY IDOCK:   -3.04 KCAL/MOL
REMARK 922        TOTAL FREE ENERGY PREDICTED BY IDOCK:   -5.58 KCAL/MOL
REMARK 923 INTER-LIGAND FREE ENERGY PREDICTED BY IDOCK:   -5.18 KCAL/MOL
REMARK 924 INTRA-LIGAND FREE ENERGY PREDICTED BY IDOCK:   -0.40 KCAL/MOL
REMARK 927      BINDING AFFINITY PREDICTED BY RF-SCORE:    0.00 PKD
ROOT
HETATM    1  C   UNL     1     -10.812   8.014  71.372  1.00  0.00    -0.271 C  
HETATM    2  C   UNL     1     -11.058   8.117  69.872  1.00  0.00    -0.102 C  
ENDROOT
BRANCH   2   3
HETATM    3  C   UNL     1      -9.940   7.442  69.066  1.00  0.00    -0.176 C  
BRANCH   3   4
HETATM    4  C   UNL     1      -9.948   7.722  67.530  1.00  0.00    -0.242 C  
HETATM    5  C   UNL     1      -8.507   7.898  67.010  1.00  0.00    -0.124 C  
BRANCH   4   6
HETATM    6  C   UNL     1     -10.732   9.046  67.296  1.00  0.00    -0.151 C  
BRANCH   6   7
HETATM    7  O   UNL     1      -9.867  10.064  66.758  1.00  0.00    -0.180 OA 
BRANCH   7   8
HETATM    8  C   UNL     1     -10.338  10.761  65.692  1.00  0.00    -0.230 C  
HETATM    9  H   UNL     1     -11.204  11.945  67.133  1.00  0.00     0.000 HD 
HETATM   10  O   UNL     1     -10.143  10.475  64.519  1.00  0.00    -0.334 OA 
HETATM   11  N   UNL     1     -11.049  11.836  66.131  1.00  0.00    -0.310 N  
BRANCH  11  12
HETATM   12  C   UNL     1     -11.594  12.833  65.226  1.00  0.00    -0.344 C  
HETATM   13  C   UNL     1     -10.486  13.694  64.635  1.00  0.00    -0.442 C  
HETATM   14  C   UNL     1     -12.632  13.700  65.938  1.00  0.00    -0.478 C  
ENDBRANCH  11  12
ENDBRANCH   7   8
ENDBRANCH   6   7
ENDBRANCH   4   6
BRANCH   4  15
HETATM   15  C   UNL     1     -10.623   6.572  66.739  1.00  0.00    -0.253 C  
BRANCH  15  16
HETATM   16  O   UNL     1      -9.938   5.333  66.989  1.00  0.00    -0.153 OA 
BRANCH  16  17
HETATM   17  C   UNL     1     -10.115   4.352  66.075  1.00  0.00    -0.239 C  
HETATM   18  O   UNL     1      -9.424   3.357  65.925  1.00  0.00    -0.164 OA 
HETATM   19  H1  UNL     1     -11.314   3.899  64.606  1.00  0.00     0.000 HD 
HETATM   20  N   UNL     1     -11.181   4.639  65.295  1.00  0.00    -0.987 N  
HETATM   21  H2  UNL     1     -11.765   5.471  65.383  1.00  0.00     0.000 HD 
ENDBRANCH  16  17
ENDBRANCH  15  16
ENDBRANCH   4  15
ENDBRANCH   3   4
ENDBRANCH   2   3
TORSDOF 9
ENDMDL
MODEL      166
REMARK 921   NORMALIZED FREE ENERGY PREDICTED BY IDOCK:   -3.02 KCAL/MOL
REMARK 922        TOTAL FREE ENERGY PREDICTED BY IDOCK:   -5.56 KCAL/MOL
REMARK 923 INTER-LIGAND FREE ENERGY PREDICTED BY IDOCK:   -4.51 KCAL/MOL
REMARK 924 INTRA-LIGAND FREE ENERGY PREDICTED BY IDOCK:   -1.04 KCAL/MOL
REMARK 927      BINDING AFFINITY PREDICTED BY RF-SCORE:    0.00 PKD
ROOT
HETATM    1  C   UNL     1     -11.416   6.342  69.846  1.00  0.00    -0.483 C  
HETATM    2  C   UNL     1     -10.669   6.295  68.520  1.00  0.00    -0.354 C  
ENDROOT
BRANCH   2   3
HETATM    3  C   UNL     1     -10.590   7.680  67.863  1.00  0.00    -0.233 C  
BRANCH   3   4
HETATM    4  C   UNL     1      -9.194   8.079  67.290  1.00  0.00    -0.164 C  
HETATM    5  C   UNL     1      -8.102   7.905  68.365  1.00  0.00    -0.123 C  
BRANCH   4   6
HETATM    6  C   UNL     1      -9.263   9.579  66.883  1.00  0.00    -0.143 C  
BRANCH   6   7
HETATM    7  O   UNL     1     -10.331   9.806  65.943  1.00  0.00    -0.214 OA 
BRANCH   7   8
HETATM    8  C   UNL     1     -10.262  10.946  65.208  1.00  0.00    -0.288 C  
HETATM    9  H   UNL     1     -11.530  11.685  66.650  1.00  0.00     0.000 HD 
HETATM   10  O   UNL     1      -9.634  11.079  64.168  1.00  0.00    -0.232 OA 
HETATM   11  N   UNL     1     -10.991  11.922  65.817  1.00  0.00    -0.302 N  
BRANCH  11  12
HETATM   12  C   UNL     1     -11.029  13.288  65.324  1.00  0.00    -0.291 C  
HETATM   13  C   UNL     1     -10.014  14.158  66.054  1.00  0.00    -0.340 C  
HETATM   14  C   UNL     1     -12.436  13.871  65.456  1.00  0.00    -0.541 C  
ENDBRANCH  11  12
ENDBRANCH   7   8
ENDBRANCH   6   7
ENDBRANCH   4   6
BRANCH   4  15
HETATM   15  C   UNL     1      -8.813   7.224  66.054  1.00  0.00    -0.136 C  
BRANCH  15  16
HETATM   16  O   UNL     1      -7.734   7.846  65.336  1.00  0.00    -0.086 OA 
BRANCH  16  17
HETATM   17  C   UNL     1      -7.720   7.669  63.996  1.00  0.00    -0.126 C  
HETATM   18  O   UNL     1      -6.944   6.979  63.355  1.00  0.00    -0.052 OA 
HETATM   19  H1  UNL     1      -8.688   8.274  62.415  1.00  0.00     0.000 HD 
HETATM   20  N   UNL     1      -8.699   8.408  63.426  1.00  0.00    -0.405 N  
HETATM   21  H2  UNL     1      -9.349   9.010  63.931  1.00  0.00     0.000 HD 
ENDBRANCH  16  17
ENDBRANCH  15  16
ENDBRANCH   4  15
ENDBRANCH   3   4
ENDBRANCH   2   3
TORSDOF 9
ENDMDL
MODEL      167
REMARK 921   NORMALIZED FREE ENERGY PREDICTED BY IDOCK:   -3.00 KCAL/MOL
REMARK 922        TOTAL FREE ENERGY PREDICTED BY IDOCK:   -5.53 KCAL/MOL
REMARK 923 INTER-LIGAND FREE ENERGY PREDICTED BY IDOCK:   -4.69 KCAL/MOL
REMARK 924 INTRA-LIGAND FREE ENERGY PREDICTED BY IDOCK:   -0.84 KCAL/MOL
REMARK 927      BINDING AFFINITY PREDICTED BY RF-SCORE:    0.00 PKD
ROOT
HETATM    1  C   UNL     1      -7.581   4.293  69.528  1.00  0.00    -0.054 C  
HETATM    2  C   UNL     1      -8.868   4.890  68.974  1.00  0.00    -0.117 C  
ENDROOT
BRANCH   2   3
HETATM    3  C   UNL     1      -9.324   6.109  69.788  1.00  0.00    -0.162 C  
BRANCH   3   4
HETATM    4  C   UNL     1     -10.538   6.898  69.204  1.00  0.00    -0.245 C  
HETATM    5  C   UNL     1     -11.040   6.229  67.909  1.00  0.00    -0.360 C  
BRANCH   4   6
HETATM    6  C   UNL     1     -10.049   8.337  68.870  1.00  0.00    -0.199 C  
BRANCH   6   7
HETATM    7  O   UNL     1     -11.116   9.120  68.301  1.00  0.00    -0.022 OA 
BRANCH   7   8
HETATM    8  C   UNL     1     -10.753  10.120  67.457  1.00  0.00    -0.290 C  
HETATM    9  H   UNL     1     -12.393  11.078  68.245  1.00  0.00     0.000 HD 
HETATM   10  O   UNL     1      -9.808  10.082  66.682  1.00  0.00    -0.184 OA 
HETATM   11  N   UNL     1     -11.596  11.177  67.616  1.00  0.00    -0.248 N  
BRANCH  11  12
HETATM   12  C   UNL     1     -11.404  12.439  66.923  1.00  0.00    -0.333 C  
HETATM   13  C   UNL     1     -11.721  13.614  67.838  1.00  0.00    -0.395 C  
HETATM   14  C   UNL     1     -12.256  12.495  65.655  1.00  0.00    -0.403 C  
ENDBRANCH  11  12
ENDBRANCH   7   8
ENDBRANCH   6   7
ENDBRANCH   4   6
BRANCH   4  15
HETATM   15  C   UNL     1     -11.715   6.971  70.211  1.00  0.00    -0.236 C  
BRANCH  15  16
HETATM   16  O   UNL     1     -11.408   7.902  71.263  1.00  0.00    -0.252 OA 
BRANCH  16  17
HETATM   17  C   UNL     1     -12.424   8.685  71.691  1.00  0.00    -0.335 C  
HETATM   18  O   UNL     1     -12.869   8.753  72.824  1.00  0.00    -0.340 OA 
HETATM   19  H1  UNL     1     -13.693   9.981  70.976  1.00  0.00     0.000 HD 
HETATM   20  N   UNL     1     -12.927   9.391  70.653  1.00  0.00    -0.518 N  
HETATM   21  H2  UNL     1     -12.590   9.340  69.691  1.00  0.00     0.000 HD 
ENDBRANCH  16  17
ENDBRANCH  15  16
ENDBRANCH   4  15
ENDBRANCH   3   4
ENDBRANCH   2   3
TORSDOF 9
ENDMDL
MODEL      168
REMARK 921   NORMALIZED FREE ENERGY PREDICTED BY IDOCK:   -3.00 KCAL/MOL
REMARK 922        TOTAL FREE ENERGY PREDICTED BY IDOCK:   -5.53 KCAL/MOL
REMARK 923 INTER-LIGAND FREE ENERGY PREDICTED BY IDOCK:   -4.77 KCAL/MOL
REMARK 924 INTRA-LIGAND FREE ENERGY PREDICTED BY IDOCK:   -0.76 KCAL/MOL
REMARK 927      BINDING AFFINITY PREDICTED BY RF-SCORE:    0.00 PKD
ROOT
HETATM    1  C   UNL     1      -6.471   8.590  66.483  1.00  0.00    -0.059 C  
HETATM    2  C   UNL     1      -7.987   8.737  66.462  1.00  0.00    -0.103 C  
ENDROOT
BRANCH   2   3
HETATM    3  C   UNL     1      -8.474   9.746  67.510  1.00  0.00    -0.122 C  
BRANCH   3   4
HETATM    4  C   UNL     1      -9.866   9.443  68.148  1.00  0.00    -0.183 C  
HETATM    5  C   UNL     1     -10.185   7.938  68.047  1.00  0.00    -0.256 C  
BRANCH   4   6
HETATM    6  C   UNL     1     -10.936  10.238  67.347  1.00  0.00    -0.252 C  
BRANCH   6   7
HETATM    7  O   UNL     1     -10.384  11.466  66.834  1.00  0.00    -0.213 OA 
BRANCH   7   8
HETATM    8  C   UNL     1     -11.129  12.587  67.007  1.00  0.00    -0.281 C  
HETATM    9  H   UNL     1      -9.636  13.478  65.909  1.00  0.00     0.000 HD 
HETATM   10  O   UNL     1     -12.174  12.651  67.640  1.00  0.00    -0.367 OA 
HETATM   11  N   UNL     1     -10.542  13.627  66.354  1.00  0.00    -0.281 N  
BRANCH  11  12
HETATM   12  C   UNL     1     -11.157  14.941  66.266  1.00  0.00    -0.340 C  
HETATM   13  C   UNL     1     -10.937  15.553  64.889  1.00  0.00    -0.452 C  
HETATM   14  C   UNL     1     -10.619  15.863  67.360  1.00  0.00    -0.315 C  
ENDBRANCH  11  12
ENDBRANCH   7   8
ENDBRANCH   6   7
ENDBRANCH   4   6
BRANCH   4  15
HETATM   15  C   UNL     1      -9.918   9.860  69.640  1.00  0.00    -0.231 C  
BRANCH  15  16
HETATM   16  O   UNL     1     -11.253  10.261  69.995  1.00  0.00    -0.266 OA 
BRANCH  16  17
HETATM   17  C   UNL     1     -11.820   9.612  71.037  1.00  0.00    -0.347 C  
HETATM   18  O   UNL     1     -11.562   8.486  71.428  1.00  0.00    -0.266 OA 
HETATM   19  H1  UNL     1     -13.200   9.902  72.384  1.00  0.00     0.000 HD 
HETATM   20  N   UNL     1     -12.772  10.392  71.598  1.00  0.00    -0.434 N  
HETATM   21  H2  UNL     1     -13.025  11.328  71.282  1.00  0.00     0.000 HD 
ENDBRANCH  16  17
ENDBRANCH  15  16
ENDBRANCH   4  15
ENDBRANCH   3   4
ENDBRANCH   2   3
TORSDOF 9
ENDMDL
MODEL      169
REMARK 921   NORMALIZED FREE ENERGY PREDICTED BY IDOCK:   -2.99 KCAL/MOL
REMARK 922        TOTAL FREE ENERGY PREDICTED BY IDOCK:   -5.51 KCAL/MOL
REMARK 923 INTER-LIGAND FREE ENERGY PREDICTED BY IDOCK:   -4.47 KCAL/MOL
REMARK 924 INTRA-LIGAND FREE ENERGY PREDICTED BY IDOCK:   -1.04 KCAL/MOL
REMARK 927      BINDING AFFINITY PREDICTED BY RF-SCORE:    0.00 PKD
ROOT
HETATM    1  C   UNL     1      -7.860   4.835  69.290  1.00  0.00    -0.070 C  
HETATM    2  C   UNL     1      -8.408   6.135  69.864  1.00  0.00    -0.128 C  
ENDROOT
BRANCH   2   3
HETATM    3  C   UNL     1      -8.761   7.140  68.759  1.00  0.00    -0.124 C  
BRANCH   3   4
HETATM    4  C   UNL     1     -10.277   7.482  68.614  1.00  0.00    -0.210 C  
HETATM    5  C   UNL     1     -11.137   6.228  68.866  1.00  0.00    -0.434 C  
BRANCH   4   6
HETATM    6  C   UNL     1     -10.513   7.968  67.155  1.00  0.00    -0.338 C  
BRANCH   6   7
HETATM    7  O   UNL     1      -9.263   8.281  66.511  1.00  0.00    -0.163 OA 
BRANCH   7   8
HETATM    8  C   UNL     1      -9.055   9.584  66.189  1.00  0.00    -0.166 C  
HETATM    9  H   UNL     1     -10.887   9.417  65.271  1.00  0.00     0.000 HD 
HETATM   10  O   UNL     1      -8.057  10.231  66.473  1.00  0.00    -0.116 OA 
HETATM   11  N   UNL     1     -10.135  10.062  65.512  1.00  0.00    -0.289 N  
BRANCH  11  12
HETATM   12  C   UNL     1     -10.255  11.456  65.121  1.00  0.00    -0.277 C  
HETATM   13  C   UNL     1     -11.436  12.117  65.819  1.00  0.00    -0.414 C  
HETATM   14  C   UNL     1     -10.385  11.582  63.603  1.00  0.00    -0.467 C  
ENDBRANCH  11  12
ENDBRANCH   7   8
ENDBRANCH   6   7
ENDBRANCH   4   6
BRANCH   4  15
HETATM   15  C   UNL     1     -10.714   8.590  69.606  1.00  0.00    -0.197 C  
BRANCH  15  16
HETATM   16  O   UNL     1      -9.827   9.718  69.510  1.00  0.00    -0.188 OA 
BRANCH  16  17
HETATM   17  C   UNL     1     -10.390  10.901  69.177  1.00  0.00    -0.208 C  
HETATM   18  O   UNL     1     -11.580  11.165  69.151  1.00  0.00    -0.266 OA 
HETATM   19  H1  UNL     1      -9.851  12.678  68.581  1.00  0.00     0.000 HD 
HETATM   20  N   UNL     1      -9.426  11.785  68.832  1.00  0.00    -0.410 N  
HETATM   21  H2  UNL     1      -8.425  11.588  68.824  1.00  0.00     0.000 HD 
ENDBRANCH  16  17
ENDBRANCH  15  16
ENDBRANCH   4  15
ENDBRANCH   3   4
ENDBRANCH   2   3
TORSDOF 9
ENDMDL
MODEL      170
REMARK 921   NORMALIZED FREE ENERGY PREDICTED BY IDOCK:   -2.99 KCAL/MOL
REMARK 922        TOTAL FREE ENERGY PREDICTED BY IDOCK:   -5.51 KCAL/MOL
REMARK 923 INTER-LIGAND FREE ENERGY PREDICTED BY IDOCK:   -4.86 KCAL/MOL
REMARK 924 INTRA-LIGAND FREE ENERGY PREDICTED BY IDOCK:   -0.65 KCAL/MOL
REMARK 927      BINDING AFFINITY PREDICTED BY RF-SCORE:    0.00 PKD
ROOT
HETATM    1  C   UNL     1     -10.972  13.833  66.816  1.00  0.00    -0.307 C  
HETATM    2  C   UNL     1     -10.650  13.399  68.240  1.00  0.00    -0.264 C  
ENDROOT
BRANCH   2   3
HETATM    3  C   UNL     1      -9.836  12.099  68.267  1.00  0.00    -0.212 C  
BRANCH   3   4
HETATM    4  C   UNL     1     -10.664  10.784  68.421  1.00  0.00    -0.255 C  
HETATM    5  C   UNL     1     -12.008  11.075  69.118  1.00  0.00    -0.394 C  
BRANCH   4   6
HETATM    6  C   UNL     1      -9.839   9.808  69.309  1.00  0.00    -0.199 C  
BRANCH   6   7
HETATM    7  O   UNL     1      -9.682   8.533  68.658  1.00  0.00    -0.158 OA 
BRANCH   7   8
HETATM    8  C   UNL     1     -10.558   7.557  69.012  1.00  0.00    -0.180 C  
HETATM    9  H   UNL     1     -10.494   8.479  70.850  1.00  0.00     0.000 HD 
HETATM   10  O   UNL     1     -10.955   6.663  68.279  1.00  0.00    -0.262 OA 
HETATM   11  N   UNL     1     -10.937   7.737  70.308  1.00  0.00    -0.250 N  
BRANCH  11  12
HETATM   12  C   UNL     1     -11.948   6.912  70.946  1.00  0.00    -0.381 C  
HETATM   13  C   UNL     1     -13.025   7.773  71.590  1.00  0.00    -0.374 C  
HETATM   14  C   UNL     1     -11.312   5.980  71.978  1.00  0.00    -0.345 C  
ENDBRANCH  11  12
ENDBRANCH   7   8
ENDBRANCH   6   7
ENDBRANCH   4   6
BRANCH   4  15
HETATM   15  C   UNL     1     -10.951  10.121  67.049  1.00  0.00    -0.092 C  
BRANCH  15  16
HETATM   16  O   UNL     1     -10.083  10.671  66.043  1.00  0.00    -0.231 OA 
BRANCH  16  17
HETATM   17  C   UNL     1      -9.557   9.797  65.156  1.00  0.00    -0.287 C  
HETATM   18  O   UNL     1      -8.824   8.853  65.403  1.00  0.00    -0.183 OA 
HETATM   19  H1  UNL     1      -9.542   9.472  63.233  1.00  0.00     0.000 HD 
HETATM   20  N   UNL     1      -9.938  10.132  63.902  1.00  0.00    -0.482 N  
HETATM   21  H2  UNL     1     -10.533  10.925  63.663  1.00  0.00     0.000 HD 
ENDBRANCH  16  17
ENDBRANCH  15  16
ENDBRANCH   4  15
ENDBRANCH   3   4
ENDBRANCH   2   3
TORSDOF 9
ENDMDL
MODEL      171
REMARK 921   NORMALIZED FREE ENERGY PREDICTED BY IDOCK:   -2.98 KCAL/MOL
REMARK 922        TOTAL FREE ENERGY PREDICTED BY IDOCK:   -5.50 KCAL/MOL
REMARK 923 INTER-LIGAND FREE ENERGY PREDICTED BY IDOCK:   -5.27 KCAL/MOL
REMARK 924 INTRA-LIGAND FREE ENERGY PREDICTED BY IDOCK:   -0.23 KCAL/MOL
REMARK 927      BINDING AFFINITY PREDICTED BY RF-SCORE:    0.00 PKD
ROOT
HETATM    1  C   UNL     1     -12.167  13.717  63.927  1.00  0.00    -0.402 C  
HETATM    2  C   UNL     1     -12.709  14.106  65.296  1.00  0.00    -0.425 C  
ENDROOT
BRANCH   2   3
HETATM    3  C   UNL     1     -12.242  13.134  66.388  1.00  0.00    -0.396 C  
BRANCH   3   4
HETATM    4  C   UNL     1     -11.171  13.689  67.378  1.00  0.00    -0.323 C  
HETATM    5  C   UNL     1     -11.412  15.189  67.643  1.00  0.00    -0.319 C  
BRANCH   4   6
HETATM    6  C   UNL     1      -9.776  13.515  66.710  1.00  0.00    -0.271 C  
BRANCH   6   7
HETATM    7  O   UNL     1      -9.164  12.277  67.120  1.00  0.00    -0.184 OA 
BRANCH   7   8
HETATM    8  C   UNL     1      -8.768  11.437  66.129  1.00  0.00    -0.153 C  
HETATM    9  H   UNL     1     -10.780  11.346  65.710  1.00  0.00     0.000 HD 
HETATM   10  O   UNL     1      -7.616  11.091  65.914  1.00  0.00    -0.103 OA 
HETATM   11  N   UNL     1      -9.853  11.049  65.404  1.00  0.00    -0.236 N  
BRANCH  11  12
HETATM   12  C   UNL     1      -9.740  10.228  64.210  1.00  0.00    -0.308 C  
HETATM   13  C   UNL     1      -8.847   9.022  64.463  1.00  0.00    -0.123 C  
HETATM   14  C   UNL     1      -9.216  11.053  63.035  1.00  0.00    -0.337 C  
ENDBRANCH  11  12
ENDBRANCH   7   8
ENDBRANCH   6   7
ENDBRANCH   4   6
BRANCH   4  15
HETATM   15  C   UNL     1     -11.194  12.937  68.733  1.00  0.00    -0.279 C  
BRANCH  15  16
HETATM   16  O   UNL     1     -12.076  11.804  68.654  1.00  0.00    -0.406 OA 
BRANCH  16  17
HETATM   17  C   UNL     1     -11.649  10.665  69.246  1.00  0.00    -0.275 C  
HETATM   18  O   UNL     1     -10.582  10.102  69.068  1.00  0.00    -0.199 OA 
HETATM   19  H1  UNL     1     -12.286   9.334  70.521  1.00  0.00     0.000 HD 
HETATM   20  N   UNL     1     -12.608  10.192  70.074  1.00  0.00    -0.533 N  
HETATM   21  H2  UNL     1     -13.517  10.629  70.229  1.00  0.00     0.000 HD 
ENDBRANCH  16  17
ENDBRANCH  15  16
ENDBRANCH   4  15
ENDBRANCH   3   4
ENDBRANCH   2   3
TORSDOF 9
ENDMDL
MODEL      172
REMARK 921   NORMALIZED FREE ENERGY PREDICTED BY IDOCK:   -2.97 KCAL/MOL
REMARK 922        TOTAL FREE ENERGY PREDICTED BY IDOCK:   -5.48 KCAL/MOL
REMARK 923 INTER-LIGAND FREE ENERGY PREDICTED BY IDOCK:   -4.76 KCAL/MOL
REMARK 924 INTRA-LIGAND FREE ENERGY PREDICTED BY IDOCK:   -0.73 KCAL/MOL
REMARK 927      BINDING AFFINITY PREDICTED BY RF-SCORE:    0.00 PKD
ROOT
HETATM    1  C   UNL     1     -10.260  10.840  66.658  1.00  0.00    -0.283 C  
HETATM    2  C   UNL     1     -10.820   9.926  67.740  1.00  0.00    -0.321 C  
ENDROOT
BRANCH   2   3
HETATM    3  C   UNL     1     -10.226  10.247  69.118  1.00  0.00    -0.234 C  
BRANCH   3   4
HETATM    4  C   UNL     1     -10.545   9.221  70.250  1.00  0.00    -0.278 C  
HETATM    5  C   UNL     1      -9.341   9.082  71.204  1.00  0.00    -0.336 C  
BRANCH   4   6
HETATM    6  C   UNL     1     -10.813   7.844  69.577  1.00  0.00    -0.136 C  
BRANCH   6   7
HETATM    7  O   UNL     1     -10.023   6.810  70.194  1.00  0.00    -0.176 OA 
BRANCH   7   8
HETATM    8  C   UNL     1      -9.300   6.017  69.361  1.00  0.00    -0.131 C  
HETATM    9  H   UNL     1      -9.763   7.450  67.961  1.00  0.00     0.000 HD 
HETATM   10  O   UNL     1      -8.778   4.956  69.672  1.00  0.00    -0.085 OA 
HETATM   11  N   UNL     1      -9.235   6.594  68.130  1.00  0.00    -0.118 N  
BRANCH  11  12
HETATM   12  C   UNL     1      -8.444   6.034  67.048  1.00  0.00    -0.108 C  
HETATM   13  C   UNL     1      -7.826   7.138  66.200  1.00  0.00    -0.105 C  
HETATM   14  C   UNL     1      -9.292   5.100  66.184  1.00  0.00    -0.160 C  
ENDBRANCH  11  12
ENDBRANCH   7   8
ENDBRANCH   6   7
ENDBRANCH   4   6
BRANCH   4  15
HETATM   15  C   UNL     1     -11.786   9.644  71.078  1.00  0.00    -0.353 C  
BRANCH  15  16
HETATM   16  O   UNL     1     -12.394   8.489  71.682  1.00  0.00    -0.298 OA 
BRANCH  16  17
HETATM   17  C   UNL     1     -13.730   8.544  71.878  1.00  0.00    -0.415 C  
HETATM   18  O   UNL     1     -14.318   9.157  72.753  1.00  0.00    -0.563 OA 
HETATM   19  H1  UNL     1     -15.368   7.819  71.107  1.00  0.00     0.000 HD 
HETATM   20  N   UNL     1     -14.360   7.777  70.959  1.00  0.00    -0.656 N  
HETATM   21  H2  UNL     1     -13.895   7.237  70.229  1.00  0.00     0.000 HD 
ENDBRANCH  16  17
ENDBRANCH  15  16
ENDBRANCH   4  15
ENDBRANCH   3   4
ENDBRANCH   2   3
TORSDOF 9
ENDMDL
MODEL      173
REMARK 921   NORMALIZED FREE ENERGY PREDICTED BY IDOCK:   -2.97 KCAL/MOL
REMARK 922        TOTAL FREE ENERGY PREDICTED BY IDOCK:   -5.47 KCAL/MOL
REMARK 923 INTER-LIGAND FREE ENERGY PREDICTED BY IDOCK:   -4.80 KCAL/MOL
REMARK 924 INTRA-LIGAND FREE ENERGY PREDICTED BY IDOCK:   -0.68 KCAL/MOL
REMARK 927      BINDING AFFINITY PREDICTED BY RF-SCORE:    0.00 PKD
ROOT
HETATM    1  C   UNL     1     -10.669   5.498  66.380  1.00  0.00    -0.262 C  
HETATM    2  C   UNL     1      -9.427   6.367  66.528  1.00  0.00    -0.189 C  
ENDROOT
BRANCH   2   3
HETATM    3  C   UNL     1      -9.786   7.855  66.643  1.00  0.00    -0.311 C  
BRANCH   3   4
HETATM    4  C   UNL     1      -9.161   8.611  67.857  1.00  0.00    -0.145 C  
HETATM    5  C   UNL     1      -7.630   8.429  67.871  1.00  0.00    -0.099 C  
BRANCH   4   6
HETATM    6  C   UNL     1      -9.753   7.992  69.155  1.00  0.00    -0.163 C  
BRANCH   6   7
HETATM    7  O   UNL     1      -9.289   8.703  70.319  1.00  0.00    -0.157 OA 
BRANCH   7   8
HETATM    8  C   UNL     1     -10.115   8.709  71.397  1.00  0.00    -0.254 C  
HETATM    9  H   UNL     1     -11.602   8.705  69.977  1.00  0.00     0.000 HD 
HETATM   10  O   UNL     1      -9.752   8.739  72.565  1.00  0.00    -0.247 OA 
HETATM   11  N   UNL     1     -11.409   8.662  70.978  1.00  0.00    -0.266 N  
BRANCH  11  12
HETATM   12  C   UNL     1     -12.525   8.553  71.901  1.00  0.00    -0.352 C  
HETATM   13  C   UNL     1     -13.344   7.301  71.619  1.00  0.00    -0.421 C  
HETATM   14  C   UNL     1     -13.405   9.801  71.835  1.00  0.00    -0.530 C  
ENDBRANCH  11  12
ENDBRANCH   7   8
ENDBRANCH   6   7
ENDBRANCH   4   6
BRANCH   4  15
HETATM   15  C   UNL     1      -9.478  10.128  67.814  1.00  0.00    -0.144 C  
BRANCH  15  16
HETATM   16  O   UNL     1     -10.869  10.351  68.106  1.00  0.00    -0.224 OA 
BRANCH  16  17
HETATM   17  C   UNL     1     -11.433  11.448  67.554  1.00  0.00    -0.260 C  
HETATM   18  O   UNL     1     -11.561  11.686  66.364  1.00  0.00    -0.447 OA 
HETATM   19  H1  UNL     1     -12.251  13.128  68.110  1.00  0.00     0.000 HD 
HETATM   20  N   UNL     1     -11.826  12.300  68.527  1.00  0.00    -0.325 N  
HETATM   21  H2  UNL     1     -11.714  12.139  69.528  1.00  0.00     0.000 HD 
ENDBRANCH  16  17
ENDBRANCH  15  16
ENDBRANCH   4  15
ENDBRANCH   3   4
ENDBRANCH   2   3
TORSDOF 9
ENDMDL
MODEL      174
REMARK 921   NORMALIZED FREE ENERGY PREDICTED BY IDOCK:   -2.96 KCAL/MOL
REMARK 922        TOTAL FREE ENERGY PREDICTED BY IDOCK:   -5.47 KCAL/MOL
REMARK 923 INTER-LIGAND FREE ENERGY PREDICTED BY IDOCK:   -4.94 KCAL/MOL
REMARK 924 INTRA-LIGAND FREE ENERGY PREDICTED BY IDOCK:   -0.53 KCAL/MOL
REMARK 927      BINDING AFFINITY PREDICTED BY RF-SCORE:    0.00 PKD
ROOT
HETATM    1  C   UNL     1     -11.650  16.206  69.006  1.00  0.00    -0.298 C  
HETATM    2  C   UNL     1     -11.652  15.073  67.989  1.00  0.00    -0.356 C  
ENDROOT
BRANCH   2   3
HETATM    3  C   UNL     1     -10.285  14.917  67.309  1.00  0.00    -0.241 C  
BRANCH   3   4
HETATM    4  C   UNL     1      -9.989  13.513  66.695  1.00  0.00    -0.282 C  
HETATM    5  C   UNL     1     -10.978  12.467  67.247  1.00  0.00    -0.302 C  
BRANCH   4   6
HETATM    6  C   UNL     1      -8.546  13.110  67.115  1.00  0.00    -0.192 C  
BRANCH   6   7
HETATM    7  O   UNL     1      -8.529  11.786  67.681  1.00  0.00    -0.137 OA 
BRANCH   7   8
HETATM    8  C   UNL     1      -7.779  10.857  67.034  1.00  0.00    -0.129 C  
HETATM    9  H   UNL     1      -9.601   9.990  66.635  1.00  0.00     0.000 HD 
HETATM   10  O   UNL     1      -6.558  10.857  66.966  1.00  0.00    -0.076 OA 
HETATM   11  N   UNL     1      -8.597   9.932  66.461  1.00  0.00    -0.124 N  
BRANCH  11  12
HETATM   12  C   UNL     1      -8.095   8.866  65.611  1.00  0.00    -0.113 C  
HETATM   13  C   UNL     1      -8.455   9.118  64.153  1.00  0.00    -0.198 C  
HETATM   14  C   UNL     1      -8.628   7.510  66.074  1.00  0.00    -0.164 C  
ENDBRANCH  11  12
ENDBRANCH   7   8
ENDBRANCH   6   7
ENDBRANCH   4   6
BRANCH   4  15
HETATM   15  C   UNL     1     -10.094  13.527  65.149  1.00  0.00    -0.256 C  
BRANCH  15  16
HETATM   16  O   UNL     1     -11.135  12.633  64.717  1.00  0.00    -0.283 OA 
BRANCH  16  17
HETATM   17  C   UNL     1     -12.238  13.205  64.184  1.00  0.00    -0.398 C  
HETATM   18  O   UNL     1     -12.343  14.347  63.767  1.00  0.00    -0.736 OA 
HETATM   19  H1  UNL     1     -14.096  12.756  63.797  1.00  0.00     0.000 HD 
HETATM   20  N   UNL     1     -13.264  12.324  64.199  1.00  0.00    -0.660 N  
HETATM   21  H2  UNL     1     -13.213  11.371  64.559  1.00  0.00     0.000 HD 
ENDBRANCH  16  17
ENDBRANCH  15  16
ENDBRANCH   4  15
ENDBRANCH   3   4
ENDBRANCH   2   3
TORSDOF 9
ENDMDL
MODEL      175
REMARK 921   NORMALIZED FREE ENERGY PREDICTED BY IDOCK:   -2.96 KCAL/MOL
REMARK 922        TOTAL FREE ENERGY PREDICTED BY IDOCK:   -5.46 KCAL/MOL
REMARK 923 INTER-LIGAND FREE ENERGY PREDICTED BY IDOCK:   -4.83 KCAL/MOL
REMARK 924 INTRA-LIGAND FREE ENERGY PREDICTED BY IDOCK:   -0.63 KCAL/MOL
REMARK 927      BINDING AFFINITY PREDICTED BY RF-SCORE:    0.00 PKD
ROOT
HETATM    1  C   UNL     1     -11.032   6.226  66.987  1.00  0.00    -0.442 C  
HETATM    2  C   UNL     1      -9.971   7.297  66.774  1.00  0.00    -0.287 C  
ENDROOT
BRANCH   2   3
HETATM    3  C   UNL     1     -10.296   8.581  67.550  1.00  0.00    -0.334 C  
BRANCH   3   4
HETATM    4  C   UNL     1      -9.223   9.035  68.589  1.00  0.00    -0.136 C  
HETATM    5  C   UNL     1      -7.819   9.016  67.953  1.00  0.00    -0.101 C  
BRANCH   4   6
HETATM    6  C   UNL     1      -9.253   8.024  69.771  1.00  0.00    -0.149 C  
BRANCH   6   7
HETATM    7  O   UNL     1      -8.417   8.477  70.853  1.00  0.00    -0.126 OA 
BRANCH   7   8
HETATM    8  C   UNL     1      -8.786   8.101  72.105  1.00  0.00    -0.178 C  
HETATM    9  H   UNL     1      -9.761   6.582  71.120  1.00  0.00     0.000 HD 
HETATM   10  O   UNL     1      -8.494   8.692  73.135  1.00  0.00    -0.398 OA 
HETATM   11  N   UNL     1      -9.521   6.957  72.038  1.00  0.00    -0.141 N  
BRANCH  11  12
HETATM   12  C   UNL     1      -9.975   6.250  73.223  1.00  0.00    -0.180 C  
HETATM   13  C   UNL     1      -8.889   5.322  73.751  1.00  0.00    -0.118 C  
HETATM   14  C   UNL     1     -11.257   5.471  72.930  1.00  0.00    -0.358 C  
ENDBRANCH  11  12
ENDBRANCH   7   8
ENDBRANCH   6   7
ENDBRANCH   4   6
BRANCH   4  15
HETATM   15  C   UNL     1      -9.507  10.463  69.121  1.00  0.00    -0.208 C  
BRANCH  15  16
HETATM   16  O   UNL     1     -10.826  10.526  69.691  1.00  0.00    -0.240 OA 
BRANCH  16  17
HETATM   17  C   UNL     1     -11.652  11.475  69.195  1.00  0.00    -0.316 C  
HETATM   18  O   UNL     1     -12.212  11.466  68.112  1.00  0.00    -0.602 OA 
HETATM   19  H1  UNL     1     -12.382  13.210  69.704  1.00  0.00     0.000 HD 
HETATM   20  N   UNL     1     -11.759  12.495  70.078  1.00  0.00    -0.514 N  
HETATM   21  H2  UNL     1     -11.287  12.540  70.981  1.00  0.00     0.000 HD 
ENDBRANCH  16  17
ENDBRANCH  15  16
ENDBRANCH   4  15
ENDBRANCH   3   4
ENDBRANCH   2   3
TORSDOF 9
ENDMDL
MODEL      176
REMARK 921   NORMALIZED FREE ENERGY PREDICTED BY IDOCK:   -2.94 KCAL/MOL
REMARK 922        TOTAL FREE ENERGY PREDICTED BY IDOCK:   -5.43 KCAL/MOL
REMARK 923 INTER-LIGAND FREE ENERGY PREDICTED BY IDOCK:   -5.33 KCAL/MOL
REMARK 924 INTRA-LIGAND FREE ENERGY PREDICTED BY IDOCK:   -0.10 KCAL/MOL
REMARK 927      BINDING AFFINITY PREDICTED BY RF-SCORE:    0.00 PKD
ROOT
HETATM    1  C   UNL     1     -13.045  11.443  71.719  1.00  0.00    -0.523 C  
HETATM    2  C   UNL     1     -12.499  10.940  70.389  1.00  0.00    -0.411 C  
ENDROOT
BRANCH   2   3
HETATM    3  C   UNL     1     -11.558  11.963  69.738  1.00  0.00    -0.359 C  
BRANCH   3   4
HETATM    4  C   UNL     1     -10.510  11.381  68.738  1.00  0.00    -0.228 C  
HETATM    5  C   UNL     1     -11.214  10.547  67.649  1.00  0.00    -0.338 C  
BRANCH   4   6
HETATM    6  C   UNL     1      -9.555  10.453  69.543  1.00  0.00    -0.157 C  
BRANCH   6   7
HETATM    7  O   UNL     1      -9.794   9.070  69.219  1.00  0.00    -0.171 OA 
BRANCH   7   8
HETATM    8  C   UNL     1      -9.701   8.181  70.242  1.00  0.00    -0.175 C  
HETATM    9  H   UNL     1     -11.726   8.496  70.403  1.00  0.00     0.000 HD 
HETATM   10  O   UNL     1      -8.667   7.656  70.630  1.00  0.00    -0.137 OA 
HETATM   11  N   UNL     1     -10.939   7.954  70.760  1.00  0.00    -0.247 N  
BRANCH  11  12
HETATM   12  C   UNL     1     -11.180   6.971  71.803  1.00  0.00    -0.246 C  
HETATM   13  C   UNL     1     -10.528   7.397  73.112  1.00  0.00    -0.406 C  
HETATM   14  C   UNL     1     -10.680   5.593  71.372  1.00  0.00    -0.310 C  
ENDBRANCH  11  12
ENDBRANCH   7   8
ENDBRANCH   6   7
ENDBRANCH   4   6
BRANCH   4  15
HETATM   15  C   UNL     1      -9.688  12.501  68.050  1.00  0.00    -0.215 C  
BRANCH  15  16
HETATM   16  O   UNL     1     -10.415  13.741  68.086  1.00  0.00    -0.237 OA 
BRANCH  16  17
HETATM   17  C   UNL     1     -10.939  14.166  66.914  1.00  0.00    -0.300 C  
HETATM   18  O   UNL     1     -10.326  14.480  65.908  1.00  0.00    -0.291 OA 
HETATM   19  H1  UNL     1     -12.682  14.553  66.128  1.00  0.00     0.000 HD 
HETATM   20  N   UNL     1     -12.287  14.232  67.012  1.00  0.00    -0.580 N  
HETATM   21  H2  UNL     1     -12.826  13.997  67.845  1.00  0.00     0.000 HD 
ENDBRANCH  16  17
ENDBRANCH  15  16
ENDBRANCH   4  15
ENDBRANCH   3   4
ENDBRANCH   2   3
TORSDOF 9
ENDMDL
MODEL      177
REMARK 921   NORMALIZED FREE ENERGY PREDICTED BY IDOCK:   -2.93 KCAL/MOL
REMARK 922        TOTAL FREE ENERGY PREDICTED BY IDOCK:   -5.42 KCAL/MOL
REMARK 923 INTER-LIGAND FREE ENERGY PREDICTED BY IDOCK:   -4.61 KCAL/MOL
REMARK 924 INTRA-LIGAND FREE ENERGY PREDICTED BY IDOCK:   -0.80 KCAL/MOL
REMARK 927      BINDING AFFINITY PREDICTED BY RF-SCORE:    0.00 PKD
ROOT
HETATM    1  C   UNL     1      -7.078  17.007  66.458  1.00  0.00    -0.307 C  
HETATM    2  C   UNL     1      -8.396  16.256  66.312  1.00  0.00    -0.343 C  
ENDROOT
BRANCH   2   3
HETATM    3  C   UNL     1      -8.827  15.604  67.632  1.00  0.00    -0.181 C  
BRANCH   3   4
HETATM    4  C   UNL     1     -10.068  14.661  67.549  1.00  0.00    -0.224 C  
HETATM    5  C   UNL     1     -11.350  15.427  67.934  1.00  0.00    -0.328 C  
BRANCH   4   6
HETATM    6  C   UNL     1      -9.850  13.504  68.566  1.00  0.00    -0.189 C  
BRANCH   6   7
HETATM    7  O   UNL     1      -9.134  12.414  67.954  1.00  0.00    -0.176 OA 
BRANCH   7   8
HETATM    8  C   UNL     1      -8.803  11.374  68.763  1.00  0.00    -0.072 C  
HETATM    9  H   UNL     1      -6.876  11.986  68.385  1.00  0.00     0.000 HD 
HETATM   10  O   UNL     1      -9.596  10.602  69.282  1.00  0.00    -0.202 OA 
HETATM   11  N   UNL     1      -7.451  11.332  68.917  1.00  0.00    -0.119 N  
BRANCH  11  12
HETATM   12  C   UNL     1      -6.796  10.391  69.809  1.00  0.00    -0.130 C  
HETATM   13  C   UNL     1      -5.548  11.007  70.427  1.00  0.00    -0.118 C  
HETATM   14  C   UNL     1      -6.452   9.097  69.072  1.00  0.00    -0.047 C  
ENDBRANCH  11  12
ENDBRANCH   7   8
ENDBRANCH   6   7
ENDBRANCH   4   6
BRANCH   4  15
HETATM   15  C   UNL     1     -10.250  14.074  66.126  1.00  0.00    -0.302 C  
BRANCH  15  16
HETATM   16  O   UNL     1     -11.641  14.090  65.759  1.00  0.00    -0.323 OA 
BRANCH  16  17
HETATM   17  C   UNL     1     -12.156  12.929  65.298  1.00  0.00    -0.453 C  
HETATM   18  O   UNL     1     -13.163  12.790  64.624  1.00  0.00    -0.776 OA 
HETATM   19  H1  UNL     1     -11.788  11.015  65.374  1.00  0.00     0.000 HD 
HETATM   20  N   UNL     1     -11.399  11.891  65.722  1.00  0.00    -0.324 N  
HETATM   21  H2  UNL     1     -10.565  11.974  66.303  1.00  0.00     0.000 HD 
ENDBRANCH  16  17
ENDBRANCH  15  16
ENDBRANCH   4  15
ENDBRANCH   3   4
ENDBRANCH   2   3
TORSDOF 9
ENDMDL
MODEL      178
REMARK 921   NORMALIZED FREE ENERGY PREDICTED BY IDOCK:   -2.90 KCAL/MOL
REMARK 922        TOTAL FREE ENERGY PREDICTED BY IDOCK:   -5.38 KCAL/MOL
REMARK 923 INTER-LIGAND FREE ENERGY PREDICTED BY IDOCK:   -4.63 KCAL/MOL
REMARK 924 INTRA-LIGAND FREE ENERGY PREDICTED BY IDOCK:   -0.75 KCAL/MOL
REMARK 927      BINDING AFFINITY PREDICTED BY RF-SCORE:    0.00 PKD
ROOT
HETATM    1  C   UNL     1      -9.535   4.693  67.038  1.00  0.00    -0.175 C  
HETATM    2  C   UNL     1      -9.376   6.085  67.636  1.00  0.00    -0.112 C  
ENDROOT
BRANCH   2   3
HETATM    3  C   UNL     1      -9.987   7.164  66.732  1.00  0.00    -0.278 C  
BRANCH   3   4
HETATM    4  C   UNL     1      -9.517   8.627  67.009  1.00  0.00    -0.221 C  
HETATM    5  C   UNL     1      -8.845   8.721  68.394  1.00  0.00    -0.138 C  
BRANCH   4   6
HETATM    6  C   UNL     1     -10.779   9.537  67.001  1.00  0.00    -0.149 C  
BRANCH   6   7
HETATM    7  O   UNL     1     -10.532  10.760  67.721  1.00  0.00    -0.186 OA 
BRANCH   7   8
HETATM    8  C   UNL     1     -10.502  11.902  66.988  1.00  0.00    -0.224 C  
HETATM    9  H   UNL     1     -11.891  10.927  65.826  1.00  0.00     0.000 HD 
HETATM   10  O   UNL     1      -9.793  12.871  67.218  1.00  0.00    -0.212 OA 
HETATM   11  N   UNL     1     -11.395  11.808  65.965  1.00  0.00    -0.313 N  
BRANCH  11  12
HETATM   12  C   UNL     1     -11.668  12.914  65.063  1.00  0.00    -0.344 C  
HETATM   13  C   UNL     1     -12.648  13.897  65.689  1.00  0.00    -0.553 C  
HETATM   14  C   UNL     1     -12.198  12.402  63.724  1.00  0.00    -0.626 C  
ENDBRANCH  11  12
ENDBRANCH   7   8
ENDBRANCH   6   7
ENDBRANCH   4   6
BRANCH   4  15
HETATM   15  C   UNL     1      -8.513   9.122  65.937  1.00  0.00    -0.141 C  
BRANCH  15  16
HETATM   16  O   UNL     1      -9.221   9.697  64.825  1.00  0.00    -0.234 OA 
BRANCH  16  17
HETATM   17  C   UNL     1      -8.540  10.591  64.073  1.00  0.00    -0.147 C  
HETATM   18  O   UNL     1      -8.957  11.201  63.103  1.00  0.00    -0.221 OA 
HETATM   19  H1  UNL     1      -6.759  11.378  63.966  1.00  0.00     0.000 HD 
HETATM   20  N   UNL     1      -7.273  10.705  64.533  1.00  0.00    -0.354 N  
HETATM   21  H2  UNL     1      -6.890  10.193  65.328  1.00  0.00     0.000 HD 
ENDBRANCH  16  17
ENDBRANCH  15  16
ENDBRANCH   4  15
ENDBRANCH   3   4
ENDBRANCH   2   3
TORSDOF 9
ENDMDL
MODEL      179
REMARK 921   NORMALIZED FREE ENERGY PREDICTED BY IDOCK:   -2.90 KCAL/MOL
REMARK 922        TOTAL FREE ENERGY PREDICTED BY IDOCK:   -5.37 KCAL/MOL
REMARK 923 INTER-LIGAND FREE ENERGY PREDICTED BY IDOCK:   -4.58 KCAL/MOL
REMARK 924 INTRA-LIGAND FREE ENERGY PREDICTED BY IDOCK:   -0.79 KCAL/MOL
REMARK 927      BINDING AFFINITY PREDICTED BY RF-SCORE:    0.00 PKD
ROOT
HETATM    1  C   UNL     1     -10.614   5.598  66.580  1.00  0.00    -0.361 C  
HETATM    2  C   UNL     1     -10.881   6.860  67.391  1.00  0.00    -0.396 C  
ENDROOT
BRANCH   2   3
HETATM    3  C   UNL     1      -9.583   7.468  67.940  1.00  0.00    -0.161 C  
BRANCH   3   4
HETATM    4  C   UNL     1      -9.529   9.027  67.980  1.00  0.00    -0.157 C  
HETATM    5  C   UNL     1      -9.741   9.535  69.420  1.00  0.00    -0.190 C  
BRANCH   4   6
HETATM    6  C   UNL     1     -10.682   9.563  67.083  1.00  0.00    -0.182 C  
BRANCH   6   7
HETATM    7  O   UNL     1     -10.303  10.797  66.445  1.00  0.00    -0.239 OA 
BRANCH   7   8
HETATM    8  C   UNL     1     -11.111  11.867  66.661  1.00  0.00    -0.310 C  
HETATM    9  H   UNL     1      -9.890  12.784  65.283  1.00  0.00     0.000 HD 
HETATM   10  O   UNL     1     -12.047  11.898  67.447  1.00  0.00    -0.577 OA 
HETATM   11  N   UNL     1     -10.727  12.896  65.856  1.00  0.00    -0.268 N  
BRANCH  11  12
HETATM   12  C   UNL     1     -11.463  14.146  65.783  1.00  0.00    -0.327 C  
HETATM   13  C   UNL     1     -12.217  14.256  64.465  1.00  0.00    -0.476 C  
HETATM   14  C   UNL     1     -10.524  15.338  65.970  1.00  0.00    -0.328 C  
ENDBRANCH  11  12
ENDBRANCH   7   8
ENDBRANCH   6   7
ENDBRANCH   4   6
BRANCH   4  15
HETATM   15  C   UNL     1      -8.173   9.569  67.459  1.00  0.00    -0.121 C  
BRANCH  15  16
HETATM   16  O   UNL     1      -7.787   8.868  66.264  1.00  0.00    -0.100 OA 
BRANCH  16  17
HETATM   17  C   UNL     1      -6.921   9.506  65.444  1.00  0.00    -0.094 C  
HETATM   18  O   UNL     1      -5.703   9.484  65.505  1.00  0.00    -0.054 OA 
HETATM   19  H1  UNL     1      -6.952  10.708  63.909  1.00  0.00     0.000 HD 
HETATM   20  N   UNL     1      -7.605  10.227  64.527  1.00  0.00    -0.244 N  
HETATM   21  H2  UNL     1      -8.622  10.281  64.464  1.00  0.00     0.000 HD 
ENDBRANCH  16  17
ENDBRANCH  15  16
ENDBRANCH   4  15
ENDBRANCH   3   4
ENDBRANCH   2   3
TORSDOF 9
ENDMDL
MODEL      180
REMARK 921   NORMALIZED FREE ENERGY PREDICTED BY IDOCK:   -2.89 KCAL/MOL
REMARK 922        TOTAL FREE ENERGY PREDICTED BY IDOCK:   -5.36 KCAL/MOL
REMARK 923 INTER-LIGAND FREE ENERGY PREDICTED BY IDOCK:   -4.99 KCAL/MOL
REMARK 924 INTRA-LIGAND FREE ENERGY PREDICTED BY IDOCK:   -0.37 KCAL/MOL
REMARK 927      BINDING AFFINITY PREDICTED BY RF-SCORE:    0.00 PKD
ROOT
HETATM    1  C   UNL     1      -7.195  19.523  66.561  1.00  0.00    -0.241 C  
HETATM    2  C   UNL     1      -7.006  18.125  67.137  1.00  0.00    -0.211 C  
ENDROOT
BRANCH   2   3
HETATM    3  C   UNL     1      -7.914  17.099  66.446  1.00  0.00    -0.346 C  
BRANCH   3   4
HETATM    4  C   UNL     1      -8.262  15.829  67.284  1.00  0.00    -0.211 C  
HETATM    5  C   UNL     1      -7.096  14.821  67.240  1.00  0.00    -0.067 C  
BRANCH   4   6
HETATM    6  C   UNL     1      -9.519  15.171  66.644  1.00  0.00    -0.263 C  
BRANCH   6   7
HETATM    7  O   UNL     1     -10.103  16.039  65.654  1.00  0.00    -0.339 OA 
BRANCH   7   8
HETATM    8  C   UNL     1     -11.086  15.508  64.883  1.00  0.00    -0.416 C  
HETATM    9  H   UNL     1     -10.475  13.732  65.722  1.00  0.00     0.000 HD 
HETATM   10  O   UNL     1     -11.800  16.137  64.115  1.00  0.00    -0.769 OA 
HETATM   11  N   UNL     1     -11.164  14.167  65.108  1.00  0.00    -0.322 N  
BRANCH  11  12
HETATM   12  C   UNL     1     -12.189  13.333  64.504  1.00  0.00    -0.400 C  
HETATM   13  C   UNL     1     -12.521  12.147  65.400  1.00  0.00     0.187 C  
HETATM   14  C   UNL     1     -11.754  12.859  63.118  1.00  0.00    -0.210 C  
ENDBRANCH  11  12
ENDBRANCH   7   8
ENDBRANCH   6   7
ENDBRANCH   4   6
BRANCH   4  15
HETATM   15  C   UNL     1      -8.557  16.179  68.765  1.00  0.00    -0.236 C  
BRANCH  15  16
HETATM   16  O   UNL     1      -9.861  15.699  69.136  1.00  0.00    -0.213 OA 
BRANCH  16  17
HETATM   17  C   UNL     1     -10.837  16.627  69.246  1.00  0.00    -0.310 C  
HETATM   18  O   UNL     1     -11.176  17.439  68.401  1.00  0.00    -0.124 OA 
HETATM   19  H1  UNL     1     -12.132  17.262  70.559  1.00  0.00     0.000 HD 
HETATM   20  N   UNL     1     -11.395  16.562  70.477  1.00  0.00    -0.496 N  
HETATM   21  H2  UNL     1     -11.121  15.909  71.211  1.00  0.00     0.000 HD 
ENDBRANCH  16  17
ENDBRANCH  15  16
ENDBRANCH   4  15
ENDBRANCH   3   4
ENDBRANCH   2   3
TORSDOF 9
ENDMDL
MODEL      181
REMARK 921   NORMALIZED FREE ENERGY PREDICTED BY IDOCK:   -2.88 KCAL/MOL
REMARK 922        TOTAL FREE ENERGY PREDICTED BY IDOCK:   -5.34 KCAL/MOL
REMARK 923 INTER-LIGAND FREE ENERGY PREDICTED BY IDOCK:   -4.67 KCAL/MOL
REMARK 924 INTRA-LIGAND FREE ENERGY PREDICTED BY IDOCK:   -0.67 KCAL/MOL
REMARK 927      BINDING AFFINITY PREDICTED BY RF-SCORE:    0.00 PKD
ROOT
HETATM    1  C   UNL     1      -9.445   9.112  65.547  1.00  0.00    -0.276 C  
HETATM    2  C   UNL     1      -9.927   8.934  66.981  1.00  0.00    -0.300 C  
ENDROOT
BRANCH   2   3
HETATM    3  C   UNL     1     -10.905  10.043  67.392  1.00  0.00    -0.313 C  
BRANCH   3   4
HETATM    4  C   UNL     1     -10.380  11.045  68.468  1.00  0.00    -0.204 C  
HETATM    5  C   UNL     1     -11.561  11.734  69.181  1.00  0.00    -0.372 C  
BRANCH   4   6
HETATM    6  C   UNL     1      -9.536  12.126  67.734  1.00  0.00    -0.192 C  
BRANCH   6   7
HETATM    7  O   UNL     1     -10.260  13.368  67.648  1.00  0.00    -0.223 OA 
BRANCH   7   8
HETATM    8  C   UNL     1     -10.609  13.784  66.403  1.00  0.00    -0.284 C  
HETATM    9  H   UNL     1      -9.753  12.009  65.814  1.00  0.00     0.000 HD 
HETATM   10  O   UNL     1     -11.157  14.845  66.140  1.00  0.00    -0.331 OA 
HETATM   11  N   UNL     1     -10.266  12.830  65.494  1.00  0.00    -0.279 N  
BRANCH  11  12
HETATM   12  C   UNL     1     -10.602  12.939  64.085  1.00  0.00    -0.416 C  
HETATM   13  C   UNL     1     -12.101  12.775  63.870  1.00  0.00    -0.562 C  
HETATM   14  C   UNL     1      -9.823  11.913  63.262  1.00  0.00    -0.354 C  
ENDBRANCH  11  12
ENDBRANCH   7   8
ENDBRANCH   6   7
ENDBRANCH   4   6
BRANCH   4  15
HETATM   15  C   UNL     1      -9.503  10.338  69.534  1.00  0.00    -0.185 C  
BRANCH  15  16
HETATM   16  O   UNL     1      -8.140  10.786  69.428  1.00  0.00    -0.131 OA 
BRANCH  16  17
HETATM   17  C   UNL     1      -7.186   9.829  69.470  1.00  0.00    -0.087 C  
HETATM   18  O   UNL     1      -6.785   9.153  68.537  1.00  0.00    -0.058 OA 
HETATM   19  H1  UNL     1      -6.015   8.965  70.767  1.00  0.00     0.000 HD 
HETATM   20  N   UNL     1      -6.734   9.687  70.736  1.00  0.00    -0.108 N  
HETATM   21  H2  UNL     1      -7.064  10.221  71.540  1.00  0.00     0.000 HD 
ENDBRANCH  16  17
ENDBRANCH  15  16
ENDBRANCH   4  15
ENDBRANCH   3   4
ENDBRANCH   2   3
TORSDOF 9
ENDMDL
MODEL      182
REMARK 921   NORMALIZED FREE ENERGY PREDICTED BY IDOCK:   -2.87 KCAL/MOL
REMARK 922        TOTAL FREE ENERGY PREDICTED BY IDOCK:   -5.32 KCAL/MOL
REMARK 923 INTER-LIGAND FREE ENERGY PREDICTED BY IDOCK:   -4.59 KCAL/MOL
REMARK 924 INTRA-LIGAND FREE ENERGY PREDICTED BY IDOCK:   -0.73 KCAL/MOL
REMARK 927      BINDING AFFINITY PREDICTED BY RF-SCORE:    0.00 PKD
ROOT
HETATM    1  C   UNL     1     -10.689   9.741  70.560  1.00  0.00    -0.381 C  
HETATM    2  C   UNL     1     -10.136   8.344  70.808  1.00  0.00    -0.226 C  
ENDROOT
BRANCH   2   3
HETATM    3  C   UNL     1      -9.314   7.838  69.615  1.00  0.00    -0.153 C  
BRANCH   3   4
HETATM    4  C   UNL     1      -9.759   6.465  69.019  1.00  0.00    -0.145 C  
HETATM    5  C   UNL     1     -11.284   6.288  69.160  1.00  0.00    -0.439 C  
BRANCH   4   6
HETATM    6  C   UNL     1      -9.046   5.345  69.830  1.00  0.00    -0.128 C  
BRANCH   6   7
HETATM    7  O   UNL     1     -10.003   4.407  70.357  1.00  0.00    -0.218 OA 
BRANCH   7   8
HETATM    8  C   UNL     1      -9.897   4.107  71.677  1.00  0.00    -0.184 C  
HETATM    9  H   UNL     1      -9.209   6.039  71.831  1.00  0.00     0.000 HD 
HETATM   10  O   UNL     1     -10.162   3.024  72.179  1.00  0.00    -0.156 OA 
HETATM   11  N   UNL     1      -9.463   5.203  72.358  1.00  0.00    -0.143 N  
BRANCH  11  12
HETATM   12  C   UNL     1      -9.348   5.227  73.806  1.00  0.00    -0.132 C  
HETATM   13  C   UNL     1     -10.151   6.378  74.396  1.00  0.00    -0.367 C  
HETATM   14  C   UNL     1      -7.882   5.317  74.230  1.00  0.00    -0.096 C  
ENDBRANCH  11  12
ENDBRANCH   7   8
ENDBRANCH   6   7
ENDBRANCH   4   6
BRANCH   4  15
HETATM   15  C   UNL     1      -9.383   6.340  67.520  1.00  0.00    -0.113 C  
BRANCH  15  16
HETATM   16  O   UNL     1     -10.536   5.953  66.752  1.00  0.00    -0.259 OA 
BRANCH  16  17
HETATM   17  C   UNL     1     -10.489   4.736  66.165  1.00  0.00    -0.290 C  
HETATM   18  O   UNL     1      -9.736   3.817  66.443  1.00  0.00    -0.194 OA 
HETATM   19  H1  UNL     1     -11.365   3.755  64.726  1.00  0.00     0.000 HD 
HETATM   20  N   UNL     1     -11.401   4.673  65.168  1.00  0.00    -0.966 N  
HETATM   21  H2  UNL     1     -12.029   5.430  64.899  1.00  0.00     0.000 HD 
ENDBRANCH  16  17
ENDBRANCH  15  16
ENDBRANCH   4  15
ENDBRANCH   3   4
ENDBRANCH   2   3
TORSDOF 9
ENDMDL
MODEL      183
REMARK 921   NORMALIZED FREE ENERGY PREDICTED BY IDOCK:   -2.86 KCAL/MOL
REMARK 922        TOTAL FREE ENERGY PREDICTED BY IDOCK:   -5.32 KCAL/MOL
REMARK 923 INTER-LIGAND FREE ENERGY PREDICTED BY IDOCK:   -4.35 KCAL/MOL
REMARK 924 INTRA-LIGAND FREE ENERGY PREDICTED BY IDOCK:   -0.97 KCAL/MOL
REMARK 927      BINDING AFFINITY PREDICTED BY RF-SCORE:    0.00 PKD
ROOT
HETATM    1  C   UNL     1     -10.474   4.493  65.460  1.00  0.00    -0.241 C  
HETATM    2  C   UNL     1      -9.866   4.909  66.792  1.00  0.00    -0.220 C  
ENDROOT
BRANCH   2   3
HETATM    3  C   UNL     1      -9.368   6.361  66.760  1.00  0.00    -0.167 C  
BRANCH   3   4
HETATM    4  C   UNL     1     -10.041   7.331  67.782  1.00  0.00    -0.225 C  
HETATM    5  C   UNL     1     -11.109   6.584  68.607  1.00  0.00    -0.348 C  
BRANCH   4   6
HETATM    6  C   UNL     1     -10.732   8.464  66.972  1.00  0.00    -0.134 C  
BRANCH   6   7
HETATM    7  O   UNL     1     -10.203   9.752  67.339  1.00  0.00    -0.200 OA 
BRANCH   7   8
HETATM    8  C   UNL     1     -10.973  10.832  67.050  1.00  0.00    -0.227 C  
HETATM    9  H   UNL     1      -9.832  10.908  65.341  1.00  0.00     0.000 HD 
HETATM   10  O   UNL     1     -11.853  11.286  67.769  1.00  0.00    -0.610 OA 
HETATM   11  N   UNL     1     -10.625  11.324  65.830  1.00  0.00    -0.260 N  
BRANCH  11  12
HETATM   12  C   UNL     1     -11.340  12.419  65.197  1.00  0.00    -0.323 C  
HETATM   13  C   UNL     1     -11.889  11.998  63.840  1.00  0.00    -0.543 C  
HETATM   14  C   UNL     1     -10.439  13.645  65.058  1.00  0.00    -0.406 C  
ENDBRANCH  11  12
ENDBRANCH   7   8
ENDBRANCH   6   7
ENDBRANCH   4   6
BRANCH   4  15
HETATM   15  C   UNL     1      -9.005   7.947  68.757  1.00  0.00    -0.141 C  
BRANCH  15  16
HETATM   16  O   UNL     1      -7.670   7.659  68.307  1.00  0.00    -0.114 OA 
BRANCH  16  17
HETATM   17  C   UNL     1      -6.863   8.723  68.095  1.00  0.00    -0.069 C  
HETATM   18  O   UNL     1      -5.732   8.706  67.638  1.00  0.00    -0.038 OA 
HETATM   19  H1  UNL     1      -6.872  10.658  68.340  1.00  0.00     0.000 HD 
HETATM   20  N   UNL     1      -7.482   9.856  68.500  1.00  0.00    -0.081 N  
HETATM   21  H2  UNL     1      -8.417   9.900  68.904  1.00  0.00     0.000 HD 
ENDBRANCH  16  17
ENDBRANCH  15  16
ENDBRANCH   4  15
ENDBRANCH   3   4
ENDBRANCH   2   3
TORSDOF 9
ENDMDL
MODEL      184
REMARK 921   NORMALIZED FREE ENERGY PREDICTED BY IDOCK:   -2.86 KCAL/MOL
REMARK 922        TOTAL FREE ENERGY PREDICTED BY IDOCK:   -5.32 KCAL/MOL
REMARK 923 INTER-LIGAND FREE ENERGY PREDICTED BY IDOCK:   -6.08 KCAL/MOL
REMARK 924 INTRA-LIGAND FREE ENERGY PREDICTED BY IDOCK:    0.76 KCAL/MOL
REMARK 927      BINDING AFFINITY PREDICTED BY RF-SCORE:    0.00 PKD
ROOT
HETATM    1  C   UNL     1     -12.527  13.980  65.843  1.00  0.00    -0.513 C  
HETATM    2  C   UNL     1     -12.269  13.371  67.215  1.00  0.00    -0.282 C  
ENDROOT
BRANCH   2   3
HETATM    3  C   UNL     1     -10.773  13.359  67.559  1.00  0.00    -0.263 C  
BRANCH   3   4
HETATM    4  C   UNL     1     -10.129  14.755  67.828  1.00  0.00    -0.224 C  
HETATM    5  C   UNL     1      -8.885  14.607  68.728  1.00  0.00    -0.166 C  
BRANCH   4   6
HETATM    6  C   UNL     1     -11.183  15.627  68.568  1.00  0.00    -0.342 C  
BRANCH   6   7
HETATM    7  O   UNL     1     -10.833  15.787  69.956  1.00  0.00    -0.286 OA 
BRANCH   7   8
HETATM    8  C   UNL     1     -11.852  15.726  70.851  1.00  0.00    -0.414 C  
HETATM    9  H   UNL     1     -12.637  14.364  69.526  1.00  0.00     0.000 HD 
HETATM   10  O   UNL     1     -11.929  16.382  71.880  1.00  0.00    -0.472 OA 
HETATM   11  N   UNL     1     -12.768  14.809  70.434  1.00  0.00    -0.339 N  
BRANCH  11  12
HETATM   12  C   UNL     1     -13.925  14.443  71.233  1.00  0.00    -0.238 C  
HETATM   13  C   UNL     1     -14.301  15.566  72.190  1.00  0.00    -0.598 C  
HETATM   14  C   UNL     1     -13.664  13.146  71.998  1.00  0.00    -0.486 C  
ENDBRANCH  11  12
ENDBRANCH   7   8
ENDBRANCH   6   7
ENDBRANCH   4   6
BRANCH   4  15
HETATM   15  C   UNL     1      -9.706  15.457  66.512  1.00  0.00    -0.272 C  
BRANCH  15  16
HETATM   16  O   UNL     1      -9.928  16.875  66.615  1.00  0.00    -0.271 OA 
BRANCH  16  17
HETATM   17  C   UNL     1     -10.605  17.454  65.598  1.00  0.00    -0.153 C  
HETATM   18  O   UNL     1     -10.915  18.629  65.500  1.00  0.00    -0.389 OA 
HETATM   19  H1  UNL     1     -11.447  16.958  63.911  1.00  0.00     0.000 HD 
HETATM   20  N   UNL     1     -10.936  16.520  64.678  1.00  0.00    -0.369 N  
HETATM   21  H2  UNL     1     -10.709  15.528  64.742  1.00  0.00     0.000 HD 
ENDBRANCH  16  17
ENDBRANCH  15  16
ENDBRANCH   4  15
ENDBRANCH   3   4
ENDBRANCH   2   3
TORSDOF 9
ENDMDL
MODEL      185
REMARK 921   NORMALIZED FREE ENERGY PREDICTED BY IDOCK:   -2.85 KCAL/MOL
REMARK 922        TOTAL FREE ENERGY PREDICTED BY IDOCK:   -5.30 KCAL/MOL
REMARK 923 INTER-LIGAND FREE ENERGY PREDICTED BY IDOCK:   -4.73 KCAL/MOL
REMARK 924 INTRA-LIGAND FREE ENERGY PREDICTED BY IDOCK:   -0.58 KCAL/MOL
REMARK 927      BINDING AFFINITY PREDICTED BY RF-SCORE:    0.00 PKD
ROOT
HETATM    1  C   UNL     1     -11.877  15.873  72.241  1.00  0.00    -0.617 C  
HETATM    2  C   UNL     1     -12.377  14.992  71.104  1.00  0.00    -0.391 C  
ENDROOT
BRANCH   2   3
HETATM    3  C   UNL     1     -11.594  15.240  69.808  1.00  0.00    -0.335 C  
BRANCH   3   4
HETATM    4  C   UNL     1     -11.372  13.990  68.899  1.00  0.00    -0.314 C  
HETATM    5  C   UNL     1     -12.335  14.025  67.695  1.00  0.00    -0.079 C  
BRANCH   4   6
HETATM    6  C   UNL     1     -11.681  12.726  69.752  1.00  0.00    -0.282 C  
BRANCH   6   7
HETATM    7  O   UNL     1     -11.848  11.569  68.911  1.00  0.00    -0.310 OA 
BRANCH   7   8
HETATM    8  C   UNL     1     -10.888  10.612  68.996  1.00  0.00    -0.235 C  
HETATM    9  H   UNL     1     -11.268  10.371  66.989  1.00  0.00     0.000 HD 
HETATM   10  O   UNL     1     -10.299  10.291  70.018  1.00  0.00    -0.258 OA 
HETATM   11  N   UNL     1     -10.674  10.075  67.763  1.00  0.00    -0.263 N  
BRANCH  11  12
HETATM   12  C   UNL     1      -9.632   9.094  67.510  1.00  0.00    -0.150 C  
HETATM   13  C   UNL     1      -8.455   9.729  66.782  1.00  0.00    -0.125 C  
HETATM   14  C   UNL     1     -10.184   7.911  66.717  1.00  0.00    -0.358 C  
ENDBRANCH  11  12
ENDBRANCH   7   8
ENDBRANCH   6   7
ENDBRANCH   4   6
BRANCH   4  15
HETATM   15  C   UNL     1      -9.918  13.916  68.368  1.00  0.00    -0.233 C  
BRANCH  15  16
HETATM   16  O   UNL     1      -9.618  15.083  67.584  1.00  0.00    -0.202 OA 
BRANCH  16  17
HETATM   17  C   UNL     1      -8.380  15.608  67.733  1.00  0.00    -0.148 C  
HETATM   18  O   UNL     1      -7.392  15.357  67.063  1.00  0.00    -0.196 OA 
HETATM   19  H1  UNL     1      -7.434  16.856  68.895  1.00  0.00     0.000 HD 
HETATM   20  N   UNL     1      -8.367  16.460  68.783  1.00  0.00    -0.231 N  
HETATM   21  H2  UNL     1      -9.171  16.675  69.374  1.00  0.00     0.000 HD 
ENDBRANCH  16  17
ENDBRANCH  15  16
ENDBRANCH   4  15
ENDBRANCH   3   4
ENDBRANCH   2   3
TORSDOF 9
ENDMDL
MODEL      186
REMARK 921   NORMALIZED FREE ENERGY PREDICTED BY IDOCK:   -2.85 KCAL/MOL
REMARK 922        TOTAL FREE ENERGY PREDICTED BY IDOCK:   -5.29 KCAL/MOL
REMARK 923 INTER-LIGAND FREE ENERGY PREDICTED BY IDOCK:   -4.58 KCAL/MOL
REMARK 924 INTRA-LIGAND FREE ENERGY PREDICTED BY IDOCK:   -0.72 KCAL/MOL
REMARK 927      BINDING AFFINITY PREDICTED BY RF-SCORE:    0.00 PKD
ROOT
HETATM    1  C   UNL     1     -12.690  10.205  71.462  1.00  0.00    -0.541 C  
HETATM    2  C   UNL     1     -11.579  10.693  70.542  1.00  0.00    -0.444 C  
ENDROOT
BRANCH   2   3
HETATM    3  C   UNL     1     -12.138  11.459  69.335  1.00  0.00    -0.358 C  
BRANCH   3   4
HETATM    4  C   UNL     1     -11.099  11.839  68.233  1.00  0.00    -0.291 C  
HETATM    5  C   UNL     1     -11.325  10.988  66.967  1.00  0.00    -0.164 C  
BRANCH   4   6
HETATM    6  C   UNL     1      -9.681  11.534  68.796  1.00  0.00    -0.126 C  
BRANCH   6   7
HETATM    7  O   UNL     1      -8.879  10.846  67.818  1.00  0.00    -0.132 OA 
BRANCH   7   8
HETATM    8  C   UNL     1      -8.206   9.747  68.246  1.00  0.00    -0.105 C  
HETATM    9  H   UNL     1     -10.006   9.261  69.115  1.00  0.00     0.000 HD 
HETATM   10  O   UNL     1      -7.025   9.513  68.032  1.00  0.00    -0.077 OA 
HETATM   11  N   UNL     1      -9.054   8.938  68.939  1.00  0.00    -0.140 N  
BRANCH  11  12
HETATM   12  C   UNL     1      -8.654   7.634  69.439  1.00  0.00    -0.136 C  
HETATM   13  C   UNL     1      -9.084   6.531  68.481  1.00  0.00    -0.127 C  
HETATM   14  C   UNL     1      -9.225   7.391  70.835  1.00  0.00    -0.154 C  
ENDBRANCH  11  12
ENDBRANCH   7   8
ENDBRANCH   6   7
ENDBRANCH   4   6
BRANCH   4  15
HETATM   15  C   UNL     1     -11.192  13.337  67.846  1.00  0.00    -0.272 C  
BRANCH  15  16
HETATM   16  O   UNL     1     -11.166  13.480  66.415  1.00  0.00    -0.300 OA 
BRANCH  16  17
HETATM   17  C   UNL     1     -10.048  14.023  65.884  1.00  0.00    -0.321 C  
HETATM   18  O   UNL     1      -9.052  14.387  66.487  1.00  0.00    -0.257 OA 
HETATM   19  H1  UNL     1      -9.346  14.555  64.144  1.00  0.00     0.000 HD 
HETATM   20  N   UNL     1     -10.190  14.145  64.544  1.00  0.00    -0.630 N  
HETATM   21  H2  UNL     1     -11.017  13.870  64.015  1.00  0.00     0.000 HD 
ENDBRANCH  16  17
ENDBRANCH  15  16
ENDBRANCH   4  15
ENDBRANCH   3   4
ENDBRANCH   2   3
TORSDOF 9
ENDMDL
MODEL      187
REMARK 921   NORMALIZED FREE ENERGY PREDICTED BY IDOCK:   -2.82 KCAL/MOL
REMARK 922        TOTAL FREE ENERGY PREDICTED BY IDOCK:   -5.25 KCAL/MOL
REMARK 923 INTER-LIGAND FREE ENERGY PREDICTED BY IDOCK:   -4.81 KCAL/MOL
REMARK 924 INTRA-LIGAND FREE ENERGY PREDICTED BY IDOCK:   -0.45 KCAL/MOL
REMARK 927      BINDING AFFINITY PREDICTED BY RF-SCORE:    0.00 PKD
ROOT
HETATM    1  C   UNL     1     -12.445  15.516  69.674  1.00  0.00    -0.137 C  
HETATM    2  C   UNL     1     -11.114  15.009  69.134  1.00  0.00    -0.278 C  
ENDROOT
BRANCH   2   3
HETATM    3  C   UNL     1     -10.531  15.959  68.078  1.00  0.00    -0.274 C  
BRANCH   3   4
HETATM    4  C   UNL     1      -9.277  15.433  67.312  1.00  0.00    -0.217 C  
HETATM    5  C   UNL     1      -8.036  15.466  68.227  1.00  0.00    -0.136 C  
BRANCH   4   6
HETATM    6  C   UNL     1      -9.033  16.378  66.101  1.00  0.00    -0.332 C  
BRANCH   6   7
HETATM    7  O   UNL     1     -10.015  17.432  66.068  1.00  0.00    -0.434 OA 
BRANCH   7   8
HETATM    8  C   UNL     1      -9.583  18.676  66.401  1.00  0.00    -0.325 C  
HETATM    9  H   UNL     1      -7.751  17.955  65.806  1.00  0.00     0.000 HD 
HETATM   10  O   UNL     1     -10.282  19.567  66.861  1.00  0.00    -0.363 OA 
HETATM   11  N   UNL     1      -8.253  18.782  66.129  1.00  0.00    -0.242 N  
BRANCH  11  12
HETATM   12  C   UNL     1      -7.523  20.028  66.282  1.00  0.00    -0.299 C  
HETATM   13  C   UNL     1      -6.428  20.149  65.230  1.00  0.00    -0.314 C  
HETATM   14  C   UNL     1      -6.936  20.142  67.688  1.00  0.00    -0.302 C  
ENDBRANCH  11  12
ENDBRANCH   7   8
ENDBRANCH   6   7
ENDBRANCH   4   6
BRANCH   4  15
HETATM   15  C   UNL     1      -9.479  13.982  66.805  1.00  0.00    -0.282 C  
BRANCH  15  16
HETATM   16  O   UNL     1      -8.419  13.138  67.289  1.00  0.00    -0.189 OA 
BRANCH  16  17
HETATM   17  C   UNL     1      -8.423  11.857  66.856  1.00  0.00    -0.174 C  
HETATM   18  O   UNL     1      -9.386  11.112  66.779  1.00  0.00    -0.172 OA 
HETATM   19  H1  UNL     1      -7.169  10.512  66.206  1.00  0.00     0.000 HD 
HETATM   20  N   UNL     1      -7.166  11.478  66.533  1.00  0.00    -0.337 N  
HETATM   21  H2  UNL     1      -6.339  12.071  66.606  1.00  0.00     0.000 HD 
ENDBRANCH  16  17
ENDBRANCH  15  16
ENDBRANCH   4  15
ENDBRANCH   3   4
ENDBRANCH   2   3
TORSDOF 9
ENDMDL
MODEL      188
REMARK 921   NORMALIZED FREE ENERGY PREDICTED BY IDOCK:   -2.81 KCAL/MOL
REMARK 922        TOTAL FREE ENERGY PREDICTED BY IDOCK:   -5.23 KCAL/MOL
REMARK 923 INTER-LIGAND FREE ENERGY PREDICTED BY IDOCK:   -4.69 KCAL/MOL
REMARK 924 INTRA-LIGAND FREE ENERGY PREDICTED BY IDOCK:   -0.54 KCAL/MOL
REMARK 927      BINDING AFFINITY PREDICTED BY RF-SCORE:    0.00 PKD
ROOT
HETATM    1  C   UNL     1      -7.331  10.241  70.000  1.00  0.00    -0.157 C  
HETATM    2  C   UNL     1      -7.676   8.813  70.400  1.00  0.00    -0.091 C  
ENDROOT
BRANCH   2   3
HETATM    3  C   UNL     1      -8.579   8.774  71.641  1.00  0.00    -0.228 C  
BRANCH   3   4
HETATM    4  C   UNL     1     -10.017   8.210  71.415  1.00  0.00    -0.230 C  
HETATM    5  C   UNL     1     -10.324   7.098  72.437  1.00  0.00    -0.228 C  
BRANCH   4   6
HETATM    6  C   UNL     1     -10.067   7.604  69.983  1.00  0.00    -0.204 C  
BRANCH   6   7
HETATM    7  O   UNL     1     -11.111   8.218  69.203  1.00  0.00     0.008 OA 
BRANCH   7   8
HETATM    8  C   UNL     1     -10.739   8.783  68.026  1.00  0.00    -0.090 C  
HETATM    9  H   UNL     1     -10.547  10.486  69.162  1.00  0.00     0.000 HD 
HETATM   10  O   UNL     1     -10.694   8.206  66.948  1.00  0.00    -0.309 OA 
HETATM   11  N   UNL     1     -10.411  10.088  68.233  1.00  0.00    -0.183 N  
BRANCH  11  12
HETATM   12  C   UNL     1      -9.875  10.934  67.180  1.00  0.00    -0.184 C  
HETATM   13  C   UNL     1     -10.985  11.430  66.264  1.00  0.00    -0.303 C  
HETATM   14  C   UNL     1      -8.806  10.190  66.381  1.00  0.00    -0.158 C  
ENDBRANCH  11  12
ENDBRANCH   7   8
ENDBRANCH   6   7
ENDBRANCH   4   6
BRANCH   4  15
HETATM   15  C   UNL     1     -11.095   9.316  71.547  1.00  0.00    -0.373 C  
BRANCH  15  16
HETATM   16  O   UNL     1     -12.124   8.896  72.461  1.00  0.00    -0.325 OA 
BRANCH  16  17
HETATM   17  C   UNL     1     -13.400   9.119  72.075  1.00  0.00    -0.445 C  
HETATM   18  O   UNL     1     -14.408   8.938  72.738  1.00  0.00    -0.600 OA 
HETATM   19  H1  UNL     1     -14.385   9.727  70.506  1.00  0.00     0.000 HD 
HETATM   20  N   UNL     1     -13.422   9.559  70.796  1.00  0.00    -0.588 N  
HETATM   21  H2  UNL     1     -12.599   9.700  70.211  1.00  0.00     0.000 HD 
ENDBRANCH  16  17
ENDBRANCH  15  16
ENDBRANCH   4  15
ENDBRANCH   3   4
ENDBRANCH   2   3
TORSDOF 9
ENDMDL
MODEL      189
REMARK 921   NORMALIZED FREE ENERGY PREDICTED BY IDOCK:   -2.79 KCAL/MOL
REMARK 922        TOTAL FREE ENERGY PREDICTED BY IDOCK:   -5.21 KCAL/MOL
REMARK 923 INTER-LIGAND FREE ENERGY PREDICTED BY IDOCK:   -4.45 KCAL/MOL
REMARK 924 INTRA-LIGAND FREE ENERGY PREDICTED BY IDOCK:   -0.76 KCAL/MOL
REMARK 927      BINDING AFFINITY PREDICTED BY RF-SCORE:    0.00 PKD
ROOT
HETATM    1  C   UNL     1     -10.927   6.418  68.107  1.00  0.00    -0.393 C  
HETATM    2  C   UNL     1     -11.263   5.798  69.457  1.00  0.00    -0.139 C  
ENDROOT
BRANCH   2   3
HETATM    3  C   UNL     1     -10.456   6.440  70.593  1.00  0.00    -0.269 C  
BRANCH   3   4
HETATM    4  C   UNL     1     -11.290   7.187  71.681  1.00  0.00    -0.282 C  
HETATM    5  C   UNL     1     -12.798   6.953  71.455  1.00  0.00    -0.365 C  
BRANCH   4   6
HETATM    6  C   UNL     1     -10.992   8.708  71.542  1.00  0.00    -0.290 C  
BRANCH   6   7
HETATM    7  O   UNL     1      -9.600   8.932  71.247  1.00  0.00    -0.227 OA 
BRANCH   7   8
HETATM    8  C   UNL     1      -9.325   9.717  70.174  1.00  0.00    -0.215 C  
HETATM    9  H   UNL     1     -11.312   9.424  69.732  1.00  0.00     0.000 HD 
HETATM   10  O   UNL     1      -8.228  10.185  69.904  1.00  0.00    -0.177 OA 
HETATM   11  N   UNL     1     -10.462   9.915  69.453  1.00  0.00    -0.216 N  
BRANCH  11  12
HETATM   12  C   UNL     1     -10.511  10.798  68.300  1.00  0.00    -0.181 C  
HETATM   13  C   UNL     1     -11.862  11.495  68.207  1.00  0.00    -0.327 C  
HETATM   14  C   UNL     1     -10.211  10.027  67.015  1.00  0.00    -0.295 C  
ENDBRANCH  11  12
ENDBRANCH   7   8
ENDBRANCH   6   7
ENDBRANCH   4   6
BRANCH   4  15
HETATM   15  C   UNL     1     -10.925   6.715  73.111  1.00  0.00    -0.231 C  
BRANCH  15  16
HETATM   16  O   UNL     1     -11.385   5.368  73.320  1.00  0.00    -0.289 OA 
BRANCH  16  17
HETATM   17  C   UNL     1     -10.459   4.472  73.729  1.00  0.00    -0.233 C  
HETATM   18  O   UNL     1      -9.271   4.677  73.910  1.00  0.00    -0.111 OA 
HETATM   19  H1  UNL     1     -10.338   2.583  74.198  1.00  0.00     0.000 HD 
HETATM   20  N   UNL     1     -11.036   3.259  73.889  1.00  0.00    -0.211 N  
HETATM   21  H2  UNL     1     -12.021   3.052  73.726  1.00  0.00     0.000 HD 
ENDBRANCH  16  17
ENDBRANCH  15  16
ENDBRANCH   4  15
ENDBRANCH   3   4
ENDBRANCH   2   3
TORSDOF 9
ENDMDL
MODEL      190
REMARK 921   NORMALIZED FREE ENERGY PREDICTED BY IDOCK:   -2.79 KCAL/MOL
REMARK 922        TOTAL FREE ENERGY PREDICTED BY IDOCK:   -5.20 KCAL/MOL
REMARK 923 INTER-LIGAND FREE ENERGY PREDICTED BY IDOCK:   -4.48 KCAL/MOL
REMARK 924 INTRA-LIGAND FREE ENERGY PREDICTED BY IDOCK:   -0.72 KCAL/MOL
REMARK 927      BINDING AFFINITY PREDICTED BY RF-SCORE:    0.00 PKD
ROOT
HETATM    1  C   UNL     1      -7.720   3.793  69.426  1.00  0.00    -0.052 C  
HETATM    2  C   UNL     1      -9.063   4.402  69.044  1.00  0.00    -0.180 C  
ENDROOT
BRANCH   2   3
HETATM    3  C   UNL     1      -9.486   5.504  70.025  1.00  0.00    -0.205 C  
BRANCH   3   4
HETATM    4  C   UNL     1     -10.536   6.525  69.486  1.00  0.00    -0.293 C  
HETATM    5  C   UNL     1     -11.028   6.101  68.088  1.00  0.00    -0.398 C  
BRANCH   4   6
HETATM    6  C   UNL     1      -9.834   7.909  69.373  1.00  0.00    -0.180 C  
BRANCH   6   7
HETATM    7  O   UNL     1     -10.718   8.886  68.792  1.00  0.00    -0.187 OA 
BRANCH   7   8
HETATM    8  C   UNL     1     -10.135   9.966  68.211  1.00  0.00    -0.161 C  
HETATM    9  H   UNL     1      -9.984   8.725  66.578  1.00  0.00     0.000 HD 
HETATM   10  O   UNL     1      -9.929  11.038  68.760  1.00  0.00    -0.195 OA 
HETATM   11  N   UNL     1      -9.827   9.674  66.917  1.00  0.00    -0.188 N  
BRANCH  11  12
HETATM   12  C   UNL     1      -9.284  10.663  66.003  1.00  0.00    -0.182 C  
HETATM   13  C   UNL     1      -9.911  10.528  64.621  1.00  0.00    -0.404 C  
HETATM   14  C   UNL     1      -7.762  10.545  65.920  1.00  0.00    -0.148 C  
ENDBRANCH  11  12
ENDBRANCH   7   8
ENDBRANCH   6   7
ENDBRANCH   4   6
BRANCH   4  15
HETATM   15  C   UNL     1     -11.762   6.641  70.428  1.00  0.00    -0.386 C  
BRANCH  15  16
HETATM   16  O   UNL     1     -11.474   7.551  71.504  1.00  0.00    -0.254 OA 
BRANCH  16  17
HETATM   17  C   UNL     1     -12.381   8.529  71.725  1.00  0.00    -0.338 C  
HETATM   18  O   UNL     1     -13.577   8.390  71.916  1.00  0.00    -0.352 OA 
HETATM   19  H1  UNL     1     -12.458  10.474  71.843  1.00  0.00     0.000 HD 
HETATM   20  N   UNL     1     -11.774   9.737  71.676  1.00  0.00    -0.373 N  
HETATM   21  H2  UNL     1     -10.780   9.887  71.499  1.00  0.00     0.000 HD 
ENDBRANCH  16  17
ENDBRANCH  15  16
ENDBRANCH   4  15
ENDBRANCH   3   4
ENDBRANCH   2   3
TORSDOF 9
ENDMDL
MODEL      191
REMARK 921   NORMALIZED FREE ENERGY PREDICTED BY IDOCK:   -2.78 KCAL/MOL
REMARK 922        TOTAL FREE ENERGY PREDICTED BY IDOCK:   -5.18 KCAL/MOL
REMARK 923 INTER-LIGAND FREE ENERGY PREDICTED BY IDOCK:   -4.74 KCAL/MOL
REMARK 924 INTRA-LIGAND FREE ENERGY PREDICTED BY IDOCK:   -0.45 KCAL/MOL
REMARK 927      BINDING AFFINITY PREDICTED BY RF-SCORE:    0.00 PKD
ROOT
HETATM    1  C   UNL     1     -10.656   5.675  66.953  1.00  0.00    -0.367 C  
HETATM    2  C   UNL     1     -10.511   7.177  67.160  1.00  0.00    -0.389 C  
ENDROOT
BRANCH   2   3
HETATM    3  C   UNL     1     -10.729   7.572  68.627  1.00  0.00    -0.111 C  
BRANCH   3   4
HETATM    4  C   UNL     1     -10.268   9.011  69.018  1.00  0.00    -0.216 C  
HETATM    5  C   UNL     1     -11.487   9.890  69.362  1.00  0.00    -0.079 C  
BRANCH   4   6
HETATM    6  C   UNL     1      -9.538   9.623  67.787  1.00  0.00    -0.139 C  
BRANCH   6   7
HETATM    7  O   UNL     1     -10.114  10.895  67.432  1.00  0.00    -0.182 OA 
BRANCH   7   8
HETATM    8  C   UNL     1     -10.241  11.155  66.105  1.00  0.00    -0.244 C  
HETATM    9  H   UNL     1     -11.004  12.950  66.759  1.00  0.00     0.000 HD 
HETATM   10  O   UNL     1      -9.949  10.384  65.202  1.00  0.00    -0.285 OA 
HETATM   11  N   UNL     1     -10.732  12.414  65.935  1.00  0.00    -0.259 N  
BRANCH  11  12
HETATM   12  C   UNL     1     -10.883  13.021  64.624  1.00  0.00    -0.354 C  
HETATM   13  C   UNL     1     -11.059  14.529  64.741  1.00  0.00    -0.400 C  
HETATM   14  C   UNL     1     -12.058  12.397  63.871  1.00  0.00    -0.587 C  
ENDBRANCH  11  12
ENDBRANCH   7   8
ENDBRANCH   6   7
ENDBRANCH   4   6
BRANCH   4  15
HETATM   15  C   UNL     1      -9.308   8.997  70.236  1.00  0.00    -0.198 C  
BRANCH  15  16
HETATM   16  O   UNL     1     -10.064   9.022  71.460  1.00  0.00    -0.301 OA 
BRANCH  16  17
HETATM   17  C   UNL     1      -9.881   7.981  72.302  1.00  0.00    -0.236 C  
HETATM   18  O   UNL     1     -10.740   7.391  72.936  1.00  0.00    -0.273 OA 
HETATM   19  H1  UNL     1      -8.426   6.897  73.018  1.00  0.00     0.000 HD 
HETATM   20  N   UNL     1      -8.564   7.682  72.382  1.00  0.00    -0.118 N  
HETATM   21  H2  UNL     1      -7.821   8.170  71.881  1.00  0.00     0.000 HD 
ENDBRANCH  16  17
ENDBRANCH  15  16
ENDBRANCH   4  15
ENDBRANCH   3   4
ENDBRANCH   2   3
TORSDOF 9
ENDMDL
MODEL      192
REMARK 921   NORMALIZED FREE ENERGY PREDICTED BY IDOCK:   -2.76 KCAL/MOL
REMARK 922        TOTAL FREE ENERGY PREDICTED BY IDOCK:   -5.17 KCAL/MOL
REMARK 923 INTER-LIGAND FREE ENERGY PREDICTED BY IDOCK:   -4.45 KCAL/MOL
REMARK 924 INTRA-LIGAND FREE ENERGY PREDICTED BY IDOCK:   -0.72 KCAL/MOL
REMARK 927      BINDING AFFINITY PREDICTED BY RF-SCORE:    0.00 PKD
ROOT
HETATM    1  C   UNL     1      -8.549   3.644  67.695  1.00  0.00    -0.113 C  
HETATM    2  C   UNL     1      -9.368   4.573  68.581  1.00  0.00    -0.199 C  
ENDROOT
BRANCH   2   3
HETATM    3  C   UNL     1      -8.861   6.020  68.507  1.00  0.00    -0.112 C  
BRANCH   3   4
HETATM    4  C   UNL     1      -9.957   7.113  68.302  1.00  0.00    -0.171 C  
HETATM    5  C   UNL     1     -11.111   6.560  67.442  1.00  0.00    -0.411 C  
BRANCH   4   6
HETATM    6  C   UNL     1      -9.298   8.306  67.552  1.00  0.00    -0.140 C  
BRANCH   6   7
HETATM    7  O   UNL     1      -9.981   8.570  66.312  1.00  0.00    -0.262 OA 
BRANCH   7   8
HETATM    8  C   UNL     1      -9.838   9.817  65.792  1.00  0.00    -0.290 C  
HETATM    9  H   UNL     1      -9.650  10.373  67.763  1.00  0.00     0.000 HD 
HETATM   10  O   UNL     1      -9.893  10.097  64.603  1.00  0.00    -0.324 OA 
HETATM   11  N   UNL     1      -9.611  10.705  66.799  1.00  0.00    -0.166 N  
BRANCH  11  12
HETATM   12  C   UNL     1      -9.316  12.105  66.552  1.00  0.00    -0.228 C  
HETATM   13  C   UNL     1      -8.097  12.552  67.348  1.00  0.00    -0.180 C  
HETATM   14  C   UNL     1     -10.526  12.979  66.881  1.00  0.00    -0.258 C  
ENDBRANCH  11  12
ENDBRANCH   7   8
ENDBRANCH   6   7
ENDBRANCH   4   6
BRANCH   4  15
HETATM   15  C   UNL     1     -10.537   7.605  69.653  1.00  0.00    -0.243 C  
BRANCH  15  16
HETATM   16  O   UNL     1     -10.131   8.963  69.899  1.00  0.00    -0.185 OA 
BRANCH  16  17
HETATM   17  C   UNL     1     -10.900   9.676  70.753  1.00  0.00    -0.330 C  
HETATM   18  O   UNL     1     -11.329   9.309  71.834  1.00  0.00    -0.374 OA 
HETATM   19  H1  UNL     1     -11.750  11.428  70.865  1.00  0.00     0.000 HD 
HETATM   20  N   UNL     1     -11.170  10.890  70.221  1.00  0.00    -0.460 N  
HETATM   21  H2  UNL     1     -10.843  11.217  69.312  1.00  0.00     0.000 HD 
ENDBRANCH  16  17
ENDBRANCH  15  16
ENDBRANCH   4  15
ENDBRANCH   3   4
ENDBRANCH   2   3
TORSDOF 9
ENDMDL
MODEL      193
REMARK 921   NORMALIZED FREE ENERGY PREDICTED BY IDOCK:   -2.74 KCAL/MOL
REMARK 922        TOTAL FREE ENERGY PREDICTED BY IDOCK:   -5.13 KCAL/MOL
REMARK 923 INTER-LIGAND FREE ENERGY PREDICTED BY IDOCK:   -4.38 KCAL/MOL
REMARK 924 INTRA-LIGAND FREE ENERGY PREDICTED BY IDOCK:   -0.75 KCAL/MOL
REMARK 927      BINDING AFFINITY PREDICTED BY RF-SCORE:    0.00 PKD
ROOT
HETATM    1  C   UNL     1     -10.510   9.128  66.800  1.00  0.00    -0.266 C  
HETATM    2  C   UNL     1     -10.371   7.844  67.607  1.00  0.00    -0.307 C  
ENDROOT
BRANCH   2   3
HETATM    3  C   UNL     1      -9.667   8.089  68.948  1.00  0.00    -0.159 C  
BRANCH   3   4
HETATM    4  C   UNL     1     -10.440   7.612  70.217  1.00  0.00    -0.224 C  
HETATM    5  C   UNL     1     -11.332   6.400  69.878  1.00  0.00    -0.500 C  
BRANCH   4   6
HETATM    6  C   UNL     1     -11.346   8.786  70.687  1.00  0.00    -0.254 C  
BRANCH   6   7
HETATM    7  O   UNL     1     -10.747  10.056  70.363  1.00  0.00    -0.287 OA 
BRANCH   7   8
HETATM    8  C   UNL     1     -11.598  11.073  70.073  1.00  0.00    -0.344 C  
HETATM    9  H   UNL     1     -10.069  11.706  68.852  1.00  0.00     0.000 HD 
HETATM   10  O   UNL     1     -12.709  11.226  70.560  1.00  0.00    -0.253 OA 
HETATM   11  N   UNL     1     -11.028  11.890  69.145  1.00  0.00    -0.224 N  
BRANCH  11  12
HETATM   12  C   UNL     1     -11.736  13.014  68.555  1.00  0.00    -0.342 C  
HETATM   13  C   UNL     1     -12.024  12.762  67.081  1.00  0.00    -0.351 C  
HETATM   14  C   UNL     1     -10.943  14.308  68.738  1.00  0.00    -0.271 C  
ENDBRANCH  11  12
ENDBRANCH   7   8
ENDBRANCH   6   7
ENDBRANCH   4   6
BRANCH   4  15
HETATM   15  C   UNL     1      -9.475   7.211  71.362  1.00  0.00    -0.161 C  
BRANCH  15  16
HETATM   16  O   UNL     1      -9.489   5.784  71.543  1.00  0.00    -0.149 OA 
BRANCH  16  17
HETATM   17  C   UNL     1      -8.284   5.175  71.624  1.00  0.00    -0.116 C  
HETATM   18  O   UNL     1      -7.192   5.684  71.436  1.00  0.00    -0.073 OA 
HETATM   19  H1  UNL     1      -7.543   3.408  71.984  1.00  0.00     0.000 HD 
HETATM   20  N   UNL     1      -8.452   3.867  71.923  1.00  0.00    -0.096 N  
HETATM   21  H2  UNL     1      -9.352   3.408  72.065  1.00  0.00     0.000 HD 
ENDBRANCH  16  17
ENDBRANCH  15  16
ENDBRANCH   4  15
ENDBRANCH   3   4
ENDBRANCH   2   3
TORSDOF 9
ENDMDL
MODEL      194
REMARK 921   NORMALIZED FREE ENERGY PREDICTED BY IDOCK:   -2.73 KCAL/MOL
REMARK 922        TOTAL FREE ENERGY PREDICTED BY IDOCK:   -5.12 KCAL/MOL
REMARK 923 INTER-LIGAND FREE ENERGY PREDICTED BY IDOCK:   -5.02 KCAL/MOL
REMARK 924 INTRA-LIGAND FREE ENERGY PREDICTED BY IDOCK:   -0.10 KCAL/MOL
REMARK 927      BINDING AFFINITY PREDICTED BY RF-SCORE:    0.00 PKD
ROOT
HETATM    1  C   UNL     1      -6.946  12.435  67.303  1.00  0.00    -0.129 C  
HETATM    2  C   UNL     1      -8.324  12.716  67.888  1.00  0.00    -0.172 C  
ENDROOT
BRANCH   2   3
HETATM    3  C   UNL     1      -9.032  11.424  68.319  1.00  0.00    -0.175 C  
BRANCH   3   4
HETATM    4  C   UNL     1     -10.408  11.145  67.637  1.00  0.00    -0.223 C  
HETATM    5  C   UNL     1     -10.267  11.196  66.102  1.00  0.00    -0.293 C  
BRANCH   4   6
HETATM    6  C   UNL     1     -11.393  12.262  68.088  1.00  0.00    -0.295 C  
BRANCH   6   7
HETATM    7  O   UNL     1     -12.212  11.811  69.183  1.00  0.00    -0.251 OA 
BRANCH   7   8
HETATM    8  C   UNL     1     -12.376  12.675  70.217  1.00  0.00    -0.195 C  
HETATM    9  H   UNL     1     -12.014  14.106  68.784  1.00  0.00     0.000 HD 
HETATM   10  O   UNL     1     -12.600  12.357  71.376  1.00  0.00    -0.306 OA 
HETATM   11  N   UNL     1     -12.267  13.953  69.761  1.00  0.00    -0.341 N  
BRANCH  11  12
HETATM   12  C   UNL     1     -12.496  15.108  70.613  1.00  0.00    -0.388 C  
HETATM   13  C   UNL     1     -11.373  15.265  71.629  1.00  0.00    -0.440 C  
HETATM   14  C   UNL     1     -13.850  15.001  71.315  1.00  0.00    -0.528 C  
ENDBRANCH  11  12
ENDBRANCH   7   8
ENDBRANCH   6   7
ENDBRANCH   4   6
BRANCH   4  15
HETATM   15  C   UNL     1     -10.977   9.760  68.036  1.00  0.00    -0.180 C  
BRANCH  15  16
HETATM   16  O   UNL     1      -9.911   8.802  68.152  1.00  0.00    -0.158 OA 
BRANCH  16  17
HETATM   17  C   UNL     1      -9.936   7.762  67.289  1.00  0.00    -0.212 C  
HETATM   18  O   UNL     1      -9.126   7.519  66.410  1.00  0.00    -0.162 OA 
HETATM   19  H1  UNL     1     -11.057   6.225  66.859  1.00  0.00     0.000 HD 
HETATM   20  N   UNL     1     -11.038   7.010  67.511  1.00  0.00    -0.571 N  
HETATM   21  H2  UNL     1     -11.743   7.199  68.223  1.00  0.00     0.000 HD 
ENDBRANCH  16  17
ENDBRANCH  15  16
ENDBRANCH   4  15
ENDBRANCH   3   4
ENDBRANCH   2   3
TORSDOF 9
ENDMDL
MODEL      195
REMARK 921   NORMALIZED FREE ENERGY PREDICTED BY IDOCK:   -2.73 KCAL/MOL
REMARK 922        TOTAL FREE ENERGY PREDICTED BY IDOCK:   -5.11 KCAL/MOL
REMARK 923 INTER-LIGAND FREE ENERGY PREDICTED BY IDOCK:   -4.36 KCAL/MOL
REMARK 924 INTRA-LIGAND FREE ENERGY PREDICTED BY IDOCK:   -0.75 KCAL/MOL
REMARK 927      BINDING AFFINITY PREDICTED BY RF-SCORE:    0.00 PKD
ROOT
HETATM    1  C   UNL     1     -10.129   4.522  65.838  1.00  0.00    -0.279 C  
HETATM    2  C   UNL     1      -9.913   5.654  66.833  1.00  0.00    -0.202 C  
ENDROOT
BRANCH   2   3
HETATM    3  C   UNL     1      -8.917   6.694  66.302  1.00  0.00    -0.168 C  
BRANCH   3   4
HETATM    4  C   UNL     1      -9.036   8.123  66.918  1.00  0.00    -0.185 C  
HETATM    5  C   UNL     1      -7.674   8.844  66.868  1.00  0.00    -0.098 C  
BRANCH   4   6
HETATM    6  C   UNL     1      -9.464   7.961  68.406  1.00  0.00    -0.148 C  
BRANCH   6   7
HETATM    7  O   UNL     1     -10.649   8.731  68.684  1.00  0.00    -0.208 OA 
BRANCH   7   8
HETATM    8  C   UNL     1     -10.583   9.593  69.731  1.00  0.00    -0.242 C  
HETATM    9  H   UNL     1     -12.502  10.073  69.167  1.00  0.00     0.000 HD 
HETATM   10  O   UNL     1      -9.609   9.757  70.451  1.00  0.00    -0.252 OA 
HETATM   11  N   UNL     1     -11.775  10.238  69.863  1.00  0.00    -0.245 N  
BRANCH  11  12
HETATM   12  C   UNL     1     -12.050  11.151  70.959  1.00  0.00    -0.275 C  
HETATM   13  C   UNL     1     -13.180  10.625  71.834  1.00  0.00    -0.528 C  
HETATM   14  C   UNL     1     -12.380  12.547  70.429  1.00  0.00    -0.311 C  
ENDBRANCH  11  12
ENDBRANCH   7   8
ENDBRANCH   6   7
ENDBRANCH   4   6
BRANCH   4  15
HETATM   15  C   UNL     1     -10.082   8.988  66.169  1.00  0.00    -0.172 C  
BRANCH  15  16
HETATM   16  O   UNL     1      -9.613  10.344  66.058  1.00  0.00    -0.181 OA 
BRANCH  16  17
HETATM   17  C   UNL     1     -10.561  11.302  65.948  1.00  0.00    -0.253 C  
HETATM   18  O   UNL     1     -11.307  11.699  66.827  1.00  0.00    -0.326 OA 
HETATM   19  H1  UNL     1     -11.315  12.486  64.595  1.00  0.00     0.000 HD 
HETATM   20  N   UNL     1     -10.601  11.763  64.677  1.00  0.00    -0.291 N  
HETATM   21  H2  UNL     1     -10.005  11.437  63.917  1.00  0.00     0.000 HD 
ENDBRANCH  16  17
ENDBRANCH  15  16
ENDBRANCH   4  15
ENDBRANCH   3   4
ENDBRANCH   2   3
TORSDOF 9
ENDMDL
MODEL      196
REMARK 921   NORMALIZED FREE ENERGY PREDICTED BY IDOCK:   -2.72 KCAL/MOL
REMARK 922        TOTAL FREE ENERGY PREDICTED BY IDOCK:   -5.09 KCAL/MOL
REMARK 923 INTER-LIGAND FREE ENERGY PREDICTED BY IDOCK:   -4.26 KCAL/MOL
REMARK 924 INTRA-LIGAND FREE ENERGY PREDICTED BY IDOCK:   -0.83 KCAL/MOL
REMARK 927      BINDING AFFINITY PREDICTED BY RF-SCORE:    0.00 PKD
ROOT
HETATM    1  C   UNL     1      -5.902  17.902  65.881  1.00  0.00    -0.237 C  
HETATM    2  C   UNL     1      -7.360  18.250  66.152  1.00  0.00    -0.298 C  
ENDROOT
BRANCH   2   3
HETATM    3  C   UNL     1      -7.823  17.729  67.520  1.00  0.00    -0.214 C  
BRANCH   3   4
HETATM    4  C   UNL     1      -9.072  16.793  67.502  1.00  0.00    -0.211 C  
HETATM    5  C   UNL     1     -10.342  17.585  67.872  1.00  0.00    -0.371 C  
BRANCH   4   6
HETATM    6  C   UNL     1      -8.845  15.683  68.568  1.00  0.00    -0.187 C  
BRANCH   6   7
HETATM    7  O   UNL     1      -7.958  14.665  68.065  1.00  0.00    -0.119 OA 
BRANCH   7   8
HETATM    8  C   UNL     1      -8.452  13.402  68.007  1.00  0.00    -0.173 C  
HETATM    9  H   UNL     1      -6.588  12.946  67.268  1.00  0.00     0.000 HD 
HETATM   10  O   UNL     1      -9.588  13.073  68.317  1.00  0.00    -0.219 OA 
HETATM   11  N   UNL     1      -7.483  12.555  67.561  1.00  0.00    -0.140 N  
BRANCH  11  12
HETATM   12  C   UNL     1      -7.677  11.117  67.488  1.00  0.00    -0.116 C  
HETATM   13  C   UNL     1      -6.475  10.377  68.058  1.00  0.00    -0.060 C  
HETATM   14  C   UNL     1      -7.948  10.681  66.048  1.00  0.00    -0.159 C  
ENDBRANCH  11  12
ENDBRANCH   7   8
ENDBRANCH   6   7
ENDBRANCH   4   6
BRANCH   4  15
HETATM   15  C   UNL     1      -9.283  16.142  66.111  1.00  0.00    -0.347 C  
BRANCH  15  16
HETATM   16  O   UNL     1     -10.670  16.211  65.738  1.00  0.00    -0.329 OA 
BRANCH  16  17
HETATM   17  C   UNL     1     -11.280  15.036  65.463  1.00  0.00    -0.344 C  
HETATM   18  O   UNL     1     -11.591  14.612  64.363  1.00  0.00    -0.367 OA 
HETATM   19  H1  UNL     1     -12.001  13.489  66.406  1.00  0.00     0.000 HD 
HETATM   20  N   UNL     1     -11.541  14.375  66.614  1.00  0.00    -0.371 N  
HETATM   21  H2  UNL     1     -11.312  14.713  67.548  1.00  0.00     0.000 HD 
ENDBRANCH  16  17
ENDBRANCH  15  16
ENDBRANCH   4  15
ENDBRANCH   3   4
ENDBRANCH   2   3
TORSDOF 9
ENDMDL
MODEL      197
REMARK 921   NORMALIZED FREE ENERGY PREDICTED BY IDOCK:   -2.71 KCAL/MOL
REMARK 922        TOTAL FREE ENERGY PREDICTED BY IDOCK:   -5.09 KCAL/MOL
REMARK 923 INTER-LIGAND FREE ENERGY PREDICTED BY IDOCK:   -4.45 KCAL/MOL
REMARK 924 INTRA-LIGAND FREE ENERGY PREDICTED BY IDOCK:   -0.64 KCAL/MOL
REMARK 927      BINDING AFFINITY PREDICTED BY RF-SCORE:    0.00 PKD
ROOT
HETATM    1  C   UNL     1     -12.616  10.330  71.411  1.00  0.00    -0.539 C  
HETATM    2  C   UNL     1     -11.620  10.880  70.398  1.00  0.00    -0.418 C  
ENDROOT
BRANCH   2   3
HETATM    3  C   UNL     1     -12.284  11.160  69.043  1.00  0.00    -0.194 C  
BRANCH   3   4
HETATM    4  C   UNL     1     -11.330  11.656  67.911  1.00  0.00    -0.369 C  
HETATM    5  C   UNL     1     -10.868  10.470  67.041  1.00  0.00    -0.288 C  
BRANCH   4   6
HETATM    6  C   UNL     1     -10.086  12.297  68.589  1.00  0.00    -0.144 C  
BRANCH   6   7
HETATM    7  O   UNL     1      -8.875  11.898  67.918  1.00  0.00    -0.157 OA 
BRANCH   7   8
HETATM    8  C   UNL     1      -7.733  11.931  68.652  1.00  0.00    -0.113 C  
HETATM    9  H   UNL     1      -8.175   9.955  69.014  1.00  0.00     0.000 HD 
HETATM   10  O   UNL     1      -7.029  12.916  68.820  1.00  0.00    -0.097 OA 
HETATM   11  N   UNL     1      -7.486  10.693  69.162  1.00  0.00    -0.112 N  
BRANCH  11  12
HETATM   12  C   UNL     1      -6.280  10.384  69.910  1.00  0.00    -0.081 C  
HETATM   13  C   UNL     1      -5.260   9.677  69.027  1.00  0.00    -0.036 C  
HETATM   14  C   UNL     1      -6.608   9.539  71.140  1.00  0.00    -0.027 C  
ENDBRANCH  11  12
ENDBRANCH   7   8
ENDBRANCH   6   7
ENDBRANCH   4   6
BRANCH   4  15
HETATM   15  C   UNL     1     -12.019  12.701  66.996  1.00  0.00    -0.260 C  
BRANCH  15  16
HETATM   16  O   UNL     1     -11.769  12.390  65.614  1.00  0.00    -0.381 OA 
BRANCH  16  17
HETATM   17  C   UNL     1     -11.009  13.271  64.926  1.00  0.00    -0.330 C  
HETATM   18  O   UNL     1     -10.391  14.219  65.382  1.00  0.00    -0.327 OA 
HETATM   19  H1  UNL     1     -10.472  13.640  63.088  1.00  0.00     0.000 HD 
HETATM   20  N   UNL     1     -11.045  12.976  63.607  1.00  0.00    -0.576 N  
HETATM   21  H2  UNL     1     -11.568  12.204  63.194  1.00  0.00     0.000 HD 
ENDBRANCH  16  17
ENDBRANCH  15  16
ENDBRANCH   4  15
ENDBRANCH   3   4
ENDBRANCH   2   3
TORSDOF 9
ENDMDL
MODEL      198
REMARK 921   NORMALIZED FREE ENERGY PREDICTED BY IDOCK:   -2.70 KCAL/MOL
REMARK 922        TOTAL FREE ENERGY PREDICTED BY IDOCK:   -5.07 KCAL/MOL
REMARK 923 INTER-LIGAND FREE ENERGY PREDICTED BY IDOCK:   -4.88 KCAL/MOL
REMARK 924 INTRA-LIGAND FREE ENERGY PREDICTED BY IDOCK:   -0.18 KCAL/MOL
REMARK 927      BINDING AFFINITY PREDICTED BY RF-SCORE:    0.00 PKD
ROOT
HETATM    1  C   UNL     1     -10.930  15.384  70.629  1.00  0.00    -0.350 C  
HETATM    2  C   UNL     1      -9.706  15.085  69.774  1.00  0.00    -0.007 C  
ENDROOT
BRANCH   2   3
HETATM    3  C   UNL     1      -9.681  15.939  68.499  1.00  0.00    -0.211 C  
BRANCH   3   4
HETATM    4  C   UNL     1      -8.534  15.618  67.490  1.00  0.00    -0.182 C  
HETATM    5  C   UNL     1      -7.183  16.124  68.035  1.00  0.00    -0.139 C  
BRANCH   4   6
HETATM    6  C   UNL     1      -8.851  16.364  66.162  1.00  0.00    -0.314 C  
BRANCH   6   7
HETATM    7  O   UNL     1     -10.265  16.614  66.040  1.00  0.00    -0.328 OA 
BRANCH   7   8
HETATM    8  C   UNL     1     -10.930  15.899  65.097  1.00  0.00    -0.377 C  
HETATM    9  H   UNL     1     -10.454  14.297  66.296  1.00  0.00     0.000 HD 
HETATM   10  O   UNL     1     -11.433  16.363  64.083  1.00  0.00    -0.951 OA 
HETATM   11  N   UNL     1     -10.962  14.587  65.460  1.00  0.00    -0.319 N  
BRANCH  11  12
HETATM   12  C   UNL     1     -11.693  13.586  64.703  1.00  0.00    -0.381 C  
HETATM   13  C   UNL     1     -12.271  12.521  65.626  1.00  0.00    -0.403 C  
HETATM   14  C   UNL     1     -10.797  12.951  63.640  1.00  0.00    -0.270 C  
ENDBRANCH  11  12
ENDBRANCH   7   8
ENDBRANCH   6   7
ENDBRANCH   4   6
BRANCH   4  15
HETATM   15  C   UNL     1      -8.418  14.097  67.216  1.00  0.00    -0.214 C  
BRANCH  15  16
HETATM   16  O   UNL     1      -7.292  13.551  67.925  1.00  0.00    -0.115 OA 
BRANCH  16  17
HETATM   17  C   UNL     1      -6.905  12.304  67.575  1.00  0.00    -0.135 C  
HETATM   18  O   UNL     1      -7.568  11.471  66.979  1.00  0.00    -0.140 OA 
HETATM   19  H1  UNL     1      -5.356  11.133  67.751  1.00  0.00     0.000 HD 
HETATM   20  N   UNL     1      -5.647  12.074  68.015  1.00  0.00    -0.048 N  
HETATM   21  H2  UNL     1      -5.076  12.742  68.533  1.00  0.00     0.000 HD 
ENDBRANCH  16  17
ENDBRANCH  15  16
ENDBRANCH   4  15
ENDBRANCH   3   4
ENDBRANCH   2   3
TORSDOF 9
ENDMDL
MODEL      199
REMARK 921   NORMALIZED FREE ENERGY PREDICTED BY IDOCK:   -2.70 KCAL/MOL
REMARK 922        TOTAL FREE ENERGY PREDICTED BY IDOCK:   -5.06 KCAL/MOL
REMARK 923 INTER-LIGAND FREE ENERGY PREDICTED BY IDOCK:   -5.11 KCAL/MOL
REMARK 924 INTRA-LIGAND FREE ENERGY PREDICTED BY IDOCK:    0.04 KCAL/MOL
REMARK 927      BINDING AFFINITY PREDICTED BY RF-SCORE:    0.00 PKD
ROOT
HETATM    1  C   UNL     1      -7.858  16.928  66.248  1.00  0.00    -0.346 C  
HETATM    2  C   UNL     1      -9.244  16.357  65.981  1.00  0.00    -0.328 C  
ENDROOT
BRANCH   2   3
HETATM    3  C   UNL     1      -9.745  15.510  67.159  1.00  0.00    -0.226 C  
BRANCH   3   4
HETATM    4  C   UNL     1     -10.927  14.540  66.842  1.00  0.00    -0.316 C  
HETATM    5  C   UNL     1     -11.773  15.088  65.676  1.00  0.00    -0.123 C  
BRANCH   4   6
HETATM    6  C   UNL     1     -11.820  14.453  68.113  1.00  0.00    -0.327 C  
BRANCH   6   7
HETATM    7  O   UNL     1     -11.469  15.484  69.056  1.00  0.00    -0.306 OA 
BRANCH   7   8
HETATM    8  C   UNL     1     -11.892  15.308  70.335  1.00  0.00    -0.324 C  
HETATM    9  H   UNL     1     -13.730  15.038  69.452  1.00  0.00     0.000 HD 
HETATM   10  O   UNL     1     -11.186  15.388  71.330  1.00  0.00    -0.354 OA 
HETATM   11  N   UNL     1     -13.222  15.015  70.336  1.00  0.00    -0.191 N  
BRANCH  11  12
HETATM   12  C   UNL     1     -13.944  14.673  71.550  1.00  0.00    -0.438 C  
HETATM   13  C   UNL     1     -13.692  15.705  72.641  1.00  0.00    -0.666 C  
HETATM   14  C   UNL     1     -13.560  13.274  72.030  1.00  0.00    -0.573 C  
ENDBRANCH  11  12
ENDBRANCH   7   8
ENDBRANCH   6   7
ENDBRANCH   4   6
BRANCH   4  15
HETATM   15  C   UNL     1     -10.422  13.123  66.465  1.00  0.00    -0.279 C  
BRANCH  15  16
HETATM   16  O   UNL     1      -9.016  13.009  66.744  1.00  0.00    -0.221 OA 
BRANCH  16  17
HETATM   17  C   UNL     1      -8.348  12.033  66.088  1.00  0.00     0.247 C  
HETATM   18  O   UNL     1      -8.829  11.167  65.377  1.00  0.00    -0.180 OA 
HETATM   19  H1  UNL     1      -6.523  11.388  65.860  1.00  0.00     0.000 HD 
HETATM   20  N   UNL     1      -7.026  12.124  66.355  1.00  0.00    -0.155 N  
HETATM   21  H2  UNL     1      -6.597  12.823  66.960  1.00  0.00     0.000 HD 
ENDBRANCH  16  17
ENDBRANCH  15  16
ENDBRANCH   4  15
ENDBRANCH   3   4
ENDBRANCH   2   3
TORSDOF 9
ENDMDL
MODEL      200
REMARK 921   NORMALIZED FREE ENERGY PREDICTED BY IDOCK:   -2.69 KCAL/MOL
REMARK 922        TOTAL FREE ENERGY PREDICTED BY IDOCK:   -5.06 KCAL/MOL
REMARK 923 INTER-LIGAND FREE ENERGY PREDICTED BY IDOCK:   -4.44 KCAL/MOL
REMARK 924 INTRA-LIGAND FREE ENERGY PREDICTED BY IDOCK:   -0.62 KCAL/MOL
REMARK 927      BINDING AFFINITY PREDICTED BY RF-SCORE:    0.00 PKD
ROOT
HETATM    1  C   UNL     1     -10.979   6.396  67.223  1.00  0.00    -0.474 C  
HETATM    2  C   UNL     1     -10.587   7.867  67.284  1.00  0.00    -0.365 C  
ENDROOT
BRANCH   2   3
HETATM    3  C   UNL     1      -9.435   8.106  68.270  1.00  0.00    -0.148 C  
BRANCH   3   4
HETATM    4  C   UNL     1      -9.854   8.523  69.715  1.00  0.00    -0.186 C  
HETATM    5  C   UNL     1      -8.853   9.545  70.290  1.00  0.00    -0.281 C  
BRANCH   4   6
HETATM    6  C   UNL     1      -9.831   7.243  70.600  1.00  0.00    -0.179 C  
BRANCH   6   7
HETATM    7  O   UNL     1      -8.874   7.378  71.669  1.00  0.00    -0.117 OA 
BRANCH   7   8
HETATM    8  C   UNL     1      -8.636   6.269  72.415  1.00  0.00    -0.121 C  
HETATM    9  H   UNL     1     -10.045   5.412  71.185  1.00  0.00     0.000 HD 
HETATM   10  O   UNL     1      -7.863   6.206  73.360  1.00  0.00    -0.100 OA 
HETATM   11  N   UNL     1      -9.382   5.233  71.940  1.00  0.00    -0.141 N  
BRANCH  11  12
HETATM   12  C   UNL     1      -9.269   3.884  72.467  1.00  0.00    -0.114 C  
HETATM   13  C   UNL     1      -9.233   2.862  71.340  1.00  0.00    -0.190 C  
HETATM   14  C   UNL     1     -10.415   3.584  73.433  1.00  0.00    -0.264 C  
ENDBRANCH  11  12
ENDBRANCH   7   8
ENDBRANCH   6   7
ENDBRANCH   4   6
BRANCH   4  15
HETATM   15  C   UNL     1     -11.272   9.148  69.745  1.00  0.00    -0.056 C  
BRANCH  15  16
HETATM   16  O   UNL     1     -11.505   9.785  71.014  1.00  0.00    -0.322 OA 
BRANCH  16  17
HETATM   17  C   UNL     1     -12.728  10.329  71.200  1.00  0.00    -0.403 C  
HETATM   18  O   UNL     1     -12.977  11.474  71.539  1.00  0.00    -0.431 OA 
HETATM   19  H1  UNL     1     -14.605   9.806  71.125  1.00  0.00     0.000 HD 
HETATM   20  N   UNL     1     -13.683   9.395  70.984  1.00  0.00    -0.545 N  
HETATM   21  H2  UNL     1     -13.505   8.426  70.721  1.00  0.00     0.000 HD 
ENDBRANCH  16  17
ENDBRANCH  15  16
ENDBRANCH   4  15
ENDBRANCH   3   4
ENDBRANCH   2   3
TORSDOF 9
ENDMDL
MODEL      201
REMARK 921   NORMALIZED FREE ENERGY PREDICTED BY IDOCK:   -2.67 KCAL/MOL
REMARK 922        TOTAL FREE ENERGY PREDICTED BY IDOCK:   -5.02 KCAL/MOL
REMARK 923 INTER-LIGAND FREE ENERGY PREDICTED BY IDOCK:   -4.49 KCAL/MOL
REMARK 924 INTRA-LIGAND FREE ENERGY PREDICTED BY IDOCK:   -0.53 KCAL/MOL
REMARK 927      BINDING AFFINITY PREDICTED BY RF-SCORE:    0.00 PKD
ROOT
HETATM    1  C   UNL     1     -10.325   6.553  67.175  1.00  0.00    -0.311 C  
HETATM    2  C   UNL     1     -10.990   7.273  68.340  1.00  0.00    -0.028 C  
ENDROOT
BRANCH   2   3
HETATM    3  C   UNL     1     -10.639   8.767  68.359  1.00  0.00    -0.185 C  
BRANCH   3   4
HETATM    4  C   UNL     1     -10.658   9.450  69.763  1.00  0.00    -0.247 C  
HETATM    5  C   UNL     1     -11.674   8.748  70.687  1.00  0.00    -0.194 C  
BRANCH   4   6
HETATM    6  C   UNL     1     -11.099  10.928  69.562  1.00  0.00    -0.268 C  
BRANCH   6   7
HETATM    7  O   UNL     1     -11.835  11.080  68.333  1.00  0.00    -0.503 OA 
BRANCH   7   8
HETATM    8  C   UNL     1     -11.464  12.106  67.525  1.00  0.00    -0.340 C  
HETATM    9  H   UNL     1     -12.308  10.952  66.047  1.00  0.00     0.000 HD 
HETATM   10  O   UNL     1     -10.866  13.110  67.887  1.00  0.00    -0.233 OA 
HETATM   11  N   UNL     1     -11.873  11.852  66.252  1.00  0.00    -0.169 N  
BRANCH  11  12
HETATM   12  C   UNL     1     -11.712  12.812  65.174  1.00  0.00    -0.360 C  
HETATM   13  C   UNL     1     -12.767  13.907  65.261  1.00  0.00    -0.485 C  
HETATM   14  C   UNL     1     -11.767  12.115  63.815  1.00  0.00    -0.576 C  
ENDBRANCH  11  12
ENDBRANCH   7   8
ENDBRANCH   6   7
ENDBRANCH   4   6
BRANCH   4  15
HETATM   15  C   UNL     1      -9.264   9.412  70.441  1.00  0.00    -0.257 C  
BRANCH  15  16
HETATM   16  O   UNL     1      -8.268   8.978  69.498  1.00  0.00    -0.106 OA 
BRANCH  16  17
HETATM   17  C   UNL     1      -7.509   7.921  69.866  1.00  0.00    -0.080 C  
HETATM   18  O   UNL     1      -6.339   7.725  69.584  1.00  0.00    -0.030 OA 
HETATM   19  H1  UNL     1      -7.679   6.259  70.872  1.00  0.00     0.000 HD 
HETATM   20  N   UNL     1      -8.252   7.056  70.594  1.00  0.00    -0.117 N  
HETATM   21  H2  UNL     1      -9.236   7.182  70.830  1.00  0.00     0.000 HD 
ENDBRANCH  16  17
ENDBRANCH  15  16
ENDBRANCH   4  15
ENDBRANCH   3   4
ENDBRANCH   2   3
TORSDOF 9
ENDMDL
MODEL      202
REMARK 921   NORMALIZED FREE ENERGY PREDICTED BY IDOCK:   -2.66 KCAL/MOL
REMARK 922        TOTAL FREE ENERGY PREDICTED BY IDOCK:   -5.01 KCAL/MOL
REMARK 923 INTER-LIGAND FREE ENERGY PREDICTED BY IDOCK:   -4.28 KCAL/MOL
REMARK 924 INTRA-LIGAND FREE ENERGY PREDICTED BY IDOCK:   -0.73 KCAL/MOL
REMARK 927      BINDING AFFINITY PREDICTED BY RF-SCORE:    0.00 PKD
ROOT
HETATM    1  C   UNL     1     -13.010  10.225  71.005  1.00  0.00    -0.488 C  
HETATM    2  C   UNL     1     -12.040  11.215  70.373  1.00  0.00    -0.475 C  
ENDROOT
BRANCH   2   3
HETATM    3  C   UNL     1     -11.959  11.036  68.851  1.00  0.00    -0.332 C  
BRANCH   3   4
HETATM    4  C   UNL     1     -10.580  10.556  68.297  1.00  0.00    -0.240 C  
HETATM    5  C   UNL     1     -10.765   9.316  67.400  1.00  0.00    -0.263 C  
BRANCH   4   6
HETATM    6  C   UNL     1      -9.692  10.169  69.514  1.00  0.00    -0.229 C  
BRANCH   6   7
HETATM    7  O   UNL     1      -9.750   8.750  69.759  1.00  0.00    -0.172 OA 
BRANCH   7   8
HETATM    8  C   UNL     1      -9.729   8.356  71.058  1.00  0.00    -0.174 C  
HETATM    9  H   UNL     1     -10.235   6.523  70.276  1.00  0.00     0.000 HD 
HETATM   10  O   UNL     1      -9.498   9.083  72.014  1.00  0.00    -0.339 OA 
HETATM   11  N   UNL     1      -9.992   7.022  71.131  1.00  0.00    -0.184 N  
BRANCH  11  12
HETATM   12  C   UNL     1      -9.938   6.284  72.381  1.00  0.00    -0.172 C  
HETATM   13  C   UNL     1      -8.829   5.241  72.349  1.00  0.00    -0.130 C  
HETATM   14  C   UNL     1     -11.287   5.630  72.681  1.00  0.00    -0.356 C  
ENDBRANCH  11  12
ENDBRANCH   7   8
ENDBRANCH   6   7
ENDBRANCH   4   6
BRANCH   4  15
HETATM   15  C   UNL     1      -9.875  11.663  67.472  1.00  0.00    -0.188 C  
BRANCH  15  16
HETATM   16  O   UNL     1      -9.095  11.072  66.418  1.00  0.00    -0.167 OA 
BRANCH  16  17
HETATM   17  C   UNL     1      -7.753  11.092  66.577  1.00  0.00    -0.154 C  
HETATM   18  O   UNL     1      -7.065  12.051  66.886  1.00  0.00    -0.121 OA 
HETATM   19  H1  UNL     1      -6.229   9.884  66.428  1.00  0.00     0.000 HD 
HETATM   20  N   UNL     1      -7.241   9.869  66.308  1.00  0.00    -0.098 N  
HETATM   21  H2  UNL     1      -7.787   9.054  66.028  1.00  0.00     0.000 HD 
ENDBRANCH  16  17
ENDBRANCH  15  16
ENDBRANCH   4  15
ENDBRANCH   3   4
ENDBRANCH   2   3
TORSDOF 9
ENDMDL
MODEL      203
REMARK 921   NORMALIZED FREE ENERGY PREDICTED BY IDOCK:   -2.65 KCAL/MOL
REMARK 922        TOTAL FREE ENERGY PREDICTED BY IDOCK:   -5.00 KCAL/MOL
REMARK 923 INTER-LIGAND FREE ENERGY PREDICTED BY IDOCK:   -4.40 KCAL/MOL
REMARK 924 INTRA-LIGAND FREE ENERGY PREDICTED BY IDOCK:   -0.60 KCAL/MOL
REMARK 927      BINDING AFFINITY PREDICTED BY RF-SCORE:    0.00 PKD
ROOT
HETATM    1  C   UNL     1      -6.356  12.748  67.813  1.00  0.00    -0.137 C  
HETATM    2  C   UNL     1      -7.763  13.148  67.392  1.00  0.00    -0.151 C  
ENDROOT
BRANCH   2   3
HETATM    3  C   UNL     1      -8.812  12.702  68.419  1.00  0.00    -0.119 C  
BRANCH   3   4
HETATM    4  C   UNL     1     -10.290  12.684  67.915  1.00  0.00    -0.221 C  
HETATM    5  C   UNL     1     -10.359  13.126  66.440  1.00  0.00    -0.289 C  
BRANCH   4   6
HETATM    6  C   UNL     1     -11.095  13.696  68.781  1.00  0.00    -0.270 C  
BRANCH   6   7
HETATM    7  O   UNL     1     -10.260  14.796  69.191  1.00  0.00    -0.233 OA 
BRANCH   7   8
HETATM    8  C   UNL     1     -10.462  15.981  68.559  1.00  0.00    -0.258 C  
HETATM    9  H   UNL     1      -8.629  16.462  69.356  1.00  0.00     0.000 HD 
HETATM   10  O   UNL     1     -11.457  16.277  67.913  1.00  0.00    -0.218 OA 
HETATM   11  N   UNL     1      -9.379  16.784  68.744  1.00  0.00    -0.251 N  
BRANCH  11  12
HETATM   12  C   UNL     1      -9.251  18.082  68.104  1.00  0.00    -0.279 C  
HETATM   13  C   UNL     1      -7.786  18.454  67.918  1.00  0.00    -0.267 C  
HETATM   14  C   UNL     1      -9.983  19.156  68.908  1.00  0.00    -0.481 C  
ENDBRANCH  11  12
ENDBRANCH   7   8
ENDBRANCH   6   7
ENDBRANCH   4   6
BRANCH   4  15
HETATM   15  C   UNL     1     -10.924  11.275  68.040  1.00  0.00    -0.247 C  
BRANCH  15  16
HETATM   16  O   UNL     1     -10.201  10.492  69.007  1.00  0.00    -0.194 OA 
BRANCH  16  17
HETATM   17  C   UNL     1     -10.926   9.609  69.730  1.00  0.00    -0.240 C  
HETATM   18  O   UNL     1     -10.835   8.393  69.707  1.00  0.00    -0.238 OA 
HETATM   19  H1  UNL     1     -12.371   9.605  71.039  1.00  0.00     0.000 HD 
HETATM   20  N   UNL     1     -11.825  10.271  70.494  1.00  0.00    -0.304 N  
HETATM   21  H2  UNL     1     -11.939  11.284  70.520  1.00  0.00     0.000 HD 
ENDBRANCH  16  17
ENDBRANCH  15  16
ENDBRANCH   4  15
ENDBRANCH   3   4
ENDBRANCH   2   3
TORSDOF 9
ENDMDL
MODEL      204
REMARK 921   NORMALIZED FREE ENERGY PREDICTED BY IDOCK:   -2.65 KCAL/MOL
REMARK 922        TOTAL FREE ENERGY PREDICTED BY IDOCK:   -4.99 KCAL/MOL
REMARK 923 INTER-LIGAND FREE ENERGY PREDICTED BY IDOCK:   -4.41 KCAL/MOL
REMARK 924 INTRA-LIGAND FREE ENERGY PREDICTED BY IDOCK:   -0.58 KCAL/MOL
REMARK 927      BINDING AFFINITY PREDICTED BY RF-SCORE:    0.00 PKD
ROOT
HETATM    1  C   UNL     1     -10.283   4.211  65.245  1.00  0.00    -0.204 C  
HETATM    2  C   UNL     1      -9.943   4.608  66.676  1.00  0.00    -0.260 C  
ENDROOT
BRANCH   2   3
HETATM    3  C   UNL     1      -9.340   6.017  66.745  1.00  0.00    -0.148 C  
BRANCH   3   4
HETATM    4  C   UNL     1     -10.031   7.002  67.740  1.00  0.00    -0.186 C  
HETATM    5  C   UNL     1     -11.169   6.289  68.498  1.00  0.00    -0.305 C  
BRANCH   4   6
HETATM    6  C   UNL     1     -10.637   8.167  66.905  1.00  0.00    -0.241 C  
BRANCH   6   7
HETATM    7  O   UNL     1      -9.632   8.777  66.073  1.00  0.00    -0.245 OA 
BRANCH   7   8
HETATM    8  C   UNL     1      -9.568  10.133  66.091  1.00  0.00    -0.203 C  
HETATM    9  H   UNL     1     -10.981   9.997  64.604  1.00  0.00     0.000 HD 
HETATM   10  O   UNL     1      -8.831  10.796  66.808  1.00  0.00    -0.138 OA 
HETATM   11  N   UNL     1     -10.461  10.642  65.198  1.00  0.00    -0.250 N  
BRANCH  11  12
HETATM   12  C   UNL     1     -10.700  12.068  65.061  1.00  0.00    -0.296 C  
HETATM   13  C   UNL     1     -11.702  12.554  66.100  1.00  0.00    -0.466 C  
HETATM   14  C   UNL     1     -11.182  12.402  63.649  1.00  0.00    -0.544 C  
ENDBRANCH  11  12
ENDBRANCH   7   8
ENDBRANCH   6   7
ENDBRANCH   4   6
BRANCH   4  15
HETATM   15  C   UNL     1      -9.028   7.573  68.775  1.00  0.00    -0.129 C  
BRANCH  15  16
HETATM   16  O   UNL     1      -9.733   8.302  69.795  1.00  0.00    -0.177 OA 
BRANCH  16  17
HETATM   17  C   UNL     1      -9.451   7.973  71.076  1.00  0.00    -0.157 C  
HETATM   18  O   UNL     1      -8.928   6.944  71.470  1.00  0.00    -0.140 OA 
HETATM   19  H1  UNL     1      -9.652   8.711  72.870  1.00  0.00     0.000 HD 
HETATM   20  N   UNL     1      -9.866   8.959  71.904  1.00  0.00    -0.323 N  
HETATM   21  H2  UNL     1     -10.323   9.820  71.606  1.00  0.00     0.000 HD 
ENDBRANCH  16  17
ENDBRANCH  15  16
ENDBRANCH   4  15
ENDBRANCH   3   4
ENDBRANCH   2   3
TORSDOF 9
ENDMDL
MODEL      205
REMARK 921   NORMALIZED FREE ENERGY PREDICTED BY IDOCK:   -2.64 KCAL/MOL
REMARK 922        TOTAL FREE ENERGY PREDICTED BY IDOCK:   -4.98 KCAL/MOL
REMARK 923 INTER-LIGAND FREE ENERGY PREDICTED BY IDOCK:   -5.02 KCAL/MOL
REMARK 924 INTRA-LIGAND FREE ENERGY PREDICTED BY IDOCK:    0.04 KCAL/MOL
REMARK 927      BINDING AFFINITY PREDICTED BY RF-SCORE:    0.00 PKD
ROOT
HETATM    1  C   UNL     1      -9.967  19.762  67.995  1.00  0.00    -0.553 C  
HETATM    2  C   UNL     1     -10.538  18.498  67.365  1.00  0.00    -0.463 C  
ENDROOT
BRANCH   2   3
HETATM    3  C   UNL     1     -10.372  17.281  68.285  1.00  0.00    -0.361 C  
BRANCH   3   4
HETATM    4  C   UNL     1      -9.644  16.051  67.657  1.00  0.00    -0.218 C  
HETATM    5  C   UNL     1      -8.867  16.474  66.395  1.00  0.00    -0.345 C  
BRANCH   4   6
HETATM    6  C   UNL     1     -10.732  15.014  67.254  1.00  0.00    -0.298 C  
BRANCH   6   7
HETATM    7  O   UNL     1     -10.127  13.786  66.806  1.00  0.00    -0.255 OA 
BRANCH   7   8
HETATM    8  C   UNL     1     -10.714  12.633  67.218  1.00  0.00    -0.237 C  
HETATM    9  H   UNL     1      -9.092  12.521  68.477  1.00  0.00     0.000 HD 
HETATM   10  O   UNL     1     -11.751  12.167  66.767  1.00  0.00    -0.488 OA 
HETATM   11  N   UNL     1      -9.977  12.083  68.221  1.00  0.00    -0.200 N  
BRANCH  11  12
HETATM   12  C   UNL     1     -10.402  10.894  68.941  1.00  0.00    -0.204 C  
HETATM   13  C   UNL     1     -11.014   9.874  67.990  1.00  0.00    -0.269 C  
HETATM   14  C   UNL     1     -11.388  11.258  70.050  1.00  0.00    -0.292 C  
ENDBRANCH  11  12
ENDBRANCH   7   8
ENDBRANCH   6   7
ENDBRANCH   4   6
BRANCH   4  15
HETATM   15  C   UNL     1      -8.651  15.400  68.654  1.00  0.00    -0.179 C  
BRANCH  15  16
HETATM   16  O   UNL     1      -7.357  15.260  68.042  1.00  0.00    -0.108 OA 
BRANCH  16  17
HETATM   17  C   UNL     1      -6.568  14.273  68.520  1.00  0.00    -0.095 C  
HETATM   18  O   UNL     1      -5.741  13.628  67.897  1.00  0.00    -0.118 OA 
HETATM   19  H1  UNL     1      -6.247  13.313  70.188  1.00  0.00     0.000 HD 
HETATM   20  N   UNL     1      -6.843  14.058  69.827  1.00  0.00    -0.333 N  
HETATM   21  H2  UNL     1      -7.542  14.566  70.370  1.00  0.00     0.000 HD 
ENDBRANCH  16  17
ENDBRANCH  15  16
ENDBRANCH   4  15
ENDBRANCH   3   4
ENDBRANCH   2   3
TORSDOF 9
ENDMDL
MODEL      206
REMARK 921   NORMALIZED FREE ENERGY PREDICTED BY IDOCK:   -2.64 KCAL/MOL
REMARK 922        TOTAL FREE ENERGY PREDICTED BY IDOCK:   -4.97 KCAL/MOL
REMARK 923 INTER-LIGAND FREE ENERGY PREDICTED BY IDOCK:   -4.10 KCAL/MOL
REMARK 924 INTRA-LIGAND FREE ENERGY PREDICTED BY IDOCK:   -0.87 KCAL/MOL
REMARK 927      BINDING AFFINITY PREDICTED BY RF-SCORE:    0.00 PKD
ROOT
HETATM    1  C   UNL     1      -6.205  18.062  66.082  1.00  0.00    -0.262 C  
HETATM    2  C   UNL     1      -7.623  18.612  65.994  1.00  0.00    -0.236 C  
ENDROOT
BRANCH   2   3
HETATM    3  C   UNL     1      -8.354  18.514  67.340  1.00  0.00    -0.264 C  
BRANCH   3   4
HETATM    4  C   UNL     1      -9.657  17.655  67.343  1.00  0.00    -0.267 C  
HETATM    5  C   UNL     1     -10.899  18.565  67.266  1.00  0.00    -0.330 C  
BRANCH   4   6
HETATM    6  C   UNL     1      -9.697  16.862  68.681  1.00  0.00    -0.267 C  
BRANCH   6   7
HETATM    7  O   UNL     1      -9.212  15.519  68.495  1.00  0.00    -0.185 OA 
BRANCH   7   8
HETATM    8  C   UNL     1      -7.951  15.262  68.929  1.00  0.00    -0.176 C  
HETATM    9  H   UNL     1      -8.198  13.497  67.903  1.00  0.00     0.000 HD 
HETATM   10  O   UNL     1      -7.285  15.999  69.642  1.00  0.00    -0.193 OA 
HETATM   11  N   UNL     1      -7.537  14.063  68.436  1.00  0.00    -0.120 N  
BRANCH  11  12
HETATM   12  C   UNL     1      -6.190  13.558  68.641  1.00  0.00    -0.088 C  
HETATM   13  C   UNL     1      -5.760  12.671  67.480  1.00  0.00    -0.131 C  
HETATM   14  C   UNL     1      -6.092  12.801  69.965  1.00  0.00    -0.112 C  
ENDBRANCH  11  12
ENDBRANCH   7   8
ENDBRANCH   6   7
ENDBRANCH   4   6
BRANCH   4  15
HETATM   15  C   UNL     1      -9.695  16.663  66.152  1.00  0.00    -0.303 C  
BRANCH  15  16
HETATM   16  O   UNL     1     -11.057  16.332  65.828  1.00  0.00    -0.116 OA 
BRANCH  16  17
HETATM   17  C   UNL     1     -11.374  15.018  65.826  1.00  0.00    -0.279 C  
HETATM   18  O   UNL     1     -11.156  14.213  64.936  1.00  0.00    -0.347 OA 
HETATM   19  H1  UNL     1     -12.258  13.709  66.970  1.00  0.00     0.000 HD 
HETATM   20  N   UNL     1     -12.019  14.701  66.972  1.00  0.00    -0.426 N  
HETATM   21  H2  UNL     1     -12.234  15.355  67.724  1.00  0.00     0.000 HD 
ENDBRANCH  16  17
ENDBRANCH  15  16
ENDBRANCH   4  15
ENDBRANCH   3   4
ENDBRANCH   2   3
TORSDOF 9
ENDMDL
MODEL      207
REMARK 921   NORMALIZED FREE ENERGY PREDICTED BY IDOCK:   -2.63 KCAL/MOL
REMARK 922        TOTAL FREE ENERGY PREDICTED BY IDOCK:   -4.96 KCAL/MOL
REMARK 923 INTER-LIGAND FREE ENERGY PREDICTED BY IDOCK:   -4.45 KCAL/MOL
REMARK 924 INTRA-LIGAND FREE ENERGY PREDICTED BY IDOCK:   -0.51 KCAL/MOL
REMARK 927      BINDING AFFINITY PREDICTED BY RF-SCORE:    0.00 PKD
ROOT
HETATM    1  C   UNL     1      -9.440   3.395  64.531  1.00  0.00    -0.149 C  
HETATM    2  C   UNL     1     -10.004   4.591  65.286  1.00  0.00    -0.178 C  
ENDROOT
BRANCH   2   3
HETATM    3  C   UNL     1      -8.893   5.434  65.925  1.00  0.00    -0.148 C  
BRANCH   3   4
HETATM    4  C   UNL     1      -9.314   6.282  67.167  1.00  0.00    -0.130 C  
HETATM    5  C   UNL     1      -8.078   6.631  68.022  1.00  0.00    -0.110 C  
BRANCH   4   6
HETATM    6  C   UNL     1     -10.287   5.419  68.020  1.00  0.00    -0.152 C  
BRANCH   6   7
HETATM    7  O   UNL     1     -11.223   6.253  68.730  1.00  0.00    -0.363 OA 
BRANCH   7   8
HETATM    8  C   UNL     1     -11.140   6.243  70.085  1.00  0.00    -0.377 C  
HETATM    9  H   UNL     1     -12.025   8.093  69.928  1.00  0.00     0.000 HD 
HETATM   10  O   UNL     1     -10.648   5.348  70.756  1.00  0.00    -0.256 OA 
HETATM   11  N   UNL     1     -11.701   7.379  70.582  1.00  0.00    -0.274 N  
BRANCH  11  12
HETATM   12  C   UNL     1     -11.857   7.614  72.007  1.00  0.00    -0.301 C  
HETATM   13  C   UNL     1     -12.954   8.636  72.273  1.00  0.00    -0.430 C  
HETATM   14  C   UNL     1     -10.535   8.065  72.628  1.00  0.00    -0.408 C  
ENDBRANCH  11  12
ENDBRANCH   7   8
ENDBRANCH   6   7
ENDBRANCH   4   6
BRANCH   4  15
HETATM   15  C   UNL     1     -10.017   7.600  66.752  1.00  0.00    -0.247 C  
BRANCH  15  16
HETATM   16  O   UNL     1      -9.056   8.667  66.668  1.00  0.00    -0.148 OA 
BRANCH  16  17
HETATM   17  C   UNL     1      -9.519   9.863  66.239  1.00  0.00    -0.193 C  
HETATM   18  O   UNL     1      -9.725  10.855  66.917  1.00  0.00    -0.176 OA 
HETATM   19  H1  UNL     1     -10.116  10.710  64.587  1.00  0.00     0.000 HD 
HETATM   20  N   UNL     1      -9.767   9.808  64.910  1.00  0.00    -0.415 N  
HETATM   21  H2  UNL     1      -9.625   8.988  64.321  1.00  0.00     0.000 HD 
ENDBRANCH  16  17
ENDBRANCH  15  16
ENDBRANCH   4  15
ENDBRANCH   3   4
ENDBRANCH   2   3
TORSDOF 9
ENDMDL
MODEL      208
REMARK 921   NORMALIZED FREE ENERGY PREDICTED BY IDOCK:   -2.61 KCAL/MOL
REMARK 922        TOTAL FREE ENERGY PREDICTED BY IDOCK:   -4.94 KCAL/MOL
REMARK 923 INTER-LIGAND FREE ENERGY PREDICTED BY IDOCK:   -4.36 KCAL/MOL
REMARK 924 INTRA-LIGAND FREE ENERGY PREDICTED BY IDOCK:   -0.58 KCAL/MOL
REMARK 927      BINDING AFFINITY PREDICTED BY RF-SCORE:    0.00 PKD
ROOT
HETATM    1  C   UNL     1      -9.158   6.696  71.223  1.00  0.00    -0.151 C  
HETATM    2  C   UNL     1      -8.819   6.943  69.759  1.00  0.00    -0.141 C  
ENDROOT
BRANCH   2   3
HETATM    3  C   UNL     1      -8.099   8.283  69.562  1.00  0.00    -0.114 C  
BRANCH   3   4
HETATM    4  C   UNL     1      -8.297   8.961  68.170  1.00  0.00    -0.125 C  
HETATM    5  C   UNL     1      -7.407  10.215  68.052  1.00  0.00    -0.086 C  
BRANCH   4   6
HETATM    6  C   UNL     1      -9.789   9.392  68.063  1.00  0.00    -0.164 C  
BRANCH   6   7
HETATM    7  O   UNL     1     -10.147  10.268  69.149  1.00  0.00    -0.195 OA 
BRANCH   7   8
HETATM    8  C   UNL     1     -11.474  10.481  69.347  1.00  0.00    -0.262 C  
HETATM    9  H   UNL     1     -11.111   9.619  71.178  1.00  0.00     0.000 HD 
HETATM   10  O   UNL     1     -12.239  10.972  68.530  1.00  0.00    -0.582 OA 
HETATM   11  N   UNL     1     -11.817  10.076  70.600  1.00  0.00    -0.304 N  
BRANCH  11  12
HETATM   12  C   UNL     1     -13.149  10.270  71.145  1.00  0.00    -0.390 C  
HETATM   13  C   UNL     1     -13.279  11.645  71.787  1.00  0.00    -0.438 C  
HETATM   14  C   UNL     1     -13.487   9.170  72.151  1.00  0.00    -0.530 C  
ENDBRANCH  11  12
ENDBRANCH   7   8
ENDBRANCH   6   7
ENDBRANCH   4   6
BRANCH   4  15
HETATM   15  C   UNL     1      -7.951   7.998  67.005  1.00  0.00    -0.108 C  
BRANCH  15  16
HETATM   16  O   UNL     1      -9.158   7.476  66.421  1.00  0.00    -0.162 OA 
BRANCH  16  17
HETATM   17  C   UNL     1      -9.151   6.164  66.097  1.00  0.00    -0.145 C  
HETATM   18  O   UNL     1      -9.286   5.220  66.858  1.00  0.00    -0.118 OA 
HETATM   19  H1  UNL     1      -8.933   5.031  64.525  1.00  0.00     0.000 HD 
HETATM   20  N   UNL     1      -8.938   6.021  64.769  1.00  0.00    -0.344 N  
HETATM   21  H2  UNL     1      -8.802   6.788  64.111  1.00  0.00     0.000 HD 
ENDBRANCH  16  17
ENDBRANCH  15  16
ENDBRANCH   4  15
ENDBRANCH   3   4
ENDBRANCH   2   3
TORSDOF 9
ENDMDL
MODEL      209
REMARK 921   NORMALIZED FREE ENERGY PREDICTED BY IDOCK:   -2.60 KCAL/MOL
REMARK 922        TOTAL FREE ENERGY PREDICTED BY IDOCK:   -4.91 KCAL/MOL
REMARK 923 INTER-LIGAND FREE ENERGY PREDICTED BY IDOCK:   -4.12 KCAL/MOL
REMARK 924 INTRA-LIGAND FREE ENERGY PREDICTED BY IDOCK:   -0.79 KCAL/MOL
REMARK 927      BINDING AFFINITY PREDICTED BY RF-SCORE:    0.00 PKD
ROOT
HETATM    1  C   UNL     1     -10.129  12.752  66.879  1.00  0.00    -0.234 C  
HETATM    2  C   UNL     1     -11.172  11.673  67.136  1.00  0.00    -0.371 C  
ENDROOT
BRANCH   2   3
HETATM    3  C   UNL     1     -11.096  11.140  68.573  1.00  0.00    -0.298 C  
BRANCH   3   4
HETATM    4  C   UNL     1     -10.312   9.803  68.761  1.00  0.00    -0.227 C  
HETATM    5  C   UNL     1      -8.813  10.086  68.982  1.00  0.00    -0.159 C  
BRANCH   4   6
HETATM    6  C   UNL     1     -10.479   8.972  67.456  1.00  0.00    -0.272 C  
BRANCH   6   7
HETATM    7  O   UNL     1      -9.297   8.194  67.190  1.00  0.00    -0.135 OA 
BRANCH   7   8
HETATM    8  C   UNL     1      -8.907   8.104  65.892  1.00  0.00    -0.158 C  
HETATM    9  H   UNL     1      -9.600  10.037  65.784  1.00  0.00     0.000 HD 
HETATM   10  O   UNL     1      -8.421   7.112  65.368  1.00  0.00    -0.137 OA 
HETATM   11  N   UNL     1      -9.129   9.294  65.269  1.00  0.00    -0.217 N  
BRANCH  11  12
HETATM   12  C   UNL     1      -8.720   9.543  63.897  1.00  0.00    -0.216 C  
HETATM   13  C   UNL     1      -7.267   9.998  63.838  1.00  0.00    -0.125 C  
HETATM   14  C   UNL     1      -9.636  10.574  63.239  1.00  0.00    -0.373 C  
ENDBRANCH  11  12
ENDBRANCH   7   8
ENDBRANCH   6   7
ENDBRANCH   4   6
BRANCH   4  15
HETATM   15  C   UNL     1     -10.845   8.988  69.967  1.00  0.00    -0.231 C  
BRANCH  15  16
HETATM   16  O   UNL     1      -9.769   8.682  70.870  1.00  0.00    -0.179 OA 
BRANCH  16  17
HETATM   17  C   UNL     1     -10.116   8.387  72.143  1.00  0.00    -0.306 C  
HETATM   18  O   UNL     1      -9.430   7.820  72.978  1.00  0.00    -0.199 OA 
HETATM   19  H1  UNL     1     -11.648   8.566  73.337  1.00  0.00     0.000 HD 
HETATM   20  N   UNL     1     -11.386   8.789  72.377  1.00  0.00    -0.288 N  
HETATM   21  H2  UNL     1     -11.991   9.246  71.695  1.00  0.00     0.000 HD 
ENDBRANCH  16  17
ENDBRANCH  15  16
ENDBRANCH   4  15
ENDBRANCH   3   4
ENDBRANCH   2   3
TORSDOF 9
ENDMDL
MODEL      210
REMARK 921   NORMALIZED FREE ENERGY PREDICTED BY IDOCK:   -2.60 KCAL/MOL
REMARK 922        TOTAL FREE ENERGY PREDICTED BY IDOCK:   -4.91 KCAL/MOL
REMARK 923 INTER-LIGAND FREE ENERGY PREDICTED BY IDOCK:   -4.22 KCAL/MOL
REMARK 924 INTRA-LIGAND FREE ENERGY PREDICTED BY IDOCK:   -0.70 KCAL/MOL
REMARK 927      BINDING AFFINITY PREDICTED BY RF-SCORE:    0.00 PKD
ROOT
HETATM    1  C   UNL     1     -10.568   7.332  67.611  1.00  0.00    -0.316 C  
HETATM    2  C   UNL     1      -9.546   7.456  68.734  1.00  0.00    -0.147 C  
ENDROOT
BRANCH   2   3
HETATM    3  C   UNL     1      -9.210   6.091  69.349  1.00  0.00    -0.140 C  
BRANCH   3   4
HETATM    4  C   UNL     1      -8.491   6.130  70.734  1.00  0.00    -0.131 C  
HETATM    5  C   UNL     1      -7.169   5.338  70.675  1.00  0.00    -0.068 C  
BRANCH   4   6
HETATM    6  C   UNL     1      -9.433   5.458  71.774  1.00  0.00    -0.147 C  
BRANCH   6   7
HETATM    7  O   UNL     1     -10.773   5.974  71.660  1.00  0.00    -0.234 OA 
BRANCH   7   8
HETATM    8  C   UNL     1     -11.047   7.111  72.351  1.00  0.00    -0.266 C  
HETATM    9  H   UNL     1     -11.940   7.697  70.593  1.00  0.00     0.000 HD 
HETATM   10  O   UNL     1     -10.710   7.335  73.505  1.00  0.00    -0.382 OA 
HETATM   11  N   UNL     1     -11.768   7.956  71.565  1.00  0.00    -0.274 N  
BRANCH  11  12
HETATM   12  C   UNL     1     -12.301   9.215  72.057  1.00  0.00    -0.377 C  
HETATM   13  C   UNL     1     -13.779   9.082  72.398  1.00  0.00    -0.539 C  
HETATM   14  C   UNL     1     -12.080  10.332  71.037  1.00  0.00    -0.487 C  
ENDBRANCH  11  12
ENDBRANCH   7   8
ENDBRANCH   6   7
ENDBRANCH   4   6
BRANCH   4  15
HETATM   15  C   UNL     1      -8.178   7.581  71.180  1.00  0.00    -0.101 C  
BRANCH  15  16
HETATM   16  O   UNL     1      -6.921   7.624  71.877  1.00  0.00    -0.060 OA 
BRANCH  16  17
HETATM   17  C   UNL     1      -6.874   8.389  72.991  1.00  0.00    -0.078 C  
HETATM   18  O   UNL     1      -5.976   9.143  73.325  1.00  0.00    -0.270 OA 
HETATM   19  H1  UNL     1      -7.949   8.759  74.575  1.00  0.00     0.000 HD 
HETATM   20  N   UNL     1      -7.984   8.182  73.735  1.00  0.00    -0.200 N  
HETATM   21  H2  UNL     1      -8.742   7.543  73.493  1.00  0.00     0.000 HD 
ENDBRANCH  16  17
ENDBRANCH  15  16
ENDBRANCH   4  15
ENDBRANCH   3   4
ENDBRANCH   2   3
TORSDOF 9
ENDMDL
MODEL      211
REMARK 921   NORMALIZED FREE ENERGY PREDICTED BY IDOCK:   -2.59 KCAL/MOL
REMARK 922        TOTAL FREE ENERGY PREDICTED BY IDOCK:   -4.90 KCAL/MOL
REMARK 923 INTER-LIGAND FREE ENERGY PREDICTED BY IDOCK:   -4.20 KCAL/MOL
REMARK 924 INTRA-LIGAND FREE ENERGY PREDICTED BY IDOCK:   -0.70 KCAL/MOL
REMARK 927      BINDING AFFINITY PREDICTED BY RF-SCORE:    0.00 PKD
ROOT
HETATM    1  C   UNL     1     -12.760  10.506  70.661  1.00  0.00    -0.441 C  
HETATM    2  C   UNL     1     -11.304  10.579  70.221  1.00  0.00    -0.407 C  
ENDROOT
BRANCH   2   3
HETATM    3  C   UNL     1     -11.118  11.525  69.027  1.00  0.00    -0.302 C  
BRANCH   3   4
HETATM    4  C   UNL     1      -9.813  11.319  68.195  1.00  0.00    -0.190 C  
HETATM    5  C   UNL     1     -10.157  10.875  66.759  1.00  0.00    -0.259 C  
BRANCH   4   6
HETATM    6  C   UNL     1      -8.987  10.195  68.884  1.00  0.00    -0.155 C  
BRANCH   6   7
HETATM    7  O   UNL     1      -8.387   9.327  67.904  1.00  0.00    -0.115 OA 
BRANCH   7   8
HETATM    8  C   UNL     1      -8.532   7.992  68.104  1.00  0.00    -0.123 C  
HETATM    9  H   UNL     1     -10.505   8.480  68.416  1.00  0.00     0.000 HD 
HETATM   10  O   UNL     1      -7.628   7.169  68.064  1.00  0.00    -0.106 OA 
HETATM   11  N   UNL     1      -9.842   7.708  68.341  1.00  0.00    -0.162 N  
BRANCH  11  12
HETATM   12  C   UNL     1     -10.331   6.348  68.492  1.00  0.00    -0.197 C  
HETATM   13  C   UNL     1     -10.753   5.771  67.147  1.00  0.00    -0.358 C  
HETATM   14  C   UNL     1     -11.487   6.297  69.490  1.00  0.00    -0.387 C  
ENDBRANCH  11  12
ENDBRANCH   7   8
ENDBRANCH   6   7
ENDBRANCH   4   6
BRANCH   4  15
HETATM   15  C   UNL     1      -8.966  12.615  68.123  1.00  0.00    -0.199 C  
BRANCH  15  16
HETATM   16  O   UNL     1      -7.791  12.393  67.324  1.00  0.00    -0.163 OA 
BRANCH  16  17
HETATM   17  C   UNL     1      -6.633  12.903  67.800  1.00  0.00    -0.140 C  
HETATM   18  O   UNL     1      -5.602  13.088  67.175  1.00  0.00    -0.349 OA 
HETATM   19  H1  UNL     1      -5.883  13.549  69.480  1.00  0.00     0.000 HD 
HETATM   20  N   UNL     1      -6.757  13.165  69.121  1.00  0.00    -0.145 N  
HETATM   21  H2  UNL     1      -7.598  13.002  69.675  1.00  0.00     0.000 HD 
ENDBRANCH  16  17
ENDBRANCH  15  16
ENDBRANCH   4  15
ENDBRANCH   3   4
ENDBRANCH   2   3
TORSDOF 9
ENDMDL
MODEL      212
REMARK 921   NORMALIZED FREE ENERGY PREDICTED BY IDOCK:   -2.59 KCAL/MOL
REMARK 922        TOTAL FREE ENERGY PREDICTED BY IDOCK:   -4.89 KCAL/MOL
REMARK 923 INTER-LIGAND FREE ENERGY PREDICTED BY IDOCK:   -4.76 KCAL/MOL
REMARK 924 INTRA-LIGAND FREE ENERGY PREDICTED BY IDOCK:   -0.14 KCAL/MOL
REMARK 927      BINDING AFFINITY PREDICTED BY RF-SCORE:    0.00 PKD
ROOT
HETATM    1  C   UNL     1     -12.196  13.725  64.024  1.00  0.00    -0.429 C  
HETATM    2  C   UNL     1     -12.701  13.867  65.454  1.00  0.00    -0.525 C  
ENDROOT
BRANCH   2   3
HETATM    3  C   UNL     1     -11.974  12.911  66.410  1.00  0.00    -0.462 C  
BRANCH   3   4
HETATM    4  C   UNL     1     -11.038  13.586  67.461  1.00  0.00    -0.293 C  
HETATM    5  C   UNL     1     -11.357  15.090  67.576  1.00  0.00    -0.340 C  
BRANCH   4   6
HETATM    6  C   UNL     1      -9.573  13.420  66.965  1.00  0.00    -0.244 C  
BRANCH   6   7
HETATM    7  O   UNL     1      -8.743  12.858  67.999  1.00  0.00    -0.174 OA 
BRANCH   7   8
HETATM    8  C   UNL     1      -7.610  12.227  67.595  1.00  0.00    -0.144 C  
HETATM    9  H   UNL     1      -8.671  10.521  68.034  1.00  0.00     0.000 HD 
HETATM   10  O   UNL     1      -6.585  12.783  67.227  1.00  0.00    -0.159 OA 
HETATM   11  N   UNL     1      -7.797  10.880  67.649  1.00  0.00    -0.111 N  
BRANCH  11  12
HETATM   12  C   UNL     1      -6.799   9.934  67.181  1.00  0.00    -0.083 C  
HETATM   13  C   UNL     1      -7.235   8.502  67.457  1.00  0.00    -0.084 C  
HETATM   14  C   UNL     1      -5.441  10.219  67.823  1.00  0.00    -0.041 C  
ENDBRANCH  11  12
ENDBRANCH   7   8
ENDBRANCH   6   7
ENDBRANCH   4   6
BRANCH   4  15
HETATM   15  C   UNL     1     -11.187  12.940  68.863  1.00  0.00    -0.279 C  
BRANCH  15  16
HETATM   16  O   UNL     1     -11.594  11.567  68.733  1.00  0.00    -0.260 OA 
BRANCH  16  17
HETATM   17  C   UNL     1     -11.776  10.881  69.884  1.00  0.00    -0.339 C  
HETATM   18  O   UNL     1     -12.153  11.330  70.953  1.00  0.00    -0.348 OA 
HETATM   19  H1  UNL     1     -11.582   9.065  70.568  1.00  0.00     0.000 HD 
HETATM   20  N   UNL     1     -11.444   9.582  69.700  1.00  0.00    -0.440 N  
HETATM   21  H2  UNL     1     -11.107   9.182  68.825  1.00  0.00     0.000 HD 
ENDBRANCH  16  17
ENDBRANCH  15  16
ENDBRANCH   4  15
ENDBRANCH   3   4
ENDBRANCH   2   3
TORSDOF 9
ENDMDL
MODEL      213
REMARK 921   NORMALIZED FREE ENERGY PREDICTED BY IDOCK:   -2.55 KCAL/MOL
REMARK 922        TOTAL FREE ENERGY PREDICTED BY IDOCK:   -4.84 KCAL/MOL
REMARK 923 INTER-LIGAND FREE ENERGY PREDICTED BY IDOCK:   -4.44 KCAL/MOL
REMARK 924 INTRA-LIGAND FREE ENERGY PREDICTED BY IDOCK:   -0.40 KCAL/MOL
REMARK 927      BINDING AFFINITY PREDICTED BY RF-SCORE:    0.00 PKD
ROOT
HETATM    1  C   UNL     1     -11.842  13.810  64.102  1.00  0.00    -0.439 C  
HETATM    2  C   UNL     1     -12.145  13.934  65.589  1.00  0.00    -0.442 C  
ENDROOT
BRANCH   2   3
HETATM    3  C   UNL     1     -12.048  12.579  66.303  1.00  0.00    -0.315 C  
BRANCH   3   4
HETATM    4  C   UNL     1     -10.793  12.378  67.209  1.00  0.00    -0.279 C  
HETATM    5  C   UNL     1     -11.148  12.647  68.685  1.00  0.00    -0.305 C  
BRANCH   4   6
HETATM    6  C   UNL     1      -9.715  13.405  66.757  1.00  0.00    -0.262 C  
BRANCH   6   7
HETATM    7  O   UNL     1      -8.704  13.566  67.770  1.00  0.00    -0.165 OA 
BRANCH   7   8
HETATM    8  C   UNL     1      -7.571  14.217  67.401  1.00  0.00    -0.158 C  
HETATM    9  H   UNL     1      -8.822  15.841  67.244  1.00  0.00     0.000 HD 
HETATM   10  O   UNL     1      -6.466  13.705  67.290  1.00  0.00    -0.279 OA 
HETATM   11  N   UNL     1      -7.852  15.531  67.186  1.00  0.00    -0.204 N  
BRANCH  11  12
HETATM   12  C   UNL     1      -6.823  16.509  66.877  1.00  0.00    -0.213 C  
HETATM   13  C   UNL     1      -6.317  17.184  68.145  1.00  0.00    -0.147 C  
HETATM   14  C   UNL     1      -7.344  17.547  65.883  1.00  0.00    -0.180 C  
ENDBRANCH  11  12
ENDBRANCH   7   8
ENDBRANCH   6   7
ENDBRANCH   4   6
BRANCH   4  15
HETATM   15  C   UNL     1     -10.222  10.942  67.091  1.00  0.00    -0.210 C  
BRANCH  15  16
HETATM   16  O   UNL     1     -10.883  10.069  68.024  1.00  0.00    -0.244 OA 
BRANCH  16  17
HETATM   17  C   UNL     1     -10.337   8.844  68.194  1.00  0.00    -0.212 C  
HETATM   18  O   UNL     1     -10.083   8.027  67.325  1.00  0.00    -0.190 OA 
HETATM   19  H1  UNL     1      -9.716   7.692  69.640  1.00  0.00     0.000 HD 
HETATM   20  N   UNL     1     -10.128   8.616  69.511  1.00  0.00    -0.197 N  
HETATM   21  H2  UNL     1     -10.349   9.270  70.262  1.00  0.00     0.000 HD 
ENDBRANCH  16  17
ENDBRANCH  15  16
ENDBRANCH   4  15
ENDBRANCH   3   4
ENDBRANCH   2   3
TORSDOF 9
ENDMDL
MODEL      214
REMARK 921   NORMALIZED FREE ENERGY PREDICTED BY IDOCK:   -2.54 KCAL/MOL
REMARK 922        TOTAL FREE ENERGY PREDICTED BY IDOCK:   -4.83 KCAL/MOL
REMARK 923 INTER-LIGAND FREE ENERGY PREDICTED BY IDOCK:   -4.11 KCAL/MOL
REMARK 924 INTRA-LIGAND FREE ENERGY PREDICTED BY IDOCK:   -0.72 KCAL/MOL
REMARK 927      BINDING AFFINITY PREDICTED BY RF-SCORE:    0.00 PKD
ROOT
HETATM    1  C   UNL     1      -9.197  11.369  68.437  1.00  0.00    -0.183 C  
HETATM    2  C   UNL     1     -10.443  10.512  68.619  1.00  0.00    -0.211 C  
ENDROOT
BRANCH   2   3
HETATM    3  C   UNL     1     -10.723  10.226  70.101  1.00  0.00    -0.334 C  
BRANCH   3   4
HETATM    4  C   UNL     1     -10.187   8.863  70.641  1.00  0.00    -0.267 C  
HETATM    5  C   UNL     1      -8.848   9.067  71.377  1.00  0.00    -0.220 C  
BRANCH   4   6
HETATM    6  C   UNL     1      -9.950   7.931  69.418  1.00  0.00    -0.189 C  
BRANCH   6   7
HETATM    7  O   UNL     1      -8.550   7.628  69.269  1.00  0.00    -0.134 OA 
BRANCH   7   8
HETATM    8  C   UNL     1      -8.229   6.664  68.368  1.00  0.00    -0.115 C  
HETATM    9  H   UNL     1     -10.091   5.925  68.832  1.00  0.00     0.000 HD 
HETATM   10  O   UNL     1      -7.169   6.586  67.764  1.00  0.00    -0.085 OA 
HETATM   11  N   UNL     1      -9.276   5.804  68.231  1.00  0.00    -0.117 N  
BRANCH  11  12
HETATM   12  C   UNL     1      -9.275   4.722  67.262  1.00  0.00    -0.128 C  
HETATM   13  C   UNL     1     -10.301   4.975  66.165  1.00  0.00    -0.309 C  
HETATM   14  C   UNL     1      -9.535   3.381  67.948  1.00  0.00    -0.220 C  
ENDBRANCH  11  12
ENDBRANCH   7   8
ENDBRANCH   6   7
ENDBRANCH   4   6
BRANCH   4  15
HETATM   15  C   UNL     1     -11.191   8.195  71.616  1.00  0.00    -0.261 C  
BRANCH  15  16
HETATM   16  O   UNL     1     -10.838   6.816  71.819  1.00  0.00    -0.223 OA 
BRANCH  16  17
HETATM   17  C   UNL     1     -11.756   6.045  72.445  1.00  0.00    -0.271 C  
HETATM   18  O   UNL     1     -11.542   5.057  73.127  1.00  0.00    -0.328 OA 
HETATM   19  H1  UNL     1     -13.692   5.927  72.654  1.00  0.00     0.000 HD 
HETATM   20  N   UNL     1     -12.999   6.509  72.182  1.00  0.00    -0.515 N  
HETATM   21  H2  UNL     1     -13.212   7.318  71.599  1.00  0.00     0.000 HD 
ENDBRANCH  16  17
ENDBRANCH  15  16
ENDBRANCH   4  15
ENDBRANCH   3   4
ENDBRANCH   2   3
TORSDOF 9
ENDMDL
MODEL      215
REMARK 921   NORMALIZED FREE ENERGY PREDICTED BY IDOCK:   -2.54 KCAL/MOL
REMARK 922        TOTAL FREE ENERGY PREDICTED BY IDOCK:   -4.82 KCAL/MOL
REMARK 923 INTER-LIGAND FREE ENERGY PREDICTED BY IDOCK:   -4.14 KCAL/MOL
REMARK 924 INTRA-LIGAND FREE ENERGY PREDICTED BY IDOCK:   -0.69 KCAL/MOL
REMARK 927      BINDING AFFINITY PREDICTED BY RF-SCORE:    0.00 PKD
ROOT
HETATM    1  C   UNL     1     -10.876   8.603  72.095  1.00  0.00    -0.424 C  
HETATM    2  C   UNL     1     -10.022   7.443  71.600  1.00  0.00    -0.193 C  
ENDROOT
BRANCH   2   3
HETATM    3  C   UNL     1      -9.315   7.782  70.280  1.00  0.00    -0.156 C  
BRANCH   3   4
HETATM    4  C   UNL     1     -10.028   7.287  68.983  1.00  0.00    -0.177 C  
HETATM    5  C   UNL     1     -11.183   6.330  69.337  1.00  0.00    -0.489 C  
BRANCH   4   6
HETATM    6  C   UNL     1      -8.978   6.515  68.133  1.00  0.00    -0.116 C  
BRANCH   6   7
HETATM    7  O   UNL     1      -9.273   6.629  66.728  1.00  0.00    -0.138 OA 
BRANCH   7   8
HETATM    8  C   UNL     1      -9.519   5.471  66.062  1.00  0.00    -0.130 C  
HETATM    9  H   UNL     1      -7.881   6.025  64.949  1.00  0.00     0.000 HD 
HETATM   10  O   UNL     1     -10.442   4.704  66.296  1.00  0.00    -0.284 OA 
HETATM   11  N   UNL     1      -8.571   5.289  65.102  1.00  0.00    -0.149 N  
BRANCH  11  12
HETATM   12  C   UNL     1      -8.505   4.087  64.289  1.00  0.00    -0.098 C  
HETATM   13  C   UNL     1      -7.065   3.767  63.909  1.00  0.00    -0.050 C  
HETATM   14  C   UNL     1      -9.375   4.231  63.040  1.00  0.00    -0.134 C  
ENDBRANCH  11  12
ENDBRANCH   7   8
ENDBRANCH   6   7
ENDBRANCH   4   6
BRANCH   4  15
HETATM   15  C   UNL     1     -10.599   8.467  68.155  1.00  0.00    -0.118 C  
BRANCH  15  16
HETATM   16  O   UNL     1     -10.171   9.719  68.718  1.00  0.00    -0.179 OA 
BRANCH  16  17
HETATM   17  C   UNL     1     -11.075  10.724  68.709  1.00  0.00    -0.259 C  
HETATM   18  O   UNL     1     -12.006  10.866  67.934  1.00  0.00    -0.585 OA 
HETATM   19  H1  UNL     1     -11.468  12.367  69.683  1.00  0.00     0.000 HD 
HETATM   20  N   UNL     1     -10.786  11.609  69.690  1.00  0.00    -0.458 N  
HETATM   21  H2  UNL     1     -10.004  11.529  70.340  1.00  0.00     0.000 HD 
ENDBRANCH  16  17
ENDBRANCH  15  16
ENDBRANCH   4  15
ENDBRANCH   3   4
ENDBRANCH   2   3
TORSDOF 9
ENDMDL
MODEL      216
REMARK 921   NORMALIZED FREE ENERGY PREDICTED BY IDOCK:   -2.54 KCAL/MOL
REMARK 922        TOTAL FREE ENERGY PREDICTED BY IDOCK:   -4.82 KCAL/MOL
REMARK 923 INTER-LIGAND FREE ENERGY PREDICTED BY IDOCK:   -4.92 KCAL/MOL
REMARK 924 INTRA-LIGAND FREE ENERGY PREDICTED BY IDOCK:    0.10 KCAL/MOL
REMARK 927      BINDING AFFINITY PREDICTED BY RF-SCORE:    0.00 PKD
ROOT
HETATM    1  C   UNL     1     -11.259  16.217  69.238  1.00  0.00    -0.337 C  
HETATM    2  C   UNL     1     -11.466  14.952  68.415  1.00  0.00    -0.338 C  
ENDROOT
BRANCH   2   3
HETATM    3  C   UNL     1     -10.611  13.789  68.936  1.00  0.00    -0.224 C  
BRANCH   3   4
HETATM    4  C   UNL     1     -11.242  12.368  68.795  1.00  0.00    -0.318 C  
HETATM    5  C   UNL     1     -10.203  11.284  69.148  1.00  0.00    -0.123 C  
BRANCH   4   6
HETATM    6  C   UNL     1     -11.672  12.188  67.311  1.00  0.00    -0.299 C  
BRANCH   6   7
HETATM    7  O   UNL     1     -10.692  12.755  66.421  1.00  0.00    -0.258 OA 
BRANCH   7   8
HETATM    8  C   UNL     1      -9.604  11.990  66.149  1.00  0.00    -0.239 C  
HETATM    9  H   UNL     1     -10.985  10.723  65.303  1.00  0.00     0.000 HD 
HETATM   10  O   UNL     1      -8.453  12.260  66.464  1.00  0.00    -0.115 OA 
HETATM   11  N   UNL     1      -9.989  10.882  65.457  1.00  0.00    -0.246 N  
BRANCH  11  12
HETATM   12  C   UNL     1      -9.036   9.920  64.931  1.00  0.00    -0.224 C  
HETATM   13  C   UNL     1      -9.173   9.790  63.420  1.00  0.00    -0.217 C  
HETATM   14  C   UNL     1      -9.211   8.561  65.609  1.00  0.00    -0.161 C  
ENDBRANCH  11  12
ENDBRANCH   7   8
ENDBRANCH   6   7
ENDBRANCH   4   6
BRANCH   4  15
HETATM   15  C   UNL     1     -12.474  12.191  69.719  1.00  0.00     0.115 C  
BRANCH  15  16
HETATM   16  O   UNL     1     -12.295  12.943  70.932  1.00  0.00    -0.370 OA 
BRANCH  16  17
HETATM   17  C   UNL     1     -13.240  12.784  71.885  1.00  0.00    -0.412 C  
HETATM   18  O   UNL     1     -13.811  13.665  72.506  1.00  0.00    -0.627 OA 
HETATM   19  H1  UNL     1     -14.174  11.346  72.815  1.00  0.00     0.000 HD 
HETATM   20  N   UNL     1     -13.461  11.466  72.096  1.00  0.00    -0.524 N  
HETATM   21  H2  UNL     1     -12.985  10.707  71.608  1.00  0.00     0.000 HD 
ENDBRANCH  16  17
ENDBRANCH  15  16
ENDBRANCH   4  15
ENDBRANCH   3   4
ENDBRANCH   2   3
TORSDOF 9
ENDMDL
MODEL      217
REMARK 921   NORMALIZED FREE ENERGY PREDICTED BY IDOCK:   -2.53 KCAL/MOL
REMARK 922        TOTAL FREE ENERGY PREDICTED BY IDOCK:   -4.81 KCAL/MOL
REMARK 923 INTER-LIGAND FREE ENERGY PREDICTED BY IDOCK:   -4.18 KCAL/MOL
REMARK 924 INTRA-LIGAND FREE ENERGY PREDICTED BY IDOCK:   -0.63 KCAL/MOL
REMARK 927      BINDING AFFINITY PREDICTED BY RF-SCORE:    0.00 PKD
ROOT
HETATM    1  C   UNL     1     -10.237   8.610  66.785  1.00  0.00    -0.361 C  
HETATM    2  C   UNL     1     -10.964   7.948  67.948  1.00  0.00     0.069 C  
ENDROOT
BRANCH   2   3
HETATM    3  C   UNL     1     -10.511   8.519  69.299  1.00  0.00    -0.224 C  
BRANCH   3   4
HETATM    4  C   UNL     1     -11.060   7.786  70.563  1.00  0.00    -0.265 C  
HETATM    5  C   UNL     1     -10.008   7.800  71.691  1.00  0.00    -0.213 C  
BRANCH   4   6
HETATM    6  C   UNL     1     -11.348   6.309  70.165  1.00  0.00    -0.406 C  
BRANCH   6   7
HETATM    7  O   UNL     1     -10.287   5.443  70.609  1.00  0.00    -0.236 OA 
BRANCH   7   8
HETATM    8  C   UNL     1      -9.692   4.674  69.661  1.00  0.00    -0.213 C  
HETATM    9  H   UNL     1      -8.812   6.445  69.098  1.00  0.00     0.000 HD 
HETATM   10  O   UNL     1      -9.879   3.476  69.503  1.00  0.00    -0.088 OA 
HETATM   11  N   UNL     1      -8.843   5.441  68.923  1.00  0.00    -0.100 N  
BRANCH  11  12
HETATM   12  C   UNL     1      -7.982   4.882  67.895  1.00  0.00    -0.093 C  
HETATM   13  C   UNL     1      -6.842   4.086  68.515  1.00  0.00    -0.047 C  
HETATM   14  C   UNL     1      -7.441   5.984  66.985  1.00  0.00    -0.084 C  
ENDBRANCH  11  12
ENDBRANCH   7   8
ENDBRANCH   6   7
ENDBRANCH   4   6
BRANCH   4  15
HETATM   15  C   UNL     1     -12.360   8.444  71.091  1.00  0.00    -0.200 C  
BRANCH  15  16
HETATM   16  O   UNL     1     -12.108   9.813  71.453  1.00  0.00    -0.345 OA 
BRANCH  16  17
HETATM   17  C   UNL     1     -13.148  10.498  71.980  1.00  0.00    -0.406 C  
HETATM   18  O   UNL     1     -13.239  11.708  72.109  1.00  0.00    -0.504 OA 
HETATM   19  H1  UNL     1     -14.888  10.152  72.789  1.00  0.00     0.000 HD 
HETATM   20  N   UNL     1     -14.104   9.635  72.392  1.00  0.00    -0.464 N  
HETATM   21  H2  UNL     1     -14.048   8.619  72.317  1.00  0.00     0.000 HD 
ENDBRANCH  16  17
ENDBRANCH  15  16
ENDBRANCH   4  15
ENDBRANCH   3   4
ENDBRANCH   2   3
TORSDOF 9
ENDMDL
MODEL      218
REMARK 921   NORMALIZED FREE ENERGY PREDICTED BY IDOCK:   -2.51 KCAL/MOL
REMARK 922        TOTAL FREE ENERGY PREDICTED BY IDOCK:   -4.78 KCAL/MOL
REMARK 923 INTER-LIGAND FREE ENERGY PREDICTED BY IDOCK:   -4.85 KCAL/MOL
REMARK 924 INTRA-LIGAND FREE ENERGY PREDICTED BY IDOCK:    0.08 KCAL/MOL
REMARK 927      BINDING AFFINITY PREDICTED BY RF-SCORE:    0.00 PKD
ROOT
HETATM    1  C   UNL     1     -12.000  13.838  68.267  1.00  0.00    -0.392 C  
HETATM    2  C   UNL     1     -11.698  12.844  67.153  1.00  0.00    -0.437 C  
ENDROOT
BRANCH   2   3
HETATM    3  C   UNL     1     -10.219  12.435  67.143  1.00  0.00    -0.226 C  
BRANCH   3   4
HETATM    4  C   UNL     1      -9.939  10.901  67.229  1.00  0.00    -0.216 C  
HETATM    5  C   UNL     1      -9.923  10.279  65.818  1.00  0.00    -0.337 C  
BRANCH   4   6
HETATM    6  C   UNL     1     -11.094  10.256  68.049  1.00  0.00    -0.274 C  
BRANCH   6   7
HETATM    7  O   UNL     1     -10.837  10.360  69.462  1.00  0.00    -0.221 OA 
BRANCH   7   8
HETATM    8  C   UNL     1     -11.128   9.268  70.215  1.00  0.00    -0.251 C  
HETATM    9  H   UNL     1     -12.081  10.632  71.423  1.00  0.00     0.000 HD 
HETATM   10  O   UNL     1     -10.769   8.125  69.970  1.00  0.00    -0.240 OA 
HETATM   11  N   UNL     1     -11.893   9.640  71.278  1.00  0.00    -0.351 N  
BRANCH  11  12
HETATM   12  C   UNL     1     -12.450   8.678  72.213  1.00  0.00    -0.395 C  
HETATM   13  C   UNL     1     -11.356   7.801  72.807  1.00  0.00    -0.446 C  
HETATM   14  C   UNL     1     -13.520   7.822  71.534  1.00  0.00    -0.379 C  
ENDBRANCH  11  12
ENDBRANCH   7   8
ENDBRANCH   6   7
ENDBRANCH   4   6
BRANCH   4  15
HETATM   15  C   UNL     1      -8.583  10.602  67.917  1.00  0.00    -0.124 C  
BRANCH  15  16
HETATM   16  O   UNL     1      -8.247  11.663  68.828  1.00  0.00    -0.134 OA 
BRANCH  16  17
HETATM   17  C   UNL     1      -6.971  12.107  68.791  1.00  0.00    -0.101 C  
HETATM   18  O   UNL     1      -6.439  12.735  67.891  1.00  0.00    -0.089 OA 
HETATM   19  H1  UNL     1      -5.357  12.060  69.885  1.00  0.00     0.000 HD 
HETATM   20  N   UNL     1      -6.319  11.724  69.913  1.00  0.00    -0.240 N  
HETATM   21  H2  UNL     1      -6.730  11.182  70.673  1.00  0.00     0.000 HD 
ENDBRANCH  16  17
ENDBRANCH  15  16
ENDBRANCH   4  15
ENDBRANCH   3   4
ENDBRANCH   2   3
TORSDOF 9
ENDMDL
MODEL      219
REMARK 921   NORMALIZED FREE ENERGY PREDICTED BY IDOCK:   -2.49 KCAL/MOL
REMARK 922        TOTAL FREE ENERGY PREDICTED BY IDOCK:   -4.75 KCAL/MOL
REMARK 923 INTER-LIGAND FREE ENERGY PREDICTED BY IDOCK:   -4.08 KCAL/MOL
REMARK 924 INTRA-LIGAND FREE ENERGY PREDICTED BY IDOCK:   -0.67 KCAL/MOL
REMARK 927      BINDING AFFINITY PREDICTED BY RF-SCORE:    0.00 PKD
ROOT
HETATM    1  C   UNL     1      -9.827   7.145  71.493  1.00  0.00    -0.176 C  
HETATM    2  C   UNL     1      -9.847   7.619  70.046  1.00  0.00    -0.180 C  
ENDROOT
BRANCH   2   3
HETATM    3  C   UNL     1      -8.480   8.161  69.608  1.00  0.00    -0.126 C  
BRANCH   3   4
HETATM    4  C   UNL     1      -8.493   9.110  68.368  1.00  0.00    -0.128 C  
HETATM    5  C   UNL     1      -7.460  10.241  68.549  1.00  0.00    -0.084 C  
BRANCH   4   6
HETATM    6  C   UNL     1      -9.913   9.738  68.269  1.00  0.00    -0.153 C  
BRANCH   6   7
HETATM    7  O   UNL     1      -9.833  11.131  67.915  1.00  0.00    -0.168 OA 
BRANCH   7   8
HETATM    8  C   UNL     1     -11.001  11.824  67.900  1.00  0.00    -0.221 C  
HETATM    9  H   UNL     1     -10.040  13.036  69.255  1.00  0.00     0.000 HD 
HETATM   10  O   UNL     1     -11.993  11.522  67.252  1.00  0.00    -0.605 OA 
HETATM   11  N   UNL     1     -10.893  12.914  68.708  1.00  0.00    -0.253 N  
BRANCH  11  12
HETATM   12  C   UNL     1     -11.946  13.908  68.822  1.00  0.00    -0.358 C  
HETATM   13  C   UNL     1     -11.482  15.254  68.283  1.00  0.00    -0.359 C  
HETATM   14  C   UNL     1     -12.412  14.038  70.272  1.00  0.00    -0.403 C  
ENDBRANCH  11  12
ENDBRANCH   7   8
ENDBRANCH   6   7
ENDBRANCH   4   6
BRANCH   4  15
HETATM   15  C   UNL     1      -8.169   8.349  67.057  1.00  0.00    -0.107 C  
BRANCH  15  16
HETATM   16  O   UNL     1      -9.362   7.741  66.532  1.00  0.00    -0.172 OA 
BRANCH  16  17
HETATM   17  C   UNL     1      -9.334   6.399  66.372  1.00  0.00    -0.147 C  
HETATM   18  O   UNL     1      -9.421   5.554  67.248  1.00  0.00    -0.113 OA 
HETATM   19  H1  UNL     1      -9.137   5.084  64.945  1.00  0.00     0.000 HD 
HETATM   20  N   UNL     1      -9.159   6.096  65.065  1.00  0.00    -0.328 N  
HETATM   21  H2  UNL     1      -9.062   6.779  64.314  1.00  0.00     0.000 HD 
ENDBRANCH  16  17
ENDBRANCH  15  16
ENDBRANCH   4  15
ENDBRANCH   3   4
ENDBRANCH   2   3
TORSDOF 9
ENDMDL
MODEL      220
REMARK 921   NORMALIZED FREE ENERGY PREDICTED BY IDOCK:   -2.48 KCAL/MOL
REMARK 922        TOTAL FREE ENERGY PREDICTED BY IDOCK:   -4.73 KCAL/MOL
REMARK 923 INTER-LIGAND FREE ENERGY PREDICTED BY IDOCK:   -4.19 KCAL/MOL
REMARK 924 INTRA-LIGAND FREE ENERGY PREDICTED BY IDOCK:   -0.54 KCAL/MOL
REMARK 927      BINDING AFFINITY PREDICTED BY RF-SCORE:    0.00 PKD
ROOT
HETATM    1  C   UNL     1     -10.587   7.370  66.934  1.00  0.00    -0.375 C  
HETATM    2  C   UNL     1     -10.360   8.864  67.131  1.00  0.00    -0.351 C  
ENDROOT
BRANCH   2   3
HETATM    3  C   UNL     1     -10.632   9.293  68.579  1.00  0.00    -0.222 C  
BRANCH   3   4
HETATM    4  C   UNL     1     -10.798  10.828  68.811  1.00  0.00    -0.262 C  
HETATM    5  C   UNL     1     -11.615  11.459  67.664  1.00  0.00    -0.315 C  
BRANCH   4   6
HETATM    6  C   UNL     1      -9.376  11.460  68.821  1.00  0.00    -0.106 C  
BRANCH   6   7
HETATM    7  O   UNL     1      -9.276  12.510  67.840  1.00  0.00    -0.185 OA 
BRANCH   7   8
HETATM    8  C   UNL     1      -8.839  13.717  68.283  1.00  0.00    -0.185 C  
HETATM    9  H   UNL     1      -6.984  12.970  67.807  1.00  0.00     0.000 HD 
HETATM   10  O   UNL     1      -9.550  14.604  68.735  1.00  0.00    -0.211 OA 
HETATM   11  N   UNL     1      -7.488  13.793  68.134  1.00  0.00    -0.109 N  
BRANCH  11  12
HETATM   12  C   UNL     1      -6.739  15.004  68.425  1.00  0.00    -0.111 C  
HETATM   13  C   UNL     1      -5.707  15.277  67.339  1.00  0.00     0.140 C  
HETATM   14  C   UNL     1      -6.068  14.908  69.795  1.00  0.00    -0.135 C  
ENDBRANCH  11  12
ENDBRANCH   7   8
ENDBRANCH   6   7
ENDBRANCH   4   6
BRANCH   4  15
HETATM   15  C   UNL     1     -11.512  11.133  70.152  1.00  0.00    -0.272 C  
BRANCH  15  16
HETATM   16  O   UNL     1     -12.303  10.003  70.559  1.00  0.00    -0.264 OA 
BRANCH  16  17
HETATM   17  C   UNL     1     -12.091   9.539  71.812  1.00  0.00    -0.384 C  
HETATM   18  O   UNL     1     -11.092   8.975  72.226  1.00  0.00    -0.298 OA 
HETATM   19  H1  UNL     1     -13.027   9.411  73.518  1.00  0.00     0.000 HD 
HETATM   20  N   UNL     1     -13.187   9.761  72.573  1.00  0.00    -0.547 N  
HETATM   21  H2  UNL     1     -14.044  10.210  72.251  1.00  0.00     0.000 HD 
ENDBRANCH  16  17
ENDBRANCH  15  16
ENDBRANCH   4  15
ENDBRANCH   3   4
ENDBRANCH   2   3
TORSDOF 9
ENDMDL
MODEL      221
REMARK 921   NORMALIZED FREE ENERGY PREDICTED BY IDOCK:   -2.47 KCAL/MOL
REMARK 922        TOTAL FREE ENERGY PREDICTED BY IDOCK:   -4.71 KCAL/MOL
REMARK 923 INTER-LIGAND FREE ENERGY PREDICTED BY IDOCK:   -4.57 KCAL/MOL
REMARK 924 INTRA-LIGAND FREE ENERGY PREDICTED BY IDOCK:   -0.15 KCAL/MOL
REMARK 927      BINDING AFFINITY PREDICTED BY RF-SCORE:    0.00 PKD
ROOT
HETATM    1  C   UNL     1     -10.019  20.160  66.996  1.00  0.00    -0.596 C  
HETATM    2  C   UNL     1      -9.828  19.236  68.191  1.00  0.00    -0.464 C  
ENDROOT
BRANCH   2   3
HETATM    3  C   UNL     1     -10.680  17.966  68.070  1.00  0.00    -0.307 C  
BRANCH   3   4
HETATM    4  C   UNL     1      -9.891  16.619  68.049  1.00  0.00    -0.245 C  
HETATM    5  C   UNL     1      -9.211  16.417  66.679  1.00  0.00    -0.279 C  
BRANCH   4   6
HETATM    6  C   UNL     1     -10.914  15.469  68.276  1.00  0.00    -0.305 C  
BRANCH   6   7
HETATM    7  O   UNL     1     -10.303  14.374  68.984  1.00  0.00    -0.232 OA 
BRANCH   7   8
HETATM    8  C   UNL     1     -10.255  13.182  68.335  1.00  0.00    -0.247 C  
HETATM    9  H   UNL     1      -8.226  13.516  68.337  1.00  0.00     0.000 HD 
HETATM   10  O   UNL     1     -11.226  12.506  68.026  1.00  0.00    -0.236 OA 
HETATM   11  N   UNL     1      -8.957  12.848  68.094  1.00  0.00    -0.200 N  
BRANCH  11  12
HETATM   12  C   UNL     1      -8.576  11.577  67.503  1.00  0.00    -0.143 C  
HETATM   13  C   UNL     1      -8.846  11.572  66.004  1.00  0.00    -0.144 C  
HETATM   14  C   UNL     1      -9.306  10.422  68.188  1.00  0.00    -0.149 C  
ENDBRANCH  11  12
ENDBRANCH   7   8
ENDBRANCH   6   7
ENDBRANCH   4   6
BRANCH   4  15
HETATM   15  C   UNL     1      -8.803  16.573  69.152  1.00  0.00    -0.159 C  
BRANCH  15  16
HETATM   16  O   UNL     1      -7.497  16.702  68.565  1.00  0.00    -0.183 OA 
BRANCH  16  17
HETATM   17  C   UNL     1      -6.533  17.232  69.350  1.00  0.00    -0.235 C  
HETATM   18  O   UNL     1      -6.287  18.416  69.511  1.00  0.00    -0.261 OA 
HETATM   19  H1  UNL     1      -5.095  16.642  70.528  1.00  0.00     0.000 HD 
HETATM   20  N   UNL     1      -5.822  16.242  69.936  1.00  0.00    -0.180 N  
HETATM   21  H2  UNL     1      -5.990  15.244  69.805  1.00  0.00     0.000 HD 
ENDBRANCH  16  17
ENDBRANCH  15  16
ENDBRANCH   4  15
ENDBRANCH   3   4
ENDBRANCH   2   3
TORSDOF 9
ENDMDL
MODEL      222
REMARK 921   NORMALIZED FREE ENERGY PREDICTED BY IDOCK:   -2.46 KCAL/MOL
REMARK 922        TOTAL FREE ENERGY PREDICTED BY IDOCK:   -4.69 KCAL/MOL
REMARK 923 INTER-LIGAND FREE ENERGY PREDICTED BY IDOCK:   -4.75 KCAL/MOL
REMARK 924 INTRA-LIGAND FREE ENERGY PREDICTED BY IDOCK:    0.06 KCAL/MOL
REMARK 927      BINDING AFFINITY PREDICTED BY RF-SCORE:    0.00 PKD
ROOT
HETATM    1  C   UNL     1     -12.055  12.436  63.416  1.00  0.00    -0.620 C  
HETATM    2  C   UNL     1     -11.934  13.030  64.813  1.00  0.00    -0.443 C  
ENDROOT
BRANCH   2   3
HETATM    3  C   UNL     1     -11.308  12.036  65.801  1.00  0.00    -0.384 C  
BRANCH   3   4
HETATM    4  C   UNL     1     -10.246  12.629  66.779  1.00  0.00    -0.246 C  
HETATM    5  C   UNL     1     -10.709  12.460  68.240  1.00  0.00    -0.250 C  
BRANCH   4   6
HETATM    6  C   UNL     1     -10.112  14.147  66.466  1.00  0.00    -0.280 C  
BRANCH   6   7
HETATM    7  O   UNL     1     -10.078  14.919  67.682  1.00  0.00    -0.226 OA 
BRANCH   7   8
HETATM    8  C   UNL     1      -9.790  16.240  67.556  1.00  0.00    -0.238 C  
HETATM    9  H   UNL     1      -8.476  15.870  69.095  1.00  0.00     0.000 HD 
HETATM   10  O   UNL     1     -10.322  17.007  66.767  1.00  0.00    -0.309 OA 
HETATM   11  N   UNL     1      -8.806  16.575  68.435  1.00  0.00    -0.210 N  
BRANCH  11  12
HETATM   12  C   UNL     1      -8.209  17.899  68.469  1.00  0.00    -0.295 C  
HETATM   13  C   UNL     1      -9.278  18.974  68.612  1.00  0.00    -0.414 C  
HETATM   14  C   UNL     1      -7.361  18.142  67.221  1.00  0.00    -0.219 C  
ENDBRANCH  11  12
ENDBRANCH   7   8
ENDBRANCH   6   7
ENDBRANCH   4   6
BRANCH   4  15
HETATM   15  C   UNL     1      -8.866  11.942  66.614  1.00  0.00    -0.191 C  
BRANCH  15  16
HETATM   16  O   UNL     1      -8.927  10.589  67.100  1.00  0.00    -0.139 OA 
BRANCH  16  17
HETATM   17  C   UNL     1      -7.771   9.888  67.078  1.00  0.00    -0.095 C  
HETATM   18  O   UNL     1      -7.602   8.741  67.455  1.00  0.00    -0.092 OA 
HETATM   19  H1  UNL     1      -5.902  10.134  66.576  1.00  0.00     0.000 HD 
HETATM   20  N   UNL     1      -6.774  10.663  66.592  1.00  0.00    -0.098 N  
HETATM   21  H2  UNL     1      -6.879  11.631  66.289  1.00  0.00     0.000 HD 
ENDBRANCH  16  17
ENDBRANCH  15  16
ENDBRANCH   4  15
ENDBRANCH   3   4
ENDBRANCH   2   3
TORSDOF 9
ENDMDL
MODEL      223
REMARK 921   NORMALIZED FREE ENERGY PREDICTED BY IDOCK:   -2.43 KCAL/MOL
REMARK 922        TOTAL FREE ENERGY PREDICTED BY IDOCK:   -4.65 KCAL/MOL
REMARK 923 INTER-LIGAND FREE ENERGY PREDICTED BY IDOCK:   -3.96 KCAL/MOL
REMARK 924 INTRA-LIGAND FREE ENERGY PREDICTED BY IDOCK:   -0.68 KCAL/MOL
REMARK 927      BINDING AFFINITY PREDICTED BY RF-SCORE:    0.00 PKD
ROOT
HETATM    1  C   UNL     1     -10.817   4.309  65.088  1.00  0.00    -0.075 C  
HETATM    2  C   UNL     1     -10.545   5.258  66.249  1.00  0.00    -0.308 C  
ENDROOT
BRANCH   2   3
HETATM    3  C   UNL     1      -9.170   5.928  66.124  1.00  0.00    -0.164 C  
BRANCH   3   4
HETATM    4  C   UNL     1      -8.929   7.158  67.054  1.00  0.00    -0.137 C  
HETATM    5  C   UNL     1      -7.423   7.329  67.338  1.00  0.00    -0.096 C  
BRANCH   4   6
HETATM    6  C   UNL     1      -9.665   6.885  68.398  1.00  0.00    -0.137 C  
BRANCH   6   7
HETATM    7  O   UNL     1     -10.612   7.932  68.684  1.00  0.00    -0.190 OA 
BRANCH   7   8
HETATM    8  C   UNL     1     -10.652   8.383  69.964  1.00  0.00    -0.235 C  
HETATM    9  H   UNL     1     -12.334   9.379  69.324  1.00  0.00     0.000 HD 
HETATM   10  O   UNL     1      -9.834   8.117  70.833  1.00  0.00    -0.174 OA 
HETATM   11  N   UNL     1     -11.751   9.168  70.134  1.00  0.00    -0.030 N  
BRANCH  11  12
HETATM   12  C   UNL     1     -12.125   9.718  71.426  1.00  0.00    -0.400 C  
HETATM   13  C   UNL     1     -13.202   8.868  72.087  1.00  0.00    -0.478 C  
HETATM   14  C   UNL     1     -12.591  11.166  71.284  1.00  0.00    -0.503 C  
ENDBRANCH  11  12
ENDBRANCH   7   8
ENDBRANCH   6   7
ENDBRANCH   4   6
BRANCH   4  15
HETATM   15  C   UNL     1      -9.466   8.469  66.425  1.00  0.00    -0.232 C  
BRANCH  15  16
HETATM   16  O   UNL     1      -8.653   9.583  66.835  1.00  0.00    -0.126 OA 
BRANCH  16  17
HETATM   17  C   UNL     1      -9.282  10.772  66.967  1.00  0.00    -0.152 C  
HETATM   18  O   UNL     1     -10.144  11.059  67.781  1.00  0.00    -0.173 OA 
HETATM   19  H1  UNL     1      -9.313  12.530  66.123  1.00  0.00     0.000 HD 
HETATM   20  N   UNL     1      -8.838  11.633  66.023  1.00  0.00    -0.354 N  
HETATM   21  H2  UNL     1      -8.135  11.416  65.317  1.00  0.00     0.000 HD 
ENDBRANCH  16  17
ENDBRANCH  15  16
ENDBRANCH   4  15
ENDBRANCH   3   4
ENDBRANCH   2   3
TORSDOF 9
ENDMDL
MODEL      224
REMARK 921   NORMALIZED FREE ENERGY PREDICTED BY IDOCK:   -2.42 KCAL/MOL
REMARK 922        TOTAL FREE ENERGY PREDICTED BY IDOCK:   -4.63 KCAL/MOL
REMARK 923 INTER-LIGAND FREE ENERGY PREDICTED BY IDOCK:   -4.06 KCAL/MOL
REMARK 924 INTRA-LIGAND FREE ENERGY PREDICTED BY IDOCK:   -0.58 KCAL/MOL
REMARK 927      BINDING AFFINITY PREDICTED BY RF-SCORE:    0.00 PKD
ROOT
HETATM    1  C   UNL     1      -5.925  17.164  68.088  1.00  0.00    -0.127 C  
HETATM    2  C   UNL     1      -6.767  15.961  68.491  1.00  0.00    -0.123 C  
ENDROOT
BRANCH   2   3
HETATM    3  C   UNL     1      -7.569  15.406  67.306  1.00  0.00    -0.246 C  
BRANCH   3   4
HETATM    4  C   UNL     1      -9.083  15.141  67.577  1.00  0.00    -0.187 C  
HETATM    5  C   UNL     1      -9.384  15.244  69.086  1.00  0.00    -0.236 C  
BRANCH   4   6
HETATM    6  C   UNL     1      -9.402  13.694  67.100  1.00  0.00    -0.240 C  
BRANCH   6   7
HETATM    7  O   UNL     1     -10.313  13.045  68.007  1.00  0.00    -0.221 OA 
BRANCH   7   8
HETATM    8  C   UNL     1     -10.096  11.726  68.247  1.00  0.00    -0.197 C  
HETATM    9  H   UNL     1      -9.641  11.667  66.242  1.00  0.00     0.000 HD 
HETATM   10  O   UNL     1     -10.247  11.170  69.325  1.00  0.00    -0.184 OA 
HETATM   11  N   UNL     1      -9.670  11.122  67.103  1.00  0.00    -0.176 N  
BRANCH  11  12
HETATM   12  C   UNL     1      -9.257   9.729  67.065  1.00  0.00    -0.142 C  
HETATM   13  C   UNL     1      -8.221   9.500  65.973  1.00  0.00    -0.115 C  
HETATM   14  C   UNL     1     -10.464   8.813  66.866  1.00  0.00    -0.319 C  
ENDBRANCH  11  12
ENDBRANCH   7   8
ENDBRANCH   6   7
ENDBRANCH   4   6
BRANCH   4  15
HETATM   15  C   UNL     1      -9.988  16.148  66.822  1.00  0.00    -0.258 C  
BRANCH  15  16
HETATM   16  O   UNL     1     -10.620  15.501  65.703  1.00  0.00    -0.327 OA 
BRANCH  16  17
HETATM   17  C   UNL     1     -11.216  16.309  64.798  1.00  0.00    -0.259 C  
HETATM   18  O   UNL     1     -11.920  15.968  63.862  1.00  0.00    -0.855 OA 
HETATM   19  H1  UNL     1     -11.346  18.207  64.370  1.00  0.00     0.000 HD 
HETATM   20  N   UNL     1     -10.896  17.598  65.053  1.00  0.00     0.157 N  
HETATM   21  H2  UNL     1     -10.294  17.913  65.814  1.00  0.00     0.000 HD 
ENDBRANCH  16  17
ENDBRANCH  15  16
ENDBRANCH   4  15
ENDBRANCH   3   4
ENDBRANCH   2   3
TORSDOF 9
ENDMDL
MODEL      225
REMARK 921   NORMALIZED FREE ENERGY PREDICTED BY IDOCK:   -2.40 KCAL/MOL
REMARK 922        TOTAL FREE ENERGY PREDICTED BY IDOCK:   -4.62 KCAL/MOL
REMARK 923 INTER-LIGAND FREE ENERGY PREDICTED BY IDOCK:   -4.23 KCAL/MOL
REMARK 924 INTRA-LIGAND FREE ENERGY PREDICTED BY IDOCK:   -0.38 KCAL/MOL
REMARK 927      BINDING AFFINITY PREDICTED BY RF-SCORE:    0.00 PKD
ROOT
HETATM    1  C   UNL     1     -11.893  13.791  68.097  1.00  0.00    -0.411 C  
HETATM    2  C   UNL     1     -11.876  13.235  66.679  1.00  0.00    -0.447 C  
ENDROOT
BRANCH   2   3
HETATM    3  C   UNL     1     -10.450  12.905  66.216  1.00  0.00    -0.282 C  
BRANCH   3   4
HETATM    4  C   UNL     1     -10.214  11.437  65.740  1.00  0.00    -0.295 C  
HETATM    5  C   UNL     1     -10.758  11.243  64.310  1.00  0.00    -0.416 C  
BRANCH   4   6
HETATM    6  C   UNL     1     -10.993  10.497  66.706  1.00  0.00    -0.080 C  
BRANCH   6   7
HETATM    7  O   UNL     1     -10.093   9.847  67.623  1.00  0.00    -0.176 OA 
BRANCH   7   8
HETATM    8  C   UNL     1     -10.253   8.508  67.786  1.00  0.00    -0.225 C  
HETATM    9  H   UNL     1      -9.158   8.813  69.500  1.00  0.00     0.000 HD 
HETATM   10  O   UNL     1     -10.837   7.766  67.009  1.00  0.00    -0.316 OA 
HETATM   11  N   UNL     1      -9.676   8.122  68.957  1.00  0.00    -0.161 N  
BRANCH  11  12
HETATM   12  C   UNL     1      -9.770   6.763  69.462  1.00  0.00    -0.150 C  
HETATM   13  C   UNL     1      -9.097   5.783  68.511  1.00  0.00    -0.116 C  
HETATM   14  C   UNL     1     -11.229   6.373  69.696  1.00  0.00    -0.483 C  
ENDBRANCH  11  12
ENDBRANCH   7   8
ENDBRANCH   6   7
ENDBRANCH   4   6
BRANCH   4  15
HETATM   15  C   UNL     1      -8.710  11.063  65.753  1.00  0.00    -0.174 C  
BRANCH  15  16
HETATM   16  O   UNL     1      -8.412  10.177  64.659  1.00  0.00    -0.156 OA 
BRANCH  16  17
HETATM   17  C   UNL     1      -7.961   8.946  64.986  1.00  0.00    -0.125 C  
HETATM   18  O   UNL     1      -8.181   7.903  64.392  1.00  0.00    -0.129 OA 
HETATM   19  H1  UNL     1      -6.889   8.083  66.368  1.00  0.00     0.000 HD 
HETATM   20  N   UNL     1      -7.229   9.012  66.121  1.00  0.00    -0.089 N  
HETATM   21  H2  UNL     1      -7.045   9.864  66.651  1.00  0.00     0.000 HD 
ENDBRANCH  16  17
ENDBRANCH  15  16
ENDBRANCH   4  15
ENDBRANCH   3   4
ENDBRANCH   2   3
TORSDOF 9
ENDMDL
MODEL      226
REMARK 921   NORMALIZED FREE ENERGY PREDICTED BY IDOCK:   -2.40 KCAL/MOL
REMARK 922        TOTAL FREE ENERGY PREDICTED BY IDOCK:   -4.61 KCAL/MOL
REMARK 923 INTER-LIGAND FREE ENERGY PREDICTED BY IDOCK:   -3.89 KCAL/MOL
REMARK 924 INTRA-LIGAND FREE ENERGY PREDICTED BY IDOCK:   -0.72 KCAL/MOL
REMARK 927      BINDING AFFINITY PREDICTED BY RF-SCORE:    0.00 PKD
ROOT
HETATM    1  C   UNL     1      -9.344   7.726  66.491  1.00  0.00    -0.243 C  
HETATM    2  C   UNL     1      -9.929   7.612  67.893  1.00  0.00    -0.208 C  
ENDROOT
BRANCH   2   3
HETATM    3  C   UNL     1      -9.330   8.656  68.845  1.00  0.00    -0.145 C  
BRANCH   3   4
HETATM    4  C   UNL     1      -9.819   8.584  70.325  1.00  0.00    -0.194 C  
HETATM    5  C   UNL     1      -8.616   8.605  71.289  1.00  0.00    -0.236 C  
BRANCH   4   6
HETATM    6  C   UNL     1     -10.583   7.240  70.505  1.00  0.00    -0.222 C  
BRANCH   6   7
HETATM    7  O   UNL     1      -9.850   6.346  71.364  1.00  0.00    -0.176 OA 
BRANCH   7   8
HETATM    8  C   UNL     1      -9.702   5.068  70.929  1.00  0.00    -0.190 C  
HETATM    9  H   UNL     1      -8.503   5.931  69.498  1.00  0.00     0.000 HD 
HETATM   10  O   UNL     1     -10.244   4.087  71.419  1.00  0.00    -0.125 OA 
HETATM   11  N   UNL     1      -8.848   5.045  69.869  1.00  0.00    -0.100 N  
BRANCH  11  12
HETATM   12  C   UNL     1      -8.410   3.808  69.246  1.00  0.00    -0.064 C  
HETATM   13  C   UNL     1      -6.949   3.898  68.827  1.00  0.00    -0.047 C  
HETATM   14  C   UNL     1      -9.295   3.462  68.050  1.00  0.00    -0.241 C  
ENDBRANCH  11  12
ENDBRANCH   7   8
ENDBRANCH   6   7
ENDBRANCH   4   6
BRANCH   4  15
HETATM   15  C   UNL     1     -10.759   9.765  70.680  1.00  0.00    -0.326 C  
BRANCH  15  16
HETATM   16  O   UNL     1     -10.659  10.793  69.679  1.00  0.00    -0.231 OA 
BRANCH  16  17
HETATM   17  C   UNL     1     -11.761  11.550  69.480  1.00  0.00    -0.346 C  
HETATM   18  O   UNL     1     -12.237  11.885  68.408  1.00  0.00    -0.425 OA 
HETATM   19  H1  UNL     1     -13.107  12.503  70.521  1.00  0.00     0.000 HD 
HETATM   20  N   UNL     1     -12.276  11.932  70.671  1.00  0.00    -0.374 N  
HETATM   21  H2  UNL     1     -11.889  11.685  71.583  1.00  0.00     0.000 HD 
ENDBRANCH  16  17
ENDBRANCH  15  16
ENDBRANCH   4  15
ENDBRANCH   3   4
ENDBRANCH   2   3
TORSDOF 9
ENDMDL
MODEL      227
REMARK 921   NORMALIZED FREE ENERGY PREDICTED BY IDOCK:   -2.40 KCAL/MOL
REMARK 922        TOTAL FREE ENERGY PREDICTED BY IDOCK:   -4.61 KCAL/MOL
REMARK 923 INTER-LIGAND FREE ENERGY PREDICTED BY IDOCK:   -4.02 KCAL/MOL
REMARK 924 INTRA-LIGAND FREE ENERGY PREDICTED BY IDOCK:   -0.59 KCAL/MOL
REMARK 927      BINDING AFFINITY PREDICTED BY RF-SCORE:    0.00 PKD
ROOT
HETATM    1  C   UNL     1      -6.726   6.016  70.258  1.00  0.00    -0.049 C  
HETATM    2  C   UNL     1      -8.194   5.706  70.518  1.00  0.00    -0.116 C  
ENDROOT
BRANCH   2   3
HETATM    3  C   UNL     1      -9.058   6.974  70.478  1.00  0.00    -0.156 C  
BRANCH   3   4
HETATM    4  C   UNL     1      -9.921   7.248  71.749  1.00  0.00    -0.186 C  
HETATM    5  C   UNL     1     -11.287   6.542  71.632  1.00  0.00    -0.332 C  
BRANCH   4   6
HETATM    6  C   UNL     1     -10.155   8.783  71.840  1.00  0.00    -0.339 C  
BRANCH   6   7
HETATM    7  O   UNL     1     -10.187   9.374  70.527  1.00  0.00    -0.231 OA 
BRANCH   7   8
HETATM    8  C   UNL     1     -11.205  10.236  70.272  1.00  0.00    -0.323 C  
HETATM    9  H   UNL     1      -9.918  10.986  68.855  1.00  0.00     0.000 HD 
HETATM   10  O   UNL     1     -12.272  10.265  70.869  1.00  0.00    -0.306 OA 
HETATM   11  N   UNL     1     -10.860  11.054  69.240  1.00  0.00    -0.230 N  
BRANCH  11  12
HETATM   12  C   UNL     1     -11.783  12.018  68.667  1.00  0.00    -0.326 C  
HETATM   13  C   UNL     1     -11.644  12.069  67.151  1.00  0.00    -0.387 C  
HETATM   14  C   UNL     1     -11.566  13.403  69.277  1.00  0.00    -0.365 C  
ENDBRANCH  11  12
ENDBRANCH   7   8
ENDBRANCH   6   7
ENDBRANCH   4   6
BRANCH   4  15
HETATM   15  C   UNL     1      -9.218   6.753  73.040  1.00  0.00    -0.127 C  
BRANCH  15  16
HETATM   16  O   UNL     1     -10.095   5.883  73.777  1.00  0.00    -0.185 OA 
BRANCH  16  17
HETATM   17  C   UNL     1      -9.562   4.719  74.212  1.00  0.00    -0.130 C  
HETATM   18  O   UNL     1     -10.149   3.664  74.388  1.00  0.00    -0.134 OA 
HETATM   19  H1  UNL     1      -7.843   4.007  74.797  1.00  0.00     0.000 HD 
HETATM   20  N   UNL     1      -8.244   4.885  74.469  1.00  0.00    -0.098 N  
HETATM   21  H2  UNL     1      -7.731   5.759  74.351  1.00  0.00     0.000 HD 
ENDBRANCH  16  17
ENDBRANCH  15  16
ENDBRANCH   4  15
ENDBRANCH   3   4
ENDBRANCH   2   3
TORSDOF 9
ENDMDL
MODEL      228
REMARK 921   NORMALIZED FREE ENERGY PREDICTED BY IDOCK:   -2.38 KCAL/MOL
REMARK 922        TOTAL FREE ENERGY PREDICTED BY IDOCK:   -4.57 KCAL/MOL
REMARK 923 INTER-LIGAND FREE ENERGY PREDICTED BY IDOCK:   -3.93 KCAL/MOL
REMARK 924 INTRA-LIGAND FREE ENERGY PREDICTED BY IDOCK:   -0.64 KCAL/MOL
REMARK 927      BINDING AFFINITY PREDICTED BY RF-SCORE:    0.00 PKD
ROOT
HETATM    1  C   UNL     1     -10.656   5.660  66.824  1.00  0.00    -0.372 C  
HETATM    2  C   UNL     1     -10.681   6.954  67.627  1.00  0.00    -0.344 C  
ENDROOT
BRANCH   2   3
HETATM    3  C   UNL     1      -9.694   6.912  68.801  1.00  0.00    -0.137 C  
BRANCH   3   4
HETATM    4  C   UNL     1     -10.316   6.599  70.199  1.00  0.00    -0.236 C  
HETATM    5  C   UNL     1      -9.685   7.499  71.280  1.00  0.00    -0.173 C  
BRANCH   4   6
HETATM    6  C   UNL     1     -10.000   5.113  70.534  1.00  0.00    -0.234 C  
BRANCH   6   7
HETATM    7  O   UNL     1      -9.808   4.938  71.951  1.00  0.00    -0.169 OA 
BRANCH   7   8
HETATM    8  C   UNL     1      -8.892   4.011  72.331  1.00  0.00    -0.106 C  
HETATM    9  H   UNL     1      -7.988   4.502  70.550  1.00  0.00     0.000 HD 
HETATM   10  O   UNL     1      -8.943   3.345  73.355  1.00  0.00    -0.092 OA 
HETATM   11  N   UNL     1      -7.899   3.947  71.401  1.00  0.00    -0.063 N  
BRANCH  11  12
HETATM   12  C   UNL     1      -6.719   3.118  71.576  1.00  0.00    -0.026 C  
HETATM   13  C   UNL     1      -5.451   3.960  71.520  1.00  0.00    -0.008 C  
HETATM   14  C   UNL     1      -6.678   2.008  70.527  1.00  0.00    -0.032 C  
ENDBRANCH  11  12
ENDBRANCH   7   8
ENDBRANCH   6   7
ENDBRANCH   4   6
BRANCH   4  15
HETATM   15  C   UNL     1     -11.851   6.818  70.207  1.00  0.00    -0.301 C  
BRANCH  15  16
HETATM   16  O   UNL     1     -12.304   7.087  71.546  1.00  0.00    -0.339 OA 
BRANCH  16  17
HETATM   17  C   UNL     1     -13.301   7.991  71.675  1.00  0.00    -0.332 C  
HETATM   18  O   UNL     1     -13.254   9.178  71.399  1.00  0.00    -0.334 OA 
HETATM   19  H1  UNL     1     -15.147   8.076  72.296  1.00  0.00     0.000 HD 
HETATM   20  N   UNL     1     -14.396   7.394  72.199  1.00  0.00    -0.632 N  
HETATM   21  H2  UNL     1     -14.459   6.409  72.458  1.00  0.00     0.000 HD 
ENDBRANCH  16  17
ENDBRANCH  15  16
ENDBRANCH   4  15
ENDBRANCH   3   4
ENDBRANCH   2   3
TORSDOF 9
ENDMDL
MODEL      229
REMARK 921   NORMALIZED FREE ENERGY PREDICTED BY IDOCK:   -2.37 KCAL/MOL
REMARK 922        TOTAL FREE ENERGY PREDICTED BY IDOCK:   -4.57 KCAL/MOL
REMARK 923 INTER-LIGAND FREE ENERGY PREDICTED BY IDOCK:   -3.98 KCAL/MOL
REMARK 924 INTRA-LIGAND FREE ENERGY PREDICTED BY IDOCK:   -0.59 KCAL/MOL
REMARK 927      BINDING AFFINITY PREDICTED BY RF-SCORE:    0.00 PKD
ROOT
HETATM    1  C   UNL     1     -11.882   6.563  70.475  1.00  0.00    -0.393 C  
HETATM    2  C   UNL     1     -10.801   5.818  69.703  1.00  0.00    -0.418 C  
ENDROOT
BRANCH   2   3
HETATM    3  C   UNL     1     -10.914   6.060  68.192  1.00  0.00    -0.340 C  
BRANCH   3   4
HETATM    4  C   UNL     1      -9.619   6.578  67.490  1.00  0.00    -0.137 C  
HETATM    5  C   UNL     1      -8.480   6.740  68.516  1.00  0.00    -0.123 C  
BRANCH   4   6
HETATM    6  C   UNL     1      -9.941   7.970  66.873  1.00  0.00    -0.268 C  
BRANCH   6   7
HETATM    7  O   UNL     1     -10.830   8.715  67.728  1.00  0.00    -0.158 OA 
BRANCH   7   8
HETATM    8  C   UNL     1     -11.081  10.001  67.372  1.00  0.00    -0.085 C  
HETATM    9  H   UNL     1     -10.169   9.455  65.611  1.00  0.00     0.000 HD 
HETATM   10  O   UNL     1     -11.613  10.840  68.084  1.00  0.00    -0.441 OA 
HETATM   11  N   UNL     1     -10.660  10.208  66.094  1.00  0.00    -0.093 N  
BRANCH  11  12
HETATM   12  C   UNL     1     -10.884  11.460  65.392  1.00  0.00    -0.229 C  
HETATM   13  C   UNL     1     -10.848  11.252  63.884  1.00  0.00    -0.427 C  
HETATM   14  C   UNL     1      -9.857  12.509  65.818  1.00  0.00    -0.244 C  
ENDBRANCH  11  12
ENDBRANCH   7   8
ENDBRANCH   6   7
ENDBRANCH   4   6
BRANCH   4  15
HETATM   15  C   UNL     1      -9.145   5.613  66.373  1.00  0.00    -0.147 C  
BRANCH  15  16
HETATM   16  O   UNL     1      -8.906   6.344  65.157  1.00  0.00    -0.005 OA 
BRANCH  16  17
HETATM   17  C   UNL     1      -8.082   5.763  64.257  1.00  0.00    -0.127 C  
HETATM   18  O   UNL     1      -6.872   5.890  64.181  1.00  0.00    -0.046 OA 
HETATM   19  H1  UNL     1      -8.182   4.576  62.713  1.00  0.00     0.000 HD 
HETATM   20  N   UNL     1      -8.804   5.014  63.392  1.00  0.00    -0.300 N  
HETATM   21  H2  UNL     1      -9.818   4.905  63.416  1.00  0.00     0.000 HD 
ENDBRANCH  16  17
ENDBRANCH  15  16
ENDBRANCH   4  15
ENDBRANCH   3   4
ENDBRANCH   2   3
TORSDOF 9
ENDMDL
MODEL      230
REMARK 921   NORMALIZED FREE ENERGY PREDICTED BY IDOCK:   -2.36 KCAL/MOL
REMARK 922        TOTAL FREE ENERGY PREDICTED BY IDOCK:   -4.54 KCAL/MOL
REMARK 923 INTER-LIGAND FREE ENERGY PREDICTED BY IDOCK:   -4.34 KCAL/MOL
REMARK 924 INTRA-LIGAND FREE ENERGY PREDICTED BY IDOCK:   -0.20 KCAL/MOL
REMARK 927      BINDING AFFINITY PREDICTED BY RF-SCORE:    0.00 PKD
ROOT
HETATM    1  C   UNL     1     -12.257   6.976  70.937  1.00  0.00    -0.388 C  
HETATM    2  C   UNL     1     -11.125   6.242  70.229  1.00  0.00    -0.430 C  
ENDROOT
BRANCH   2   3
HETATM    3  C   UNL     1     -11.082   6.574  68.731  1.00  0.00    -0.357 C  
BRANCH   3   4
HETATM    4  C   UNL     1      -9.831   7.373  68.249  1.00  0.00    -0.173 C  
HETATM    5  C   UNL     1      -8.883   7.652  69.433  1.00  0.00    -0.139 C  
BRANCH   4   6
HETATM    6  C   UNL     1     -10.330   8.730  67.675  1.00  0.00    -0.254 C  
BRANCH   6   7
HETATM    7  O   UNL     1     -10.138   9.791  68.630  1.00  0.00    -0.159 OA 
BRANCH   7   8
HETATM    8  C   UNL     1     -11.260  10.375  69.123  1.00  0.00    -0.246 C  
HETATM    9  H   UNL     1     -10.390   9.986  70.946  1.00  0.00     0.000 HD 
HETATM   10  O   UNL     1     -12.190  10.799  68.452  1.00  0.00    -0.470 OA 
HETATM   11  N   UNL     1     -11.184  10.428  70.482  1.00  0.00    -0.325 N  
BRANCH  11  12
HETATM   12  C   UNL     1     -12.189  11.091  71.294  1.00  0.00    -0.259 C  
HETATM   13  C   UNL     1     -13.456  10.251  71.382  1.00  0.00    -0.303 C  
HETATM   14  C   UNL     1     -12.500  12.482  70.742  1.00  0.00    -0.357 C  
ENDBRANCH  11  12
ENDBRANCH   7   8
ENDBRANCH   6   7
ENDBRANCH   4   6
BRANCH   4  15
HETATM   15  C   UNL     1      -9.044   6.605  67.156  1.00  0.00    -0.128 C  
BRANCH  15  16
HETATM   16  O   UNL     1      -9.142   5.188  67.381  1.00  0.00    -0.112 OA 
BRANCH  16  17
HETATM   17  C   UNL     1      -7.996   4.479  67.268  1.00  0.00    -0.101 C  
HETATM   18  O   UNL     1      -7.250   4.441  66.304  1.00  0.00    -0.073 OA 
HETATM   19  H1  UNL     1      -6.924   3.227  68.310  1.00  0.00     0.000 HD 
HETATM   20  N   UNL     1      -7.789   3.761  68.395  1.00  0.00    -0.067 N  
HETATM   21  H2  UNL     1      -8.404   3.756  69.209  1.00  0.00     0.000 HD 
ENDBRANCH  16  17
ENDBRANCH  15  16
ENDBRANCH   4  15
ENDBRANCH   3   4
ENDBRANCH   2   3
TORSDOF 9
ENDMDL
MODEL      231
REMARK 921   NORMALIZED FREE ENERGY PREDICTED BY IDOCK:   -2.35 KCAL/MOL
REMARK 922        TOTAL FREE ENERGY PREDICTED BY IDOCK:   -4.54 KCAL/MOL
REMARK 923 INTER-LIGAND FREE ENERGY PREDICTED BY IDOCK:   -3.82 KCAL/MOL
REMARK 924 INTRA-LIGAND FREE ENERGY PREDICTED BY IDOCK:   -0.72 KCAL/MOL
REMARK 927      BINDING AFFINITY PREDICTED BY RF-SCORE:    0.00 PKD
ROOT
HETATM    1  C   UNL     1     -12.149   6.751  70.875  1.00  0.00    -0.421 C  
HETATM    2  C   UNL     1     -10.920   5.991  70.393  1.00  0.00    -0.399 C  
ENDROOT
BRANCH   2   3
HETATM    3  C   UNL     1     -10.892   5.870  68.863  1.00  0.00    -0.373 C  
BRANCH   3   4
HETATM    4  C   UNL     1      -9.599   6.398  68.165  1.00  0.00    -0.115 C  
HETATM    5  C   UNL     1      -8.372   5.584  68.623  1.00  0.00    -0.101 C  
BRANCH   4   6
HETATM    6  C   UNL     1      -9.405   7.882  68.591  1.00  0.00    -0.145 C  
BRANCH   6   7
HETATM    7  O   UNL     1      -8.086   8.090  69.132  1.00  0.00    -0.115 OA 
BRANCH   7   8
HETATM    8  C   UNL     1      -8.014   8.707  70.339  1.00  0.00    -0.101 C  
HETATM    9  H   UNL     1      -8.455   6.836  71.070  1.00  0.00     0.000 HD 
HETATM   10  O   UNL     1      -7.793   9.897  70.513  1.00  0.00    -0.246 OA 
HETATM   11  N   UNL     1      -8.213   7.793  71.328  1.00  0.00    -0.100 N  
BRANCH  11  12
HETATM   12  C   UNL     1      -8.095   8.130  72.737  1.00  0.00    -0.165 C  
HETATM   13  C   UNL     1      -7.102   7.210  73.433  1.00  0.00    -0.074 C  
HETATM   14  C   UNL     1      -9.460   8.071  73.423  1.00  0.00    -0.307 C  
ENDBRANCH  11  12
ENDBRANCH   7   8
ENDBRANCH   6   7
ENDBRANCH   4   6
BRANCH   4  15
HETATM   15  C   UNL     1      -9.703   6.311  66.621  1.00  0.00    -0.155 C  
BRANCH  15  16
HETATM   16  O   UNL     1     -10.478   5.161  66.242  1.00  0.00    -0.269 OA 
BRANCH  16  17
HETATM   17  C   UNL     1      -9.823   4.186  65.572  1.00  0.00    -0.207 C  
HETATM   18  O   UNL     1      -9.181   3.268  66.056  1.00  0.00    -0.153 OA 
HETATM   19  H1  UNL     1      -9.454   3.645  63.735  1.00  0.00     0.000 HD 
HETATM   20  N   UNL     1      -9.948   4.381  64.240  1.00  0.00    -0.369 N  
HETATM   21  H2  UNL     1     -10.460   5.149  63.806  1.00  0.00     0.000 HD 
ENDBRANCH  16  17
ENDBRANCH  15  16
ENDBRANCH   4  15
ENDBRANCH   3   4
ENDBRANCH   2   3
TORSDOF 9
ENDMDL
MODEL      232
REMARK 921   NORMALIZED FREE ENERGY PREDICTED BY IDOCK:   -2.33 KCAL/MOL
REMARK 922        TOTAL FREE ENERGY PREDICTED BY IDOCK:   -4.50 KCAL/MOL
REMARK 923 INTER-LIGAND FREE ENERGY PREDICTED BY IDOCK:   -3.79 KCAL/MOL
REMARK 924 INTRA-LIGAND FREE ENERGY PREDICTED BY IDOCK:   -0.71 KCAL/MOL
REMARK 927      BINDING AFFINITY PREDICTED BY RF-SCORE:    0.00 PKD
ROOT
HETATM    1  C   UNL     1     -10.231  10.347  65.298  1.00  0.00    -0.332 C  
HETATM    2  C   UNL     1     -10.024   9.507  66.552  1.00  0.00    -0.329 C  
ENDROOT
BRANCH   2   3
HETATM    3  C   UNL     1      -8.675   9.808  67.220  1.00  0.00    -0.135 C  
BRANCH   3   4
HETATM    4  C   UNL     1      -8.426   9.103  68.590  1.00  0.00    -0.127 C  
HETATM    5  C   UNL     1      -8.516   7.572  68.431  1.00  0.00    -0.125 C  
BRANCH   4   6
HETATM    6  C   UNL     1      -9.539   9.572  69.571  1.00  0.00    -0.188 C  
BRANCH   6   7
HETATM    7  O   UNL     1     -10.439   8.491  69.879  1.00  0.00    -0.210 OA 
BRANCH   7   8
HETATM    8  C   UNL     1     -10.832   8.376  71.174  1.00  0.00    -0.237 C  
HETATM    9  H   UNL     1      -8.979   7.520  71.425  1.00  0.00     0.000 HD 
HETATM   10  O   UNL     1     -11.919   8.719  71.615  1.00  0.00    -0.291 OA 
HETATM   11  N   UNL     1      -9.822   7.831  71.907  1.00  0.00    -0.165 N  
BRANCH  11  12
HETATM   12  C   UNL     1      -9.902   7.676  73.349  1.00  0.00    -0.303 C  
HETATM   13  C   UNL     1      -8.541   7.898  73.996  1.00  0.00    -0.322 C  
HETATM   14  C   UNL     1     -10.457   6.299  73.715  1.00  0.00    -0.304 C  
ENDBRANCH  11  12
ENDBRANCH   7   8
ENDBRANCH   6   7
ENDBRANCH   4   6
BRANCH   4  15
HETATM   15  C   UNL     1      -7.035   9.459  69.175  1.00  0.00    -0.058 C  
BRANCH  15  16
HETATM   16  O   UNL     1      -7.153  10.556  70.098  1.00  0.00    -0.159 OA 
BRANCH  16  17
HETATM   17  C   UNL     1      -6.449  11.672  69.802  1.00  0.00    -0.111 C  
HETATM   18  O   UNL     1      -5.263  11.867  70.010  1.00  0.00    -0.073 OA 
HETATM   19  H1  UNL     1      -6.736  13.437  69.025  1.00  0.00     0.000 HD 
HETATM   20  N   UNL     1      -7.267  12.596  69.249  1.00  0.00    -0.320 N  
HETATM   21  H2  UNL     1      -8.265  12.470  69.082  1.00  0.00     0.000 HD 
ENDBRANCH  16  17
ENDBRANCH  15  16
ENDBRANCH   4  15
ENDBRANCH   3   4
ENDBRANCH   2   3
TORSDOF 9
ENDMDL
MODEL      233
REMARK 921   NORMALIZED FREE ENERGY PREDICTED BY IDOCK:   -2.33 KCAL/MOL
REMARK 922        TOTAL FREE ENERGY PREDICTED BY IDOCK:   -4.50 KCAL/MOL
REMARK 923 INTER-LIGAND FREE ENERGY PREDICTED BY IDOCK:   -3.83 KCAL/MOL
REMARK 924 INTRA-LIGAND FREE ENERGY PREDICTED BY IDOCK:   -0.66 KCAL/MOL
REMARK 927      BINDING AFFINITY PREDICTED BY RF-SCORE:    0.00 PKD
ROOT
HETATM    1  C   UNL     1     -13.013  10.471  70.829  1.00  0.00    -0.413 C  
HETATM    2  C   UNL     1     -11.830  11.152  70.153  1.00  0.00    -0.449 C  
ENDROOT
BRANCH   2   3
HETATM    3  C   UNL     1     -12.276  12.338  69.287  1.00  0.00    -0.097 C  
BRANCH   3   4
HETATM    4  C   UNL     1     -11.237  12.839  68.235  1.00  0.00    -0.308 C  
HETATM    5  C   UNL     1     -11.811  12.706  66.810  1.00  0.00    -0.440 C  
BRANCH   4   6
HETATM    6  C   UNL     1      -9.974  11.938  68.354  1.00  0.00    -0.203 C  
BRANCH   6   7
HETATM    7  O   UNL     1      -9.626  11.373  67.076  1.00  0.00    -0.174 OA 
BRANCH   7   8
HETATM    8  C   UNL     1      -9.411  10.033  67.041  1.00  0.00    -0.164 C  
HETATM    9  H   UNL     1      -7.996  10.523  65.632  1.00  0.00     0.000 HD 
HETATM   10  O   UNL     1     -10.025   9.202  67.695  1.00  0.00    -0.172 OA 
HETATM   11  N   UNL     1      -8.397   9.758  66.176  1.00  0.00    -0.119 N  
BRANCH  11  12
HETATM   12  C   UNL     1      -7.864   8.419  65.998  1.00  0.00    -0.098 C  
HETATM   13  C   UNL     1      -6.662   8.187  66.904  1.00  0.00    -0.065 C  
HETATM   14  C   UNL     1      -7.494   8.174  64.535  1.00  0.00    -0.102 C  
ENDBRANCH  11  12
ENDBRANCH   7   8
ENDBRANCH   6   7
ENDBRANCH   4   6
BRANCH   4  15
HETATM   15  C   UNL     1     -10.844  14.319  68.475  1.00  0.00    -0.253 C  
BRANCH  15  16
HETATM   16  O   UNL     1      -9.875  14.737  67.498  1.00  0.00    -0.217 OA 
BRANCH  16  17
HETATM   17  C   UNL     1      -8.829  15.461  67.957  1.00  0.00    -0.165 C  
HETATM   18  O   UNL     1      -7.774  15.671  67.382  1.00  0.00    -0.152 OA 
HETATM   19  H1  UNL     1      -8.311  16.464  69.547  1.00  0.00     0.000 HD 
HETATM   20  N   UNL     1      -9.100  15.917  69.201  1.00  0.00    -0.243 N  
HETATM   21  H2  UNL     1      -9.963  15.741  69.716  1.00  0.00     0.000 HD 
ENDBRANCH  16  17
ENDBRANCH  15  16
ENDBRANCH   4  15
ENDBRANCH   3   4
ENDBRANCH   2   3
TORSDOF 9
ENDMDL
MODEL      234
REMARK 921   NORMALIZED FREE ENERGY PREDICTED BY IDOCK:   -2.32 KCAL/MOL
REMARK 922        TOTAL FREE ENERGY PREDICTED BY IDOCK:   -4.49 KCAL/MOL
REMARK 923 INTER-LIGAND FREE ENERGY PREDICTED BY IDOCK:   -3.84 KCAL/MOL
REMARK 924 INTRA-LIGAND FREE ENERGY PREDICTED BY IDOCK:   -0.65 KCAL/MOL
REMARK 927      BINDING AFFINITY PREDICTED BY RF-SCORE:    0.00 PKD
ROOT
HETATM    1  C   UNL     1      -9.757   4.357  67.467  1.00  0.00    -0.211 C  
HETATM    2  C   UNL     1      -9.727   5.811  67.920  1.00  0.00    -0.134 C  
ENDROOT
BRANCH   2   3
HETATM    3  C   UNL     1     -10.987   6.185  68.712  1.00  0.00    -0.421 C  
BRANCH   3   4
HETATM    4  C   UNL     1     -10.741   6.850  70.103  1.00  0.00    -0.270 C  
HETATM    5  C   UNL     1     -12.052   6.897  70.914  1.00  0.00    -0.424 C  
BRANCH   4   6
HETATM    6  C   UNL     1     -10.254   8.306  69.851  1.00  0.00    -0.201 C  
BRANCH   6   7
HETATM    7  O   UNL     1     -11.372   9.194  69.664  1.00  0.00    -0.085 OA 
BRANCH   7   8
HETATM    8  C   UNL     1     -11.084  10.455  69.250  1.00  0.00    -0.253 C  
HETATM    9  H   UNL     1     -10.792   9.549  67.427  1.00  0.00     0.000 HD 
HETATM   10  O   UNL     1     -11.076  11.448  69.963  1.00  0.00    -0.160 OA 
HETATM   11  N   UNL     1     -10.821  10.445  67.914  1.00  0.00    -0.259 N  
BRANCH  11  12
HETATM   12  C   UNL     1     -10.578  11.661  67.158  1.00  0.00    -0.232 C  
HETATM   13  C   UNL     1     -11.192  11.568  65.767  1.00  0.00    -0.228 C  
HETATM   14  C   UNL     1      -9.080  11.953  67.070  1.00  0.00    -0.191 C  
ENDBRANCH  11  12
ENDBRANCH   7   8
ENDBRANCH   6   7
ENDBRANCH   4   6
BRANCH   4  15
HETATM   15  C   UNL     1      -9.676   6.082  70.928  1.00  0.00    -0.174 C  
BRANCH  15  16
HETATM   16  O   UNL     1     -10.299   5.021  71.672  1.00  0.00    -0.204 OA 
BRANCH  16  17
HETATM   17  C   UNL     1      -9.697   3.811  71.616  1.00  0.00    -0.168 C  
HETATM   18  O   UNL     1      -9.819   2.972  70.740  1.00  0.00    -0.128 OA 
HETATM   19  H1  UNL     1      -8.479   2.716  72.675  1.00  0.00     0.000 HD 
HETATM   20  N   UNL     1      -8.933   3.628  72.717  1.00  0.00    -0.096 N  
HETATM   21  H2  UNL     1      -8.827   4.302  73.476  1.00  0.00     0.000 HD 
ENDBRANCH  16  17
ENDBRANCH  15  16
ENDBRANCH   4  15
ENDBRANCH   3   4
ENDBRANCH   2   3
TORSDOF 9
ENDMDL
MODEL      235
REMARK 921   NORMALIZED FREE ENERGY PREDICTED BY IDOCK:   -2.32 KCAL/MOL
REMARK 922        TOTAL FREE ENERGY PREDICTED BY IDOCK:   -4.48 KCAL/MOL
REMARK 923 INTER-LIGAND FREE ENERGY PREDICTED BY IDOCK:   -3.71 KCAL/MOL
REMARK 924 INTRA-LIGAND FREE ENERGY PREDICTED BY IDOCK:   -0.77 KCAL/MOL
REMARK 927      BINDING AFFINITY PREDICTED BY RF-SCORE:    0.00 PKD
ROOT
HETATM    1  C   UNL     1     -10.987  10.382  67.402  1.00  0.00    -0.335 C  
HETATM    2  C   UNL     1     -10.079   9.375  66.709  1.00  0.00    -0.325 C  
ENDROOT
BRANCH   2   3
HETATM    3  C   UNL     1     -10.412   7.934  67.119  1.00  0.00    -0.414 C  
BRANCH   3   4
HETATM    4  C   UNL     1      -9.297   7.179  67.909  1.00  0.00    -0.128 C  
HETATM    5  C   UNL     1      -8.871   5.906  67.150  1.00  0.00    -0.107 C  
BRANCH   4   6
HETATM    6  C   UNL     1      -9.891   6.767  69.286  1.00  0.00    -0.155 C  
BRANCH   6   7
HETATM    7  O   UNL     1     -11.226   7.286  69.444  1.00  0.00    -0.125 OA 
BRANCH   7   8
HETATM    8  C   UNL     1     -11.732   7.290  70.704  1.00  0.00    -0.275 C  
HETATM    9  H   UNL     1     -10.441   5.714  70.987  1.00  0.00     0.000 HD 
HETATM   10  O   UNL     1     -12.604   8.043  71.113  1.00  0.00    -0.268 OA 
HETATM   11  N   UNL     1     -11.110   6.333  71.446  1.00  0.00    -0.274 N  
BRANCH  11  12
HETATM   12  C   UNL     1     -11.363   6.160  72.866  1.00  0.00    -0.169 C  
HETATM   13  C   UNL     1     -10.321   6.897  73.697  1.00  0.00    -0.397 C  
HETATM   14  C   UNL     1     -11.396   4.676  73.232  1.00  0.00    -0.393 C  
ENDBRANCH  11  12
ENDBRANCH   7   8
ENDBRANCH   6   7
ENDBRANCH   4   6
BRANCH   4  15
HETATM   15  C   UNL     1      -8.045   8.067  68.128  1.00  0.00    -0.129 C  
BRANCH  15  16
HETATM   16  O   UNL     1      -7.929   8.422  69.517  1.00  0.00    -0.106 OA 
BRANCH  16  17
HETATM   17  C   UNL     1      -6.676   8.497  70.017  1.00  0.00    -0.042 C  
HETATM   18  O   UNL     1      -5.982   9.496  70.112  1.00  0.00    -0.041 OA 
HETATM   19  H1  UNL     1      -5.311   7.322  70.766  1.00  0.00     0.000 HD 
HETATM   20  N   UNL     1      -6.256   7.266  70.388  1.00  0.00    -0.034 N  
HETATM   21  H2  UNL     1      -6.804   6.410  70.303  1.00  0.00     0.000 HD 
ENDBRANCH  16  17
ENDBRANCH  15  16
ENDBRANCH   4  15
ENDBRANCH   3   4
ENDBRANCH   2   3
TORSDOF 9
ENDMDL
MODEL      236
REMARK 921   NORMALIZED FREE ENERGY PREDICTED BY IDOCK:   -2.32 KCAL/MOL
REMARK 922        TOTAL FREE ENERGY PREDICTED BY IDOCK:   -4.48 KCAL/MOL
REMARK 923 INTER-LIGAND FREE ENERGY PREDICTED BY IDOCK:   -4.04 KCAL/MOL
REMARK 924 INTRA-LIGAND FREE ENERGY PREDICTED BY IDOCK:   -0.44 KCAL/MOL
REMARK 927      BINDING AFFINITY PREDICTED BY RF-SCORE:    0.00 PKD
ROOT
HETATM    1  C   UNL     1     -12.088  13.786  68.494  1.00  0.00    -0.327 C  
HETATM    2  C   UNL     1     -12.017  12.368  67.941  1.00  0.00    -0.260 C  
ENDROOT
BRANCH   2   3
HETATM    3  C   UNL     1     -11.013  12.259  66.786  1.00  0.00    -0.321 C  
BRANCH   3   4
HETATM    4  C   UNL     1      -9.887  11.193  66.964  1.00  0.00    -0.212 C  
HETATM    5  C   UNL     1      -9.613  10.474  65.628  1.00  0.00    -0.278 C  
BRANCH   4   6
HETATM    6  C   UNL     1     -10.386  10.149  68.004  1.00  0.00    -0.190 C  
BRANCH   6   7
HETATM    7  O   UNL     1      -9.581  10.189  69.197  1.00  0.00    -0.189 OA 
BRANCH   7   8
HETATM    8  C   UNL     1      -9.821   9.229  70.126  1.00  0.00    -0.215 C  
HETATM    9  H   UNL     1      -9.919   7.987  68.491  1.00  0.00     0.000 HD 
HETATM   10  O   UNL     1      -9.905   9.417  71.332  1.00  0.00    -0.260 OA 
HETATM   11  N   UNL     1      -9.942   8.021  69.510  1.00  0.00    -0.182 N  
BRANCH  11  12
HETATM   12  C   UNL     1     -10.101   6.781  70.249  1.00  0.00    -0.179 C  
HETATM   13  C   UNL     1      -8.775   6.041  70.362  1.00  0.00    -0.144 C  
HETATM   14  C   UNL     1     -11.161   5.894  69.595  1.00  0.00    -0.414 C  
ENDBRANCH  11  12
ENDBRANCH   7   8
ENDBRANCH   6   7
ENDBRANCH   4   6
BRANCH   4  15
HETATM   15  C   UNL     1      -8.564  11.830  67.463  1.00  0.00    -0.157 C  
BRANCH  15  16
HETATM   16  O   UNL     1      -8.836  13.080  68.122  1.00  0.00    -0.186 OA 
BRANCH  16  17
HETATM   17  C   UNL     1      -8.237  14.176  67.606  1.00  0.00    -0.186 C  
HETATM   18  O   UNL     1      -8.643  14.871  66.690  1.00  0.00    -0.244 OA 
HETATM   19  H1  UNL     1      -6.611  15.225  67.851  1.00  0.00     0.000 HD 
HETATM   20  N   UNL     1      -7.063  14.398  68.241  1.00  0.00    -0.100 N  
HETATM   21  H2  UNL     1      -6.687  13.824  68.995  1.00  0.00     0.000 HD 
ENDBRANCH  16  17
ENDBRANCH  15  16
ENDBRANCH   4  15
ENDBRANCH   3   4
ENDBRANCH   2   3
TORSDOF 9
ENDMDL
MODEL      237
REMARK 921   NORMALIZED FREE ENERGY PREDICTED BY IDOCK:   -2.27 KCAL/MOL
REMARK 922        TOTAL FREE ENERGY PREDICTED BY IDOCK:   -4.41 KCAL/MOL
REMARK 923 INTER-LIGAND FREE ENERGY PREDICTED BY IDOCK:   -3.64 KCAL/MOL
REMARK 924 INTRA-LIGAND FREE ENERGY PREDICTED BY IDOCK:   -0.77 KCAL/MOL
REMARK 927      BINDING AFFINITY PREDICTED BY RF-SCORE:    0.00 PKD
ROOT
HETATM    1  C   UNL     1      -7.378   4.549  67.080  1.00  0.00    -0.074 C  
HETATM    2  C   UNL     1      -7.590   5.807  67.913  1.00  0.00    -0.085 C  
ENDROOT
BRANCH   2   3
HETATM    3  C   UNL     1      -7.782   7.047  67.030  1.00  0.00    -0.107 C  
BRANCH   3   4
HETATM    4  C   UNL     1      -8.451   8.276  67.723  1.00  0.00    -0.131 C  
HETATM    5  C   UNL     1      -7.488   9.480  67.724  1.00  0.00    -0.084 C  
BRANCH   4   6
HETATM    6  C   UNL     1      -8.760   7.877  69.195  1.00  0.00    -0.138 C  
BRANCH   6   7
HETATM    7  O   UNL     1     -10.178   7.901  69.444  1.00  0.00    -0.196 OA 
BRANCH   7   8
HETATM    8  C   UNL     1     -10.708   6.804  70.044  1.00  0.00    -0.247 C  
HETATM    9  H   UNL     1      -8.794   6.540  70.749  1.00  0.00     0.000 HD 
HETATM   10  O   UNL     1     -11.870   6.436  69.943  1.00  0.00    -0.384 OA 
HETATM   11  N   UNL     1      -9.750   6.185  70.786  1.00  0.00    -0.176 N  
BRANCH  11  12
HETATM   12  C   UNL     1     -10.036   5.037  71.630  1.00  0.00    -0.196 C  
HETATM   13  C   UNL     1      -9.322   5.155  72.969  1.00  0.00    -0.142 C  
HETATM   14  C   UNL     1      -9.649   3.737  70.923  1.00  0.00    -0.256 C  
ENDBRANCH  11  12
ENDBRANCH   7   8
ENDBRANCH   6   7
ENDBRANCH   4   6
BRANCH   4  15
HETATM   15  C   UNL     1      -9.764   8.692  67.012  1.00  0.00    -0.201 C  
BRANCH  15  16
HETATM   16  O   UNL     1      -9.650  10.036  66.511  1.00  0.00    -0.170 OA 
BRANCH  16  17
HETATM   17  C   UNL     1      -9.981  10.227  65.215  1.00  0.00    -0.317 C  
HETATM   18  O   UNL     1     -10.782  11.034  64.774  1.00  0.00    -0.309 OA 
HETATM   19  H1  UNL     1      -9.557   9.494  63.458  1.00  0.00     0.000 HD 
HETATM   20  N   UNL     1      -9.307   9.350  64.436  1.00  0.00    -0.427 N  
HETATM   21  H2  UNL     1      -8.648   8.650  64.776  1.00  0.00     0.000 HD 
ENDBRANCH  16  17
ENDBRANCH  15  16
ENDBRANCH   4  15
ENDBRANCH   3   4
ENDBRANCH   2   3
TORSDOF 9
ENDMDL
MODEL      238
REMARK 921   NORMALIZED FREE ENERGY PREDICTED BY IDOCK:   -2.23 KCAL/MOL
REMARK 922        TOTAL FREE ENERGY PREDICTED BY IDOCK:   -4.35 KCAL/MOL
REMARK 923 INTER-LIGAND FREE ENERGY PREDICTED BY IDOCK:   -3.49 KCAL/MOL
REMARK 924 INTRA-LIGAND FREE ENERGY PREDICTED BY IDOCK:   -0.86 KCAL/MOL
REMARK 927      BINDING AFFINITY PREDICTED BY RF-SCORE:    0.00 PKD
ROOT
HETATM    1  C   UNL     1     -11.057  14.398  66.880  1.00  0.00    -0.325 C  
HETATM    2  C   UNL     1     -10.688  13.925  68.280  1.00  0.00    -0.261 C  
ENDROOT
BRANCH   2   3
HETATM    3  C   UNL     1      -9.892  12.614  68.245  1.00  0.00    -0.227 C  
BRANCH   3   4
HETATM    4  C   UNL     1     -10.732  11.306  68.392  1.00  0.00    -0.238 C  
HETATM    5  C   UNL     1     -12.085  11.611  69.065  1.00  0.00    -0.288 C  
BRANCH   4   6
HETATM    6  C   UNL     1      -9.929  10.329  69.298  1.00  0.00    -0.227 C  
BRANCH   6   7
HETATM    7  O   UNL     1      -8.514  10.576  69.190  1.00  0.00    -0.146 OA 
BRANCH   7   8
HETATM    8  C   UNL     1      -7.746   9.541  68.762  1.00  0.00    -0.080 C  
HETATM    9  H   UNL     1      -9.252   8.389  69.560  1.00  0.00     0.000 HD 
HETATM   10  O   UNL     1      -6.662   9.647  68.208  1.00  0.00    -0.060 OA 
HETATM   11  N   UNL     1      -8.378   8.366  69.034  1.00  0.00    -0.118 N  
BRANCH  11  12
HETATM   12  C   UNL     1      -7.853   7.081  68.605  1.00  0.00    -0.119 C  
HETATM   13  C   UNL     1      -8.317   6.750  67.193  1.00  0.00    -0.121 C  
HETATM   14  C   UNL     1      -8.261   5.977  69.581  1.00  0.00    -0.115 C  
ENDBRANCH  11  12
ENDBRANCH   7   8
ENDBRANCH   6   7
ENDBRANCH   4   6
BRANCH   4  15
HETATM   15  C   UNL     1     -11.001  10.638  67.019  1.00  0.00    -0.208 C  
BRANCH  15  16
HETATM   16  O   UNL     1      -9.857  10.791  66.162  1.00  0.00    -0.204 OA 
BRANCH  16  17
HETATM   17  C   UNL     1     -10.107  11.120  64.875  1.00  0.00    -0.289 C  
HETATM   18  O   UNL     1      -9.336  11.036  63.933  1.00  0.00    -0.214 OA 
HETATM   19  H1  UNL     1     -11.554  11.853  63.792  1.00  0.00     0.000 HD 
HETATM   20  N   UNL     1     -11.365  11.605  64.763  1.00  0.00    -0.249 N  
HETATM   21  H2  UNL     1     -12.025  11.707  65.534  1.00  0.00     0.000 HD 
ENDBRANCH  16  17
ENDBRANCH  15  16
ENDBRANCH   4  15
ENDBRANCH   3   4
ENDBRANCH   2   3
TORSDOF 9
ENDMDL
MODEL      239
REMARK 921   NORMALIZED FREE ENERGY PREDICTED BY IDOCK:   -2.20 KCAL/MOL
REMARK 922        TOTAL FREE ENERGY PREDICTED BY IDOCK:   -4.30 KCAL/MOL
REMARK 923 INTER-LIGAND FREE ENERGY PREDICTED BY IDOCK:   -4.42 KCAL/MOL
REMARK 924 INTRA-LIGAND FREE ENERGY PREDICTED BY IDOCK:    0.11 KCAL/MOL
REMARK 927      BINDING AFFINITY PREDICTED BY RF-SCORE:    0.00 PKD
ROOT
HETATM    1  C   UNL     1     -10.065  15.641  65.016  1.00  0.00    -0.102 C  
HETATM    2  C   UNL     1     -10.710  16.483  66.109  1.00  0.00    -0.155 C  
ENDROOT
BRANCH   2   3
HETATM    3  C   UNL     1     -10.638  15.790  67.477  1.00  0.00    -0.309 C  
BRANCH   3   4
HETATM    4  C   UNL     1      -9.848  16.557  68.584  1.00  0.00    -0.250 C  
HETATM    5  C   UNL     1      -8.927  15.589  69.353  1.00  0.00    -0.275 C  
BRANCH   4   6
HETATM    6  C   UNL     1     -10.886  17.156  69.575  1.00  0.00     0.086 C  
BRANCH   6   7
HETATM    7  O   UNL     1     -10.989  16.346  70.761  1.00  0.00    -0.220 OA 
BRANCH   7   8
HETATM    8  C   UNL     1     -12.106  15.584  70.883  1.00  0.00    -0.385 C  
HETATM    9  H   UNL     1     -10.983  14.556  72.266  1.00  0.00     0.000 HD 
HETATM   10  O   UNL     1     -13.137  15.734  70.244  1.00  0.00    -0.311 OA 
HETATM   11  N   UNL     1     -11.906  14.635  71.838  1.00  0.00    -0.275 N  
BRANCH  11  12
HETATM   12  C   UNL     1     -12.956  13.729  72.270  1.00  0.00    -0.336 C  
HETATM   13  C   UNL     1     -13.026  12.507  71.364  1.00  0.00    -0.347 C  
HETATM   14  C   UNL     1     -14.305  14.447  72.315  1.00  0.00    -0.522 C  
ENDBRANCH  11  12
ENDBRANCH   7   8
ENDBRANCH   6   7
ENDBRANCH   4   6
BRANCH   4  15
HETATM   15  C   UNL     1      -8.981  17.696  67.988  1.00  0.00    -0.264 C  
BRANCH  15  16
HETATM   16  O   UNL     1      -7.595  17.312  67.985  1.00  0.00    -0.186 OA 
BRANCH  16  17
HETATM   17  C   UNL     1      -6.841  17.785  66.967  1.00  0.00    -0.175 C  
HETATM   18  O   UNL     1      -7.114  18.711  66.221  1.00  0.00    -0.219 OA 
HETATM   19  H1  UNL     1      -5.143  17.408  66.087  1.00  0.00     0.000 HD 
HETATM   20  N   UNL     1      -5.711  17.051  66.854  1.00  0.00    -0.169 N  
HETATM   21  H2  UNL     1      -5.465  16.260  67.449  1.00  0.00     0.000 HD 
ENDBRANCH  16  17
ENDBRANCH  15  16
ENDBRANCH   4  15
ENDBRANCH   3   4
ENDBRANCH   2   3
TORSDOF 9
ENDMDL
MODEL      240
REMARK 921   NORMALIZED FREE ENERGY PREDICTED BY IDOCK:   -2.18 KCAL/MOL
REMARK 922        TOTAL FREE ENERGY PREDICTED BY IDOCK:   -4.27 KCAL/MOL
REMARK 923 INTER-LIGAND FREE ENERGY PREDICTED BY IDOCK:   -4.37 KCAL/MOL
REMARK 924 INTRA-LIGAND FREE ENERGY PREDICTED BY IDOCK:    0.11 KCAL/MOL
REMARK 927      BINDING AFFINITY PREDICTED BY RF-SCORE:    0.00 PKD
ROOT
HETATM    1  C   UNL     1     -10.537  13.414  64.566  1.00  0.00    -0.441 C  
HETATM    2  C   UNL     1     -11.148  12.064  64.920  1.00  0.00    -0.368 C  
ENDROOT
BRANCH   2   3
HETATM    3  C   UNL     1     -10.934  11.714  66.399  1.00  0.00    -0.345 C  
BRANCH   3   4
HETATM    4  C   UNL     1      -9.846  10.633  66.689  1.00  0.00    -0.245 C  
HETATM    5  C   UNL     1      -8.706  10.727  65.655  1.00  0.00    -0.198 C  
BRANCH   4   6
HETATM    6  C   UNL     1     -10.523   9.237  66.565  1.00  0.00    -0.134 C  
BRANCH   6   7
HETATM    7  O   UNL     1      -9.576   8.184  66.829  1.00  0.00    -0.182 OA 
BRANCH   7   8
HETATM    8  C   UNL     1     -10.064   6.917  66.843  1.00  0.00    -0.218 C  
HETATM    9  H   UNL     1      -8.497   6.539  65.567  1.00  0.00     0.000 HD 
HETATM   10  O   UNL     1     -11.058   6.549  67.452  1.00  0.00    -0.357 OA 
HETATM   11  N   UNL     1      -9.266   6.116  66.085  1.00  0.00    -0.155 N  
BRANCH  11  12
HETATM   12  C   UNL     1      -9.470   4.681  65.986  1.00  0.00    -0.171 C  
HETATM   13  C   UNL     1     -10.745   4.365  65.216  1.00  0.00    -0.150 C  
HETATM   14  C   UNL     1      -9.506   4.043  67.375  1.00  0.00    -0.231 C  
ENDBRANCH  11  12
ENDBRANCH   7   8
ENDBRANCH   6   7
ENDBRANCH   4   6
BRANCH   4  15
HETATM   15  C   UNL     1      -9.241  10.792  68.108  1.00  0.00    -0.151 C  
BRANCH  15  16
HETATM   16  O   UNL     1     -10.169  11.477  68.966  1.00  0.00    -0.181 OA 
BRANCH  16  17
HETATM   17  C   UNL     1     -10.920  10.704  69.782  1.00  0.00    -0.280 C  
HETATM   18  O   UNL     1     -10.664   9.573  70.161  1.00  0.00    -0.222 OA 
HETATM   19  H1  UNL     1     -12.623  10.775  70.730  1.00  0.00     0.000 HD 
HETATM   20  N   UNL     1     -12.057  11.358  70.115  1.00  0.00    -0.344 N  
HETATM   21  H2  UNL     1     -12.308  12.295  69.798  1.00  0.00     0.000 HD 
ENDBRANCH  16  17
ENDBRANCH  15  16
ENDBRANCH   4  15
ENDBRANCH   3   4
ENDBRANCH   2   3
TORSDOF 9
ENDMDL
MODEL      241
REMARK 921   NORMALIZED FREE ENERGY PREDICTED BY IDOCK:   -2.17 KCAL/MOL
REMARK 922        TOTAL FREE ENERGY PREDICTED BY IDOCK:   -4.26 KCAL/MOL
REMARK 923 INTER-LIGAND FREE ENERGY PREDICTED BY IDOCK:   -3.55 KCAL/MOL
REMARK 924 INTRA-LIGAND FREE ENERGY PREDICTED BY IDOCK:   -0.72 KCAL/MOL
REMARK 927      BINDING AFFINITY PREDICTED BY RF-SCORE:    0.00 PKD
ROOT
HETATM    1  C   UNL     1     -10.992  10.792  67.645  1.00  0.00    -0.365 C  
HETATM    2  C   UNL     1     -10.337   9.717  66.788  1.00  0.00    -0.292 C  
ENDROOT
BRANCH   2   3
HETATM    3  C   UNL     1     -10.925   8.328  67.074  1.00  0.00     0.178 C  
BRANCH   3   4
HETATM    4  C   UNL     1      -9.905   7.245  67.547  1.00  0.00    -0.198 C  
HETATM    5  C   UNL     1     -10.580   5.859  67.600  1.00  0.00    -0.335 C  
BRANCH   4   6
HETATM    6  C   UNL     1      -9.436   7.630  68.980  1.00  0.00    -0.150 C  
BRANCH   6   7
HETATM    7  O   UNL     1     -10.206   6.930  69.975  1.00  0.00    -0.190 OA 
BRANCH   7   8
HETATM    8  C   UNL     1     -10.525   7.626  71.098  1.00  0.00    -0.208 C  
HETATM    9  H   UNL     1     -12.028   8.394  69.924  1.00  0.00     0.000 HD 
HETATM   10  O   UNL     1      -9.916   7.575  72.157  1.00  0.00    -0.170 OA 
HETATM   11  N   UNL     1     -11.636   8.377  70.865  1.00  0.00    -0.276 N  
BRANCH  11  12
HETATM   12  C   UNL     1     -12.284   9.155  71.908  1.00  0.00    -0.379 C  
HETATM   13  C   UNL     1     -13.611   8.526  72.309  1.00  0.00    -0.371 C  
HETATM   14  C   UNL     1     -12.485  10.601  71.457  1.00  0.00    -0.471 C  
ENDBRANCH  11  12
ENDBRANCH   7   8
ENDBRANCH   6   7
ENDBRANCH   4   6
BRANCH   4  15
HETATM   15  C   UNL     1      -8.677   7.161  66.605  1.00  0.00    -0.128 C  
BRANCH  15  16
HETATM   16  O   UNL     1      -7.486   7.557  67.308  1.00  0.00    -0.095 OA 
BRANCH  16  17
HETATM   17  C   UNL     1      -6.372   6.830  67.065  1.00  0.00    -0.041 C  
HETATM   18  O   UNL     1      -6.190   6.055  66.141  1.00  0.00    -0.034 OA 
HETATM   19  H1  UNL     1      -4.617   6.509  67.851  1.00  0.00     0.000 HD 
HETATM   20  N   UNL     1      -5.457   7.057  68.035  1.00  0.00    -0.019 N  
HETATM   21  H2  UNL     1      -5.588   7.682  68.830  1.00  0.00     0.000 HD 
ENDBRANCH  16  17
ENDBRANCH  15  16
ENDBRANCH   4  15
ENDBRANCH   3   4
ENDBRANCH   2   3
TORSDOF 9
ENDMDL
MODEL      242
REMARK 921   NORMALIZED FREE ENERGY PREDICTED BY IDOCK:   -2.15 KCAL/MOL
REMARK 922        TOTAL FREE ENERGY PREDICTED BY IDOCK:   -4.23 KCAL/MOL
REMARK 923 INTER-LIGAND FREE ENERGY PREDICTED BY IDOCK:   -4.12 KCAL/MOL
REMARK 924 INTRA-LIGAND FREE ENERGY PREDICTED BY IDOCK:   -0.11 KCAL/MOL
REMARK 927      BINDING AFFINITY PREDICTED BY RF-SCORE:    0.00 PKD
ROOT
HETATM    1  C   UNL     1      -6.981   6.469  66.357  1.00  0.00    -0.066 C  
HETATM    2  C   UNL     1      -8.135   7.409  66.034  1.00  0.00    -0.124 C  
ENDROOT
BRANCH   2   3
HETATM    3  C   UNL     1      -8.586   8.199  67.270  1.00  0.00    -0.124 C  
BRANCH   3   4
HETATM    4  C   UNL     1      -9.970   7.791  67.868  1.00  0.00    -0.212 C  
HETATM    5  C   UNL     1     -10.605   6.663  67.029  1.00  0.00    -0.404 C  
BRANCH   4   6
HETATM    6  C   UNL     1     -10.895   9.041  67.811  1.00  0.00    -0.057 C  
BRANCH   6   7
HETATM    7  O   UNL     1     -10.198  10.214  68.272  1.00  0.00    -0.154 OA 
BRANCH   7   8
HETATM    8  C   UNL     1     -10.678  11.412  67.849  1.00  0.00    -0.200 C  
HETATM    9  H   UNL     1      -8.898  12.132  68.585  1.00  0.00     0.000 HD 
HETATM   10  O   UNL     1     -11.769  11.591  67.327  1.00  0.00    -0.576 OA 
HETATM   11  N   UNL     1      -9.751  12.381  68.083  1.00  0.00    -0.210 N  
BRANCH  11  12
HETATM   12  C   UNL     1      -9.931  13.755  67.647  1.00  0.00    -0.238 C  
HETATM   13  C   UNL     1     -11.081  14.416  68.395  1.00  0.00    -0.272 C  
HETATM   14  C   UNL     1     -10.160  13.817  66.137  1.00  0.00    -0.314 C  
ENDBRANCH  11  12
ENDBRANCH   7   8
ENDBRANCH   6   7
ENDBRANCH   4   6
BRANCH   4  15
HETATM   15  C   UNL     1      -9.842   7.306  69.334  1.00  0.00    -0.163 C  
BRANCH  15  16
HETATM   16  O   UNL     1     -11.118   7.385  69.994  1.00  0.00    -0.259 OA 
BRANCH  16  17
HETATM   17  C   UNL     1     -11.098   7.674  71.314  1.00  0.00    -0.246 C  
HETATM   18  O   UNL     1     -10.644   6.981  72.209  1.00  0.00    -0.205 OA 
HETATM   19  H1  UNL     1     -11.682   9.085  72.527  1.00  0.00     0.000 HD 
HETATM   20  N   UNL     1     -11.697   8.867  71.531  1.00  0.00    -0.300 N  
HETATM   21  H2  UNL     1     -12.104   9.459  70.807  1.00  0.00     0.000 HD 
ENDBRANCH  16  17
ENDBRANCH  15  16
ENDBRANCH   4  15
ENDBRANCH   3   4
ENDBRANCH   2   3
TORSDOF 9
ENDMDL
MODEL      243
REMARK 921   NORMALIZED FREE ENERGY PREDICTED BY IDOCK:   -2.14 KCAL/MOL
REMARK 922        TOTAL FREE ENERGY PREDICTED BY IDOCK:   -4.22 KCAL/MOL
REMARK 923 INTER-LIGAND FREE ENERGY PREDICTED BY IDOCK:   -3.63 KCAL/MOL
REMARK 924 INTRA-LIGAND FREE ENERGY PREDICTED BY IDOCK:   -0.59 KCAL/MOL
REMARK 927      BINDING AFFINITY PREDICTED BY RF-SCORE:    0.00 PKD
ROOT
HETATM    1  C   UNL     1      -6.156   7.122  68.994  1.00  0.00    -0.023 C  
HETATM    2  C   UNL     1      -7.489   7.055  68.260  1.00  0.00    -0.099 C  
ENDROOT
BRANCH   2   3
HETATM    3  C   UNL     1      -7.674   8.243  67.307  1.00  0.00    -0.101 C  
BRANCH   3   4
HETATM    4  C   UNL     1      -8.576   7.980  66.061  1.00  0.00    -0.162 C  
HETATM    5  C   UNL     1      -7.709   7.612  64.840  1.00  0.00    -0.107 C  
BRANCH   4   6
HETATM    6  C   UNL     1      -9.348   9.294  65.751  1.00  0.00    -0.244 C  
BRANCH   6   7
HETATM    7  O   UNL     1      -8.763   9.979  64.627  1.00  0.00    -0.162 OA 
BRANCH   7   8
HETATM    8  C   UNL     1      -9.568  10.841  63.954  1.00  0.00    -0.293 C  
HETATM    9  H   UNL     1     -10.111  11.455  65.840  1.00  0.00     0.000 HD 
HETATM   10  O   UNL     1      -9.675  10.904  62.738  1.00  0.00    -0.301 OA 
HETATM   11  N   UNL     1     -10.226  11.635  64.843  1.00  0.00    -0.257 N  
BRANCH  11  12
HETATM   12  C   UNL     1     -11.085  12.729  64.424  1.00  0.00    -0.349 C  
HETATM   13  C   UNL     1     -10.432  14.074  64.713  1.00  0.00    -0.445 C  
HETATM   14  C   UNL     1     -12.451  12.634  65.103  1.00  0.00    -0.531 C  
ENDBRANCH  11  12
ENDBRANCH   7   8
ENDBRANCH   6   7
ENDBRANCH   4   6
BRANCH   4  15
HETATM   15  C   UNL     1      -9.586   6.832  66.315  1.00  0.00    -0.031 C  
BRANCH  15  16
HETATM   16  O   UNL     1      -9.262   5.697  65.492  1.00  0.00    -0.118 OA 
BRANCH  16  17
HETATM   17  C   UNL     1      -9.133   4.510  66.125  1.00  0.00    -0.128 C  
HETATM   18  O   UNL     1      -8.357   3.611  65.847  1.00  0.00    -0.103 OA 
HETATM   19  H1  UNL     1      -9.935   3.532  67.610  1.00  0.00     0.000 HD 
HETATM   20  N   UNL     1     -10.033   4.428  67.132  1.00  0.00    -0.175 N  
HETATM   21  H2  UNL     1     -10.707   5.153  67.376  1.00  0.00     0.000 HD 
ENDBRANCH  16  17
ENDBRANCH  15  16
ENDBRANCH   4  15
ENDBRANCH   3   4
ENDBRANCH   2   3
TORSDOF 9
ENDMDL
MODEL      244
REMARK 921   NORMALIZED FREE ENERGY PREDICTED BY IDOCK:   -2.13 KCAL/MOL
REMARK 922        TOTAL FREE ENERGY PREDICTED BY IDOCK:   -4.20 KCAL/MOL
REMARK 923 INTER-LIGAND FREE ENERGY PREDICTED BY IDOCK:   -4.18 KCAL/MOL
REMARK 924 INTRA-LIGAND FREE ENERGY PREDICTED BY IDOCK:   -0.02 KCAL/MOL
REMARK 927      BINDING AFFINITY PREDICTED BY RF-SCORE:    0.00 PKD
ROOT
HETATM    1  C   UNL     1      -8.505  12.647  67.689  1.00  0.00    -0.173 C  
HETATM    2  C   UNL     1      -9.222  11.331  67.417  1.00  0.00    -0.164 C  
ENDROOT
BRANCH   2   3
HETATM    3  C   UNL     1      -9.171  10.395  68.631  1.00  0.00    -0.164 C  
BRANCH   3   4
HETATM    4  C   UNL     1     -10.553   9.897  69.162  1.00  0.00    -0.240 C  
HETATM    5  C   UNL     1     -11.639  10.962  68.912  1.00  0.00    -0.378 C  
BRANCH   4   6
HETATM    6  C   UNL     1     -10.415   9.671  70.696  1.00  0.00    -0.312 C  
BRANCH   6   7
HETATM    7  O   UNL     1     -11.491   8.851  71.190  1.00  0.00    -0.270 OA 
BRANCH   7   8
HETATM    8  C   UNL     1     -11.139   7.705  71.829  1.00  0.00    -0.242 C  
HETATM    9  H   UNL     1      -9.404   8.731  72.238  1.00  0.00     0.000 HD 
HETATM   10  O   UNL     1     -11.819   6.691  71.888  1.00  0.00    -0.303 OA 
HETATM   11  N   UNL     1      -9.915   7.865  72.405  1.00  0.00    -0.208 N  
BRANCH  11  12
HETATM   12  C   UNL     1      -9.311   6.846  73.247  1.00  0.00    -0.145 C  
HETATM   13  C   UNL     1      -8.875   5.645  72.418  1.00  0.00    -0.135 C  
HETATM   14  C   UNL     1     -10.275   6.419  74.354  1.00  0.00    -0.343 C  
ENDBRANCH  11  12
ENDBRANCH   7   8
ENDBRANCH   6   7
ENDBRANCH   4   6
BRANCH   4  15
HETATM   15  C   UNL     1     -10.989   8.575  68.480  1.00  0.00     0.195 C  
BRANCH  15  16
HETATM   16  O   UNL     1      -9.840   7.887  67.956  1.00  0.00    -0.155 OA 
BRANCH  16  17
HETATM   17  C   UNL     1     -10.074   6.977  66.983  1.00  0.00    -0.229 C  
HETATM   18  O   UNL     1      -9.301   6.626  66.107  1.00  0.00    -0.146 OA 
HETATM   19  H1  UNL     1     -11.514   5.822  66.355  1.00  0.00     0.000 HD 
HETATM   20  N   UNL     1     -11.338   6.508  67.089  1.00  0.00    -0.771 N  
HETATM   21  H2  UNL     1     -12.013   6.797  67.797  1.00  0.00     0.000 HD 
ENDBRANCH  16  17
ENDBRANCH  15  16
ENDBRANCH   4  15
ENDBRANCH   3   4
ENDBRANCH   2   3
TORSDOF 9
ENDMDL
MODEL      245
REMARK 921   NORMALIZED FREE ENERGY PREDICTED BY IDOCK:   -2.12 KCAL/MOL
REMARK 922        TOTAL FREE ENERGY PREDICTED BY IDOCK:   -4.18 KCAL/MOL
REMARK 923 INTER-LIGAND FREE ENERGY PREDICTED BY IDOCK:   -3.57 KCAL/MOL
REMARK 924 INTRA-LIGAND FREE ENERGY PREDICTED BY IDOCK:   -0.60 KCAL/MOL
REMARK 927      BINDING AFFINITY PREDICTED BY RF-SCORE:    0.00 PKD
ROOT
HETATM    1  C   UNL     1     -10.303  12.513  66.696  1.00  0.00    -0.244 C  
HETATM    2  C   UNL     1     -10.800  11.118  66.341  1.00  0.00    -0.284 C  
ENDROOT
BRANCH   2   3
HETATM    3  C   UNL     1     -10.953  10.236  67.587  1.00  0.00    -0.356 C  
BRANCH   3   4
HETATM    4  C   UNL     1      -9.830   9.175  67.810  1.00  0.00    -0.214 C  
HETATM    5  C   UNL     1      -8.791   9.698  68.822  1.00  0.00    -0.130 C  
BRANCH   4   6
HETATM    6  C   UNL     1      -9.126   8.940  66.442  1.00  0.00    -0.174 C  
BRANCH   6   7
HETATM    7  O   UNL     1      -7.823   8.355  66.632  1.00  0.00    -0.092 OA 
BRANCH   7   8
HETATM    8  C   UNL     1      -7.025   8.281  65.536  1.00  0.00    -0.066 C  
HETATM    9  H   UNL     1      -8.135   9.888  64.895  1.00  0.00     0.000 HD 
HETATM   10  O   UNL     1      -6.148   7.447  65.356  1.00  0.00    -0.037 OA 
HETATM   11  N   UNL     1      -7.341   9.286  64.675  1.00  0.00    -0.098 N  
BRANCH  11  12
HETATM   12  C   UNL     1      -6.592   9.534  63.455  1.00  0.00    -0.103 C  
HETATM   13  C   UNL     1      -5.449  10.507  63.708  1.00  0.00    -0.146 C  
HETATM   14  C   UNL     1      -7.512  10.055  62.352  1.00  0.00    -0.134 C  
ENDBRANCH  11  12
ENDBRANCH   7   8
ENDBRANCH   6   7
ENDBRANCH   4   6
BRANCH   4  15
HETATM   15  C   UNL     1     -10.402   7.834  68.336  1.00  0.00    -0.196 C  
BRANCH  15  16
HETATM   16  O   UNL     1     -10.909   8.003  69.671  1.00  0.00    -0.240 OA 
BRANCH  16  17
HETATM   17  C   UNL     1     -11.538   6.938  70.217  1.00  0.00    -0.311 C  
HETATM   18  O   UNL     1     -12.423   6.960  71.056  1.00  0.00    -0.382 OA 
HETATM   19  H1  UNL     1     -11.493   4.990  70.128  1.00  0.00     0.000 HD 
HETATM   20  N   UNL     1     -11.019   5.794  69.716  1.00  0.00    -0.363 N  
HETATM   21  H2  UNL     1     -10.266   5.743  69.030  1.00  0.00     0.000 HD 
ENDBRANCH  16  17
ENDBRANCH  15  16
ENDBRANCH   4  15
ENDBRANCH   3   4
ENDBRANCH   2   3
TORSDOF 9
ENDMDL
MODEL      246
REMARK 921   NORMALIZED FREE ENERGY PREDICTED BY IDOCK:   -2.06 KCAL/MOL
REMARK 922        TOTAL FREE ENERGY PREDICTED BY IDOCK:   -4.09 KCAL/MOL
REMARK 923 INTER-LIGAND FREE ENERGY PREDICTED BY IDOCK:   -3.28 KCAL/MOL
REMARK 924 INTRA-LIGAND FREE ENERGY PREDICTED BY IDOCK:   -0.81 KCAL/MOL
REMARK 927      BINDING AFFINITY PREDICTED BY RF-SCORE:    0.00 PKD
ROOT
HETATM    1  C   UNL     1     -11.023   8.743  71.982  1.00  0.00    -0.438 C  
HETATM    2  C   UNL     1     -11.101   7.336  71.405  1.00  0.00    -0.268 C  
ENDROOT
BRANCH   2   3
HETATM    3  C   UNL     1      -9.750   6.879  70.838  1.00  0.00    -0.183 C  
BRANCH   3   4
HETATM    4  C   UNL     1      -9.716   6.608  69.301  1.00  0.00    -0.151 C  
HETATM    5  C   UNL     1     -11.118   6.209  68.796  1.00  0.00    -0.398 C  
BRANCH   4   6
HETATM    6  C   UNL     1      -8.737   5.425  69.052  1.00  0.00    -0.101 C  
BRANCH   6   7
HETATM    7  O   UNL     1      -7.973   5.638  67.850  1.00  0.00    -0.096 OA 
BRANCH   7   8
HETATM    8  C   UNL     1      -8.280   4.851  66.787  1.00  0.00    -0.107 C  
HETATM    9  H   UNL     1      -6.942   3.549  67.650  1.00  0.00     0.000 HD 
HETATM   10  O   UNL     1      -9.048   5.150  65.884  1.00  0.00    -0.145 OA 
HETATM   11  N   UNL     1      -7.609   3.670  66.889  1.00  0.00    -0.079 N  
BRANCH  11  12
HETATM   12  C   UNL     1      -7.809   2.577  65.953  1.00  0.00    -0.081 C  
HETATM   13  C   UNL     1      -8.890   1.626  66.451  1.00  0.00    -0.120 C  
HETATM   14  C   UNL     1      -6.499   1.827  65.710  1.00  0.00    -0.023 C  
ENDBRANCH  11  12
ENDBRANCH   7   8
ENDBRANCH   6   7
ENDBRANCH   4   6
BRANCH   4  15
HETATM   15  C   UNL     1      -9.240   7.852  68.508  1.00  0.00    -0.138 C  
BRANCH  15  16
HETATM   16  O   UNL     1     -10.374   8.578  68.001  1.00  0.00    -0.211 OA 
BRANCH  16  17
HETATM   17  C   UNL     1     -10.461   9.881  68.353  1.00  0.00    -0.208 C  
HETATM   18  O   UNL     1      -9.800  10.457  69.200  1.00  0.00    -0.203 OA 
HETATM   19  H1  UNL     1     -11.502  11.467  67.901  1.00  0.00     0.000 HD 
HETATM   20  N   UNL     1     -11.436  10.484  67.636  1.00  0.00    -0.330 N  
HETATM   21  H2  UNL     1     -12.019  10.025  66.936  1.00  0.00     0.000 HD 
ENDBRANCH  16  17
ENDBRANCH  15  16
ENDBRANCH   4  15
ENDBRANCH   3   4
ENDBRANCH   2   3
TORSDOF 9
ENDMDL
MODEL      247
REMARK 921   NORMALIZED FREE ENERGY PREDICTED BY IDOCK:   -2.05 KCAL/MOL
REMARK 922        TOTAL FREE ENERGY PREDICTED BY IDOCK:   -4.08 KCAL/MOL
REMARK 923 INTER-LIGAND FREE ENERGY PREDICTED BY IDOCK:   -3.20 KCAL/MOL
REMARK 924 INTRA-LIGAND FREE ENERGY PREDICTED BY IDOCK:   -0.87 KCAL/MOL
REMARK 927      BINDING AFFINITY PREDICTED BY RF-SCORE:    0.00 PKD
ROOT
HETATM    1  C   UNL     1     -10.069  13.151  66.216  1.00  0.00    -0.285 C  
HETATM    2  C   UNL     1     -10.885  12.498  67.324  1.00  0.00    -0.277 C  
ENDROOT
BRANCH   2   3
HETATM    3  C   UNL     1     -10.036  11.526  68.156  1.00  0.00    -0.201 C  
BRANCH   3   4
HETATM    4  C   UNL     1     -10.819  10.370  68.855  1.00  0.00    -0.273 C  
HETATM    5  C   UNL     1     -12.283  10.787  69.102  1.00  0.00    -0.122 C  
BRANCH   4   6
HETATM    6  C   UNL     1     -10.136  10.100  70.226  1.00  0.00    -0.071 C  
BRANCH   6   7
HETATM    7  O   UNL     1      -8.739   9.793  70.051  1.00  0.00    -0.201 OA 
BRANCH   7   8
HETATM    8  C   UNL     1      -8.206   8.877  70.900  1.00  0.00    -0.175 C  
HETATM    9  H   UNL     1     -10.064   8.945  71.781  1.00  0.00     0.000 HD 
HETATM   10  O   UNL     1      -7.058   8.461  70.860  1.00  0.00    -0.048 OA 
HETATM   11  N   UNL     1      -9.153   8.485  71.796  1.00  0.00    -0.213 N  
BRANCH  11  12
HETATM   12  C   UNL     1      -8.916   7.436  72.773  1.00  0.00    -0.140 C  
HETATM   13  C   UNL     1     -10.225   6.958  73.386  1.00  0.00    -0.314 C  
HETATM   14  C   UNL     1      -7.953   7.916  73.858  1.00  0.00    -0.251 C  
ENDBRANCH  11  12
ENDBRANCH   7   8
ENDBRANCH   6   7
ENDBRANCH   4   6
BRANCH   4  15
HETATM   15  C   UNL     1     -10.810   9.073  68.006  1.00  0.00    -0.041 C  
BRANCH  15  16
HETATM   16  O   UNL     1      -9.834   9.178  66.955  1.00  0.00    -0.182 OA 
BRANCH  16  17
HETATM   17  C   UNL     1      -8.936   8.171  66.863  1.00  0.00    -0.140 C  
HETATM   18  O   UNL     1      -9.040   7.155  66.196  1.00  0.00    -0.166 OA 
HETATM   19  H1  UNL     1      -7.199   7.668  67.593  1.00  0.00     0.000 HD 
HETATM   20  N   UNL     1      -7.876   8.428  67.663  1.00  0.00    -0.106 N  
HETATM   21  H2  UNL     1      -7.770   9.257  68.247  1.00  0.00     0.000 HD 
ENDBRANCH  16  17
ENDBRANCH  15  16
ENDBRANCH   4  15
ENDBRANCH   3   4
ENDBRANCH   2   3
TORSDOF 9
ENDMDL
MODEL      248
REMARK 921   NORMALIZED FREE ENERGY PREDICTED BY IDOCK:   -2.01 KCAL/MOL
REMARK 922        TOTAL FREE ENERGY PREDICTED BY IDOCK:   -4.01 KCAL/MOL
REMARK 923 INTER-LIGAND FREE ENERGY PREDICTED BY IDOCK:   -4.04 KCAL/MOL
REMARK 924 INTRA-LIGAND FREE ENERGY PREDICTED BY IDOCK:    0.03 KCAL/MOL
REMARK 927      BINDING AFFINITY PREDICTED BY RF-SCORE:    0.00 PKD
ROOT
HETATM    1  C   UNL     1     -11.289  11.816  69.229  1.00  0.00    -0.348 C  
HETATM    2  C   UNL     1     -11.595  11.572  67.757  1.00  0.00    -0.338 C  
ENDROOT
BRANCH   2   3
HETATM    3  C   UNL     1     -10.350  11.766  66.880  1.00  0.00    -0.247 C  
BRANCH   3   4
HETATM    4  C   UNL     1      -9.811  10.482  66.175  1.00  0.00    -0.271 C  
HETATM    5  C   UNL     1     -10.164  10.506  64.673  1.00  0.00    -0.364 C  
BRANCH   4   6
HETATM    6  C   UNL     1     -10.505   9.255  66.833  1.00  0.00    -0.214 C  
BRANCH   6   7
HETATM    7  O   UNL     1      -9.593   8.145  66.937  1.00  0.00    -0.176 OA 
BRANCH   7   8
HETATM    8  C   UNL     1     -10.123   6.905  66.780  1.00  0.00    -0.194 C  
HETATM    9  H   UNL     1      -8.306   6.482  65.914  1.00  0.00     0.000 HD 
HETATM   10  O   UNL     1     -11.252   6.572  67.110  1.00  0.00    -0.388 OA 
HETATM   11  N   UNL     1      -9.198   6.085  66.211  1.00  0.00    -0.156 N  
BRANCH  11  12
HETATM   12  C   UNL     1      -9.433   4.665  66.008  1.00  0.00    -0.171 C  
HETATM   13  C   UNL     1     -10.673   4.436  65.154  1.00  0.00    -0.144 C  
HETATM   14  C   UNL     1      -9.558   3.942  67.349  1.00  0.00    -0.218 C  
ENDBRANCH  11  12
ENDBRANCH   7   8
ENDBRANCH   6   7
ENDBRANCH   4   6
BRANCH   4  15
HETATM   15  C   UNL     1      -8.274  10.348  66.320  1.00  0.00    -0.144 C  
BRANCH  15  16
HETATM   16  O   UNL     1      -7.696   9.911  65.077  1.00  0.00    -0.121 OA 
BRANCH  16  17
HETATM   17  C   UNL     1      -6.480  10.413  64.768  1.00  0.00    -0.059 C  
HETATM   18  O   UNL     1      -5.864  10.256  63.727  1.00  0.00    -0.133 OA 
HETATM   19  H1  UNL     1      -5.078  11.496  65.583  1.00  0.00     0.000 HD 
HETATM   20  N   UNL     1      -5.995  11.118  65.816  1.00  0.00    -0.358 N  
HETATM   21  H2  UNL     1      -6.476  11.250  66.706  1.00  0.00     0.000 HD 
ENDBRANCH  16  17
ENDBRANCH  15  16
ENDBRANCH   4  15
ENDBRANCH   3   4
ENDBRANCH   2   3
TORSDOF 9
ENDMDL
MODEL      249
REMARK 921   NORMALIZED FREE ENERGY PREDICTED BY IDOCK:   -2.00 KCAL/MOL
REMARK 922        TOTAL FREE ENERGY PREDICTED BY IDOCK:   -4.00 KCAL/MOL
REMARK 923 INTER-LIGAND FREE ENERGY PREDICTED BY IDOCK:   -3.47 KCAL/MOL
REMARK 924 INTRA-LIGAND FREE ENERGY PREDICTED BY IDOCK:   -0.53 KCAL/MOL
REMARK 927      BINDING AFFINITY PREDICTED BY RF-SCORE:    0.00 PKD
ROOT
HETATM    1  C   UNL     1     -12.939  10.534  70.682  1.00  0.00    -0.362 C  
HETATM    2  C   UNL     1     -11.662  11.046  70.029  1.00  0.00    -0.437 C  
ENDROOT
BRANCH   2   3
HETATM    3  C   UNL     1     -11.401  10.364  68.680  1.00  0.00    -0.277 C  
BRANCH   3   4
HETATM    4  C   UNL     1     -10.382   9.180  68.705  1.00  0.00    -0.233 C  
HETATM    5  C   UNL     1     -10.628   8.236  67.510  1.00  0.00    -0.291 C  
BRANCH   4   6
HETATM    6  C   UNL     1     -10.610   8.390  70.025  1.00  0.00    -0.235 C  
BRANCH   6   7
HETATM    7  O   UNL     1     -10.391   6.981  69.822  1.00  0.00    -0.200 OA 
BRANCH   7   8
HETATM    8  C   UNL     1      -9.463   6.389  70.617  1.00  0.00    -0.165 C  
HETATM    9  H   UNL     1     -11.108   5.624  71.586  1.00  0.00     0.000 HD 
HETATM   10  O   UNL     1      -8.252   6.522  70.510  1.00  0.00    -0.115 OA 
HETATM   11  N   UNL     1     -10.089   5.612  71.544  1.00  0.00    -0.194 N  
BRANCH  11  12
HETATM   12  C   UNL     1      -9.360   4.769  72.476  1.00  0.00    -0.131 C  
HETATM   13  C   UNL     1      -9.921   3.353  72.480  1.00  0.00    -0.228 C  
HETATM   14  C   UNL     1      -9.389   5.367  73.883  1.00  0.00    -0.133 C  
ENDBRANCH  11  12
ENDBRANCH   7   8
ENDBRANCH   6   7
ENDBRANCH   4   6
BRANCH   4  15
HETATM   15  C   UNL     1      -8.917   9.681  68.646  1.00  0.00    -0.129 C  
BRANCH  15  16
HETATM   16  O   UNL     1      -8.415   9.586  67.301  1.00  0.00    -0.126 OA 
BRANCH  16  17
HETATM   17  C   UNL     1      -7.226   8.963  67.144  1.00  0.00    -0.083 C  
HETATM   18  O   UNL     1      -6.560   8.901  66.124  1.00  0.00    -0.064 OA 
HETATM   19  H1  UNL     1      -5.969   7.894  68.183  1.00  0.00     0.000 HD 
HETATM   20  N   UNL     1      -6.866   8.364  68.302  1.00  0.00    -0.065 N  
HETATM   21  H2  UNL     1      -7.410   8.381  69.164  1.00  0.00     0.000 HD 
ENDBRANCH  16  17
ENDBRANCH  15  16
ENDBRANCH   4  15
ENDBRANCH   3   4
ENDBRANCH   2   3
TORSDOF 9
ENDMDL
MODEL      250
REMARK 921   NORMALIZED FREE ENERGY PREDICTED BY IDOCK:   -1.99 KCAL/MOL
REMARK 922        TOTAL FREE ENERGY PREDICTED BY IDOCK:   -3.98 KCAL/MOL
REMARK 923 INTER-LIGAND FREE ENERGY PREDICTED BY IDOCK:   -3.77 KCAL/MOL
REMARK 924 INTRA-LIGAND FREE ENERGY PREDICTED BY IDOCK:   -0.22 KCAL/MOL
REMARK 927      BINDING AFFINITY PREDICTED BY RF-SCORE:    0.00 PKD
ROOT
HETATM    1  C   UNL     1     -10.331   4.168  64.913  1.00  0.00    -0.210 C  
HETATM    2  C   UNL     1      -9.903   4.647  66.294  1.00  0.00    -0.241 C  
ENDROOT
BRANCH   2   3
HETATM    3  C   UNL     1      -9.236   6.027  66.235  1.00  0.00    -0.168 C  
BRANCH   3   4
HETATM    4  C   UNL     1      -9.728   7.065  67.292  1.00  0.00    -0.189 C  
HETATM    5  C   UNL     1     -11.021   6.567  67.970  1.00  0.00    -0.368 C  
BRANCH   4   6
HETATM    6  C   UNL     1     -10.033   8.394  66.543  1.00  0.00    -0.265 C  
BRANCH   6   7
HETATM    7  O   UNL     1     -10.483   9.407  67.462  1.00  0.00    -0.248 OA 
BRANCH   7   8
HETATM    8  C   UNL     1     -10.587  10.669  66.972  1.00  0.00    -0.262 C  
HETATM    9  H   UNL     1     -10.191  11.216  68.914  1.00  0.00     0.000 HD 
HETATM   10  O   UNL     1     -10.852  10.958  65.813  1.00  0.00    -0.169 OA 
HETATM   11  N   UNL     1     -10.338  11.564  67.967  1.00  0.00    -0.184 N  
BRANCH  11  12
HETATM   12  C   UNL     1     -10.274  12.996  67.730  1.00  0.00    -0.228 C  
HETATM   13  C   UNL     1      -8.956  13.571  68.232  1.00  0.00    -0.180 C  
HETATM   14  C   UNL     1     -11.458  13.706  68.386  1.00  0.00    -0.346 C  
ENDBRANCH  11  12
ENDBRANCH   7   8
ENDBRANCH   6   7
ENDBRANCH   4   6
BRANCH   4  15
HETATM   15  C   UNL     1      -8.662   7.320  68.388  1.00  0.00    -0.122 C  
BRANCH  15  16
HETATM   16  O   UNL     1      -9.288   7.836  69.576  1.00  0.00    -0.150 OA 
BRANCH  16  17
HETATM   17  C   UNL     1      -9.151   7.096  70.699  1.00  0.00    -0.158 C  
HETATM   18  O   UNL     1      -9.659   7.314  71.786  1.00  0.00    -0.151 OA 
HETATM   19  H1  UNL     1      -8.217   5.498  71.312  1.00  0.00     0.000 HD 
HETATM   20  N   UNL     1      -8.320   6.056  70.464  1.00  0.00    -0.126 N  
HETATM   21  H2  UNL     1      -7.864   5.859  69.573  1.00  0.00     0.000 HD 
ENDBRANCH  16  17
ENDBRANCH  15  16
ENDBRANCH   4  15
ENDBRANCH   3   4
ENDBRANCH   2   3
TORSDOF 9
ENDMDL
MODEL      251
REMARK 921   NORMALIZED FREE ENERGY PREDICTED BY IDOCK:   -1.96 KCAL/MOL
REMARK 922        TOTAL FREE ENERGY PREDICTED BY IDOCK:   -3.95 KCAL/MOL
REMARK 923 INTER-LIGAND FREE ENERGY PREDICTED BY IDOCK:   -3.32 KCAL/MOL
REMARK 924 INTRA-LIGAND FREE ENERGY PREDICTED BY IDOCK:   -0.63 KCAL/MOL
REMARK 927      BINDING AFFINITY PREDICTED BY RF-SCORE:    0.00 PKD
ROOT
HETATM    1  C   UNL     1      -9.510  14.970  66.328  1.00  0.00    -0.342 C  
HETATM    2  C   UNL     1      -9.590  14.096  67.573  1.00  0.00    -0.223 C  
ENDROOT
BRANCH   2   3
HETATM    3  C   UNL     1      -8.551  12.967  67.541  1.00  0.00    -0.188 C  
BRANCH   3   4
HETATM    4  C   UNL     1      -9.121  11.528  67.337  1.00  0.00    -0.166 C  
HETATM    5  C   UNL     1     -10.663  11.556  67.337  1.00  0.00    -0.275 C  
BRANCH   4   6
HETATM    6  C   UNL     1      -8.635  10.655  68.530  1.00  0.00    -0.137 C  
BRANCH   6   7
HETATM    7  O   UNL     1      -8.891   9.259  68.280  1.00  0.00    -0.128 OA 
BRANCH   7   8
HETATM    8  C   UNL     1      -9.414   8.543  69.309  1.00  0.00    -0.158 C  
HETATM    9  H   UNL     1      -8.406   6.978  68.437  1.00  0.00     0.000 HD 
HETATM   10  O   UNL     1     -10.157   8.987  70.173  1.00  0.00    -0.177 OA 
HETATM   11  N   UNL     1      -8.972   7.258  69.238  1.00  0.00    -0.136 N  
BRANCH  11  12
HETATM   12  C   UNL     1      -9.277   6.270  70.259  1.00  0.00    -0.157 C  
HETATM   13  C   UNL     1      -8.082   5.359  70.507  1.00  0.00    -0.106 C  
HETATM   14  C   UNL     1     -10.509   5.454  69.870  1.00  0.00    -0.378 C  
ENDBRANCH  11  12
ENDBRANCH   7   8
ENDBRANCH   6   7
ENDBRANCH   4   6
BRANCH   4  15
HETATM   15  C   UNL     1      -8.638  10.901  66.004  1.00  0.00    -0.177 C  
BRANCH  15  16
HETATM   16  O   UNL     1      -7.203  10.951  65.926  1.00  0.00    -0.123 OA 
BRANCH  16  17
HETATM   17  C   UNL     1      -6.621  10.153  65.003  1.00  0.00    -0.128 C  
HETATM   18  O   UNL     1      -5.639   9.447  65.159  1.00  0.00    -0.051 OA 
HETATM   19  H1  UNL     1      -6.836   9.661  63.128  1.00  0.00     0.000 HD 
HETATM   20  N   UNL     1      -7.275  10.264  63.824  1.00  0.00    -0.263 N  
HETATM   21  H2  UNL     1      -8.085  10.860  63.657  1.00  0.00     0.000 HD 
ENDBRANCH  16  17
ENDBRANCH  15  16
ENDBRANCH   4  15
ENDBRANCH   3   4
ENDBRANCH   2   3
TORSDOF 9
ENDMDL
MODEL      252
REMARK 921   NORMALIZED FREE ENERGY PREDICTED BY IDOCK:   -1.94 KCAL/MOL
REMARK 922        TOTAL FREE ENERGY PREDICTED BY IDOCK:   -3.91 KCAL/MOL
REMARK 923 INTER-LIGAND FREE ENERGY PREDICTED BY IDOCK:   -3.70 KCAL/MOL
REMARK 924 INTRA-LIGAND FREE ENERGY PREDICTED BY IDOCK:   -0.20 KCAL/MOL
REMARK 927      BINDING AFFINITY PREDICTED BY RF-SCORE:    0.00 PKD
ROOT
HETATM    1  C   UNL     1      -7.327  11.189  67.154  1.00  0.00    -0.121 C  
HETATM    2  C   UNL     1      -7.668  10.259  65.997  1.00  0.00    -0.130 C  
ENDROOT
BRANCH   2   3
HETATM    3  C   UNL     1      -7.680   8.789  66.436  1.00  0.00    -0.099 C  
BRANCH   3   4
HETATM    4  C   UNL     1      -9.065   8.225  66.881  1.00  0.00    -0.181 C  
HETATM    5  C   UNL     1     -10.192   9.207  66.501  1.00  0.00    -0.322 C  
BRANCH   4   6
HETATM    6  C   UNL     1      -9.036   8.069  68.429  1.00  0.00    -0.136 C  
BRANCH   6   7
HETATM    7  O   UNL     1     -10.096   7.202  68.876  1.00  0.00    -0.167 OA 
BRANCH   7   8
HETATM    8  C   UNL     1     -10.877   7.666  69.885  1.00  0.00    -0.235 C  
HETATM    9  H   UNL     1     -11.136   5.669  70.303  1.00  0.00     0.000 HD 
HETATM   10  O   UNL     1     -11.115   8.844  70.110  1.00  0.00    -0.242 OA 
HETATM   11  N   UNL     1     -11.343   6.617  70.617  1.00  0.00    -0.323 N  
BRANCH  11  12
HETATM   12  C   UNL     1     -12.125   6.798  71.828  1.00  0.00    -0.350 C  
HETATM   13  C   UNL     1     -13.524   7.304  71.501  1.00  0.00    -0.439 C  
HETATM   14  C   UNL     1     -11.418   7.750  72.792  1.00  0.00    -0.415 C  
ENDBRANCH  11  12
ENDBRANCH   7   8
ENDBRANCH   6   7
ENDBRANCH   4   6
BRANCH   4  15
HETATM   15  C   UNL     1      -9.365   6.851  66.227  1.00  0.00    -0.099 C  
BRANCH  15  16
HETATM   16  O   UNL     1      -8.204   6.005  66.302  1.00  0.00    -0.112 OA 
BRANCH  16  17
HETATM   17  C   UNL     1      -8.257   4.988  67.190  1.00  0.00    -0.107 C  
HETATM   18  O   UNL     1      -7.311   4.420  67.711  1.00  0.00    -0.067 OA 
HETATM   19  H1  UNL     1      -9.584   3.876  68.088  1.00  0.00     0.000 HD 
HETATM   20  N   UNL     1      -9.545   4.643  67.417  1.00  0.00    -0.157 N  
HETATM   21  H2  UNL     1     -10.355   5.085  66.982  1.00  0.00     0.000 HD 
ENDBRANCH  16  17
ENDBRANCH  15  16
ENDBRANCH   4  15
ENDBRANCH   3   4
ENDBRANCH   2   3
TORSDOF 9
ENDMDL
MODEL      253
REMARK 921   NORMALIZED FREE ENERGY PREDICTED BY IDOCK:   -1.91 KCAL/MOL
REMARK 922        TOTAL FREE ENERGY PREDICTED BY IDOCK:   -3.87 KCAL/MOL
REMARK 923 INTER-LIGAND FREE ENERGY PREDICTED BY IDOCK:   -3.90 KCAL/MOL
REMARK 924 INTRA-LIGAND FREE ENERGY PREDICTED BY IDOCK:    0.03 KCAL/MOL
REMARK 927      BINDING AFFINITY PREDICTED BY RF-SCORE:    0.00 PKD
ROOT
HETATM    1  C   UNL     1     -11.507  12.618  68.407  1.00  0.00    -0.350 C  
HETATM    2  C   UNL     1     -11.636  11.639  67.248  1.00  0.00    -0.316 C  
ENDROOT
BRANCH   2   3
HETATM    3  C   UNL     1     -10.280  11.368  66.581  1.00  0.00    -0.258 C  
BRANCH   3   4
HETATM    4  C   UNL     1      -9.693   9.937  66.796  1.00  0.00    -0.244 C  
HETATM    5  C   UNL     1      -9.824   9.104  65.504  1.00  0.00    -0.064 C  
BRANCH   4   6
HETATM    6  C   UNL     1     -10.521   9.252  67.921  1.00  0.00    -0.236 C  
BRANCH   6   7
HETATM    7  O   UNL     1      -9.843   9.354  69.188  1.00  0.00    -0.165 OA 
BRANCH   7   8
HETATM    8  C   UNL     1     -10.147   8.412  70.118  1.00  0.00    -0.191 C  
HETATM    9  H   UNL     1      -9.223   9.714  71.413  1.00  0.00     0.000 HD 
HETATM   10  O   UNL     1     -10.709   7.350  69.891  1.00  0.00    -0.235 OA 
HETATM   11  N   UNL     1      -9.741   8.838  71.345  1.00  0.00    -0.253 N  
BRANCH  11  12
HETATM   12  C   UNL     1     -10.019   8.093  72.561  1.00  0.00    -0.302 C  
HETATM   13  C   UNL     1      -9.234   6.789  72.590  1.00  0.00    -0.151 C  
HETATM   14  C   UNL     1     -11.517   7.826  72.702  1.00  0.00    -0.430 C  
ENDBRANCH  11  12
ENDBRANCH   7   8
ENDBRANCH   6   7
ENDBRANCH   4   6
BRANCH   4  15
HETATM   15  C   UNL     1      -8.199   9.983  67.205  1.00  0.00    -0.117 C  
BRANCH  15  16
HETATM   16  O   UNL     1      -7.366   9.996  66.033  1.00  0.00    -0.102 OA 
BRANCH  16  17
HETATM   17  C   UNL     1      -6.127  10.518  66.179  1.00  0.00    -0.110 C  
HETATM   18  O   UNL     1      -5.463  10.553  67.201  1.00  0.00    -0.040 OA 
HETATM   19  H1  UNL     1      -4.778  11.441  65.116  1.00  0.00     0.000 HD 
HETATM   20  N   UNL     1      -5.712  11.048  65.006  1.00  0.00    -0.340 N  
HETATM   21  H2  UNL     1      -6.252  11.052  64.141  1.00  0.00     0.000 HD 
ENDBRANCH  16  17
ENDBRANCH  15  16
ENDBRANCH   4  15
ENDBRANCH   3   4
ENDBRANCH   2   3
TORSDOF 9
ENDMDL
MODEL      254
REMARK 921   NORMALIZED FREE ENERGY PREDICTED BY IDOCK:   -1.89 KCAL/MOL
REMARK 922        TOTAL FREE ENERGY PREDICTED BY IDOCK:   -3.83 KCAL/MOL
REMARK 923 INTER-LIGAND FREE ENERGY PREDICTED BY IDOCK:   -3.80 KCAL/MOL
REMARK 924 INTRA-LIGAND FREE ENERGY PREDICTED BY IDOCK:   -0.03 KCAL/MOL
REMARK 927      BINDING AFFINITY PREDICTED BY RF-SCORE:    0.00 PKD
ROOT
HETATM    1  C   UNL     1      -5.974  19.869  68.565  1.00  0.00    -0.277 C  
HETATM    2  C   UNL     1      -5.156  18.605  68.793  1.00  0.00    -0.182 C  
ENDROOT
BRANCH   2   3
HETATM    3  C   UNL     1      -5.497  17.515  67.768  1.00  0.00    -0.138 C  
BRANCH   3   4
HETATM    4  C   UNL     1      -6.938  16.922  67.862  1.00  0.00    -0.158 C  
HETATM    5  C   UNL     1      -7.440  16.964  69.320  1.00  0.00    -0.116 C  
BRANCH   4   6
HETATM    6  C   UNL     1      -6.869  15.438  67.398  1.00  0.00    -0.170 C  
BRANCH   6   7
HETATM    7  O   UNL     1      -7.170  14.546  68.488  1.00  0.00    -0.106 OA 
BRANCH   7   8
HETATM    8  C   UNL     1      -8.271  13.764  68.348  1.00  0.00    -0.151 C  
HETATM    9  H   UNL     1      -9.254  15.564  68.195  1.00  0.00     0.000 HD 
HETATM   10  O   UNL     1      -8.279  12.542  68.386  1.00  0.00    -0.161 OA 
HETATM   11  N   UNL     1      -9.363  14.551  68.144  1.00  0.00    -0.191 N  
BRANCH  11  12
HETATM   12  C   UNL     1     -10.677  14.001  67.857  1.00  0.00    -0.240 C  
HETATM   13  C   UNL     1     -10.788  13.597  66.393  1.00  0.00    -0.290 C  
HETATM   14  C   UNL     1     -11.773  15.000  68.227  1.00  0.00    -0.338 C  
ENDBRANCH  11  12
ENDBRANCH   7   8
ENDBRANCH   6   7
ENDBRANCH   4   6
BRANCH   4  15
HETATM   15  C   UNL     1      -7.939  17.699  66.970  1.00  0.00    -0.220 C  
BRANCH  15  16
HETATM   16  O   UNL     1      -9.067  18.129  67.753  1.00  0.00    -0.257 OA 
BRANCH  16  17
HETATM   17  C   UNL     1     -10.058  18.762  67.086  1.00  0.00    -0.354 C  
HETATM   18  O   UNL     1      -9.980  19.296  65.992  1.00  0.00    -0.385 OA 
HETATM   19  H1  UNL     1     -11.935  19.234  67.325  1.00  0.00     0.000 HD 
HETATM   20  N   UNL     1     -11.188  18.756  67.829  1.00  0.00    -0.063 N  
HETATM   21  H2  UNL     1     -11.278  18.336  68.754  1.00  0.00     0.000 HD 
ENDBRANCH  16  17
ENDBRANCH  15  16
ENDBRANCH   4  15
ENDBRANCH   3   4
ENDBRANCH   2   3
TORSDOF 9
ENDMDL
MODEL      255
REMARK 921   NORMALIZED FREE ENERGY PREDICTED BY IDOCK:   -1.88 KCAL/MOL
REMARK 922        TOTAL FREE ENERGY PREDICTED BY IDOCK:   -3.81 KCAL/MOL
REMARK 923 INTER-LIGAND FREE ENERGY PREDICTED BY IDOCK:   -3.80 KCAL/MOL
REMARK 924 INTRA-LIGAND FREE ENERGY PREDICTED BY IDOCK:   -0.01 KCAL/MOL
REMARK 927      BINDING AFFINITY PREDICTED BY RF-SCORE:    0.00 PKD
ROOT
HETATM    1  C   UNL     1      -5.754  19.817  68.145  1.00  0.00    -0.238 C  
HETATM    2  C   UNL     1      -5.313  18.848  69.234  1.00  0.00    -0.204 C  
ENDROOT
BRANCH   2   3
HETATM    3  C   UNL     1      -5.288  17.399  68.729  1.00  0.00    -0.153 C  
BRANCH   3   4
HETATM    4  C   UNL     1      -6.633  16.860  68.148  1.00  0.00    -0.148 C  
HETATM    5  C   UNL     1      -6.703  17.121  66.630  1.00  0.00    -0.277 C  
BRANCH   4   6
HETATM    6  C   UNL     1      -7.791  17.632  68.844  1.00  0.00    -0.186 C  
BRANCH   6   7
HETATM    7  O   UNL     1      -8.649  18.256  67.869  1.00  0.00    -0.249 OA 
BRANCH   7   8
HETATM    8  C   UNL     1      -9.982  18.034  68.002  1.00  0.00    -0.343 C  
HETATM    9  H   UNL     1      -9.438  16.055  67.875  1.00  0.00     0.000 HD 
HETATM   10  O   UNL     1     -10.837  18.903  68.097  1.00  0.00    -0.214 OA 
HETATM   11  N   UNL     1     -10.219  16.694  68.027  1.00  0.00    -0.268 N  
BRANCH  11  12
HETATM   12  C   UNL     1     -11.541  16.139  68.263  1.00  0.00    -0.181 C  
HETATM   13  C   UNL     1     -11.725  15.779  69.731  1.00  0.00    -0.355 C  
HETATM   14  C   UNL     1     -11.782  14.921  67.372  1.00  0.00    -0.311 C  
ENDBRANCH  11  12
ENDBRANCH   7   8
ENDBRANCH   6   7
ENDBRANCH   4   6
BRANCH   4  15
HETATM   15  C   UNL     1      -6.800  15.339  68.397  1.00  0.00    -0.112 C  
BRANCH  15  16
HETATM   16  O   UNL     1      -7.231  14.686  67.191  1.00  0.00    -0.146 OA 
BRANCH  16  17
HETATM   17  C   UNL     1      -7.958  13.556  67.344  1.00  0.00    -0.156 C  
HETATM   18  O   UNL     1      -8.793  13.112  66.575  1.00  0.00    -0.124 OA 
HETATM   19  H1  UNL     1      -8.198  12.118  68.640  1.00  0.00     0.000 HD 
HETATM   20  N   UNL     1      -7.650  12.970  68.524  1.00  0.00    -0.135 N  
HETATM   21  H2  UNL     1      -6.972  13.328  69.197  1.00  0.00     0.000 HD 
ENDBRANCH  16  17
ENDBRANCH  15  16
ENDBRANCH   4  15
ENDBRANCH   3   4
ENDBRANCH   2   3
TORSDOF 9
ENDMDL
MODEL      256
REMARK 921   NORMALIZED FREE ENERGY PREDICTED BY IDOCK:   -1.80 KCAL/MOL
REMARK 922        TOTAL FREE ENERGY PREDICTED BY IDOCK:   -3.70 KCAL/MOL
REMARK 923 INTER-LIGAND FREE ENERGY PREDICTED BY IDOCK:   -3.11 KCAL/MOL
REMARK 924 INTRA-LIGAND FREE ENERGY PREDICTED BY IDOCK:   -0.59 KCAL/MOL
REMARK 927      BINDING AFFINITY PREDICTED BY RF-SCORE:    0.00 PKD
ROOT
HETATM    1  C   UNL     1     -10.296   3.861  64.518  1.00  0.00    -0.231 C  
HETATM    2  C   UNL     1      -9.860   4.170  65.944  1.00  0.00    -0.206 C  
ENDROOT
BRANCH   2   3
HETATM    3  C   UNL     1      -9.026   5.456  66.017  1.00  0.00    -0.147 C  
BRANCH   3   4
HETATM    4  C   UNL     1      -9.517   6.526  67.042  1.00  0.00    -0.161 C  
HETATM    5  C   UNL     1     -11.058   6.557  67.087  1.00  0.00    -0.434 C  
BRANCH   4   6
HETATM    6  C   UNL     1      -9.000   7.912  66.561  1.00  0.00    -0.161 C  
BRANCH   6   7
HETATM    7  O   UNL     1     -10.092   8.738  66.113  1.00  0.00    -0.269 OA 
BRANCH   7   8
HETATM    8  C   UNL     1      -9.857  10.074  66.048  1.00  0.00    -0.257 C  
HETATM    9  H   UNL     1      -8.353   9.648  67.384  1.00  0.00     0.000 HD 
HETATM   10  O   UNL     1     -10.503  10.874  65.386  1.00  0.00    -0.265 OA 
HETATM   11  N   UNL     1      -8.780  10.384  66.822  1.00  0.00    -0.127 N  
BRANCH  11  12
HETATM   12  C   UNL     1      -8.219  11.722  66.877  1.00  0.00    -0.166 C  
HETATM   13  C   UNL     1      -6.710  11.671  67.076  1.00  0.00    -0.145 C  
HETATM   14  C   UNL     1      -8.882  12.541  67.984  1.00  0.00    -0.187 C  
ENDBRANCH  11  12
ENDBRANCH   7   8
ENDBRANCH   6   7
ENDBRANCH   4   6
BRANCH   4  15
HETATM   15  C   UNL     1      -8.986   6.241  68.470  1.00  0.00    -0.123 C  
BRANCH  15  16
HETATM   16  O   UNL     1      -7.714   5.573  68.400  1.00  0.00    -0.083 OA 
BRANCH  16  17
HETATM   17  C   UNL     1      -7.124   5.276  69.579  1.00  0.00    -0.060 C  
HETATM   18  O   UNL     1      -6.909   6.040  70.505  1.00  0.00    -0.051 OA 
HETATM   19  H1  UNL     1      -6.312   3.750  70.482  1.00  0.00     0.000 HD 
HETATM   20  N   UNL     1      -6.757   3.974  69.593  1.00  0.00    -0.036 N  
HETATM   21  H2  UNL     1      -6.904   3.316  68.828  1.00  0.00     0.000 HD 
ENDBRANCH  16  17
ENDBRANCH  15  16
ENDBRANCH   4  15
ENDBRANCH   3   4
ENDBRANCH   2   3
TORSDOF 9
ENDMDL
MODEL      257
REMARK 921   NORMALIZED FREE ENERGY PREDICTED BY IDOCK:   -1.71 KCAL/MOL
REMARK 922        TOTAL FREE ENERGY PREDICTED BY IDOCK:   -3.55 KCAL/MOL
REMARK 923 INTER-LIGAND FREE ENERGY PREDICTED BY IDOCK:   -3.69 KCAL/MOL
REMARK 924 INTRA-LIGAND FREE ENERGY PREDICTED BY IDOCK:    0.13 KCAL/MOL
REMARK 927      BINDING AFFINITY PREDICTED BY RF-SCORE:    0.00 PKD
ROOT
HETATM    1  C   UNL     1      -7.607   6.789  65.974  1.00  0.00    -0.086 C  
HETATM    2  C   UNL     1      -8.655   7.821  65.578  1.00  0.00    -0.126 C  
ENDROOT
BRANCH   2   3
HETATM    3  C   UNL     1      -8.809   8.912  66.646  1.00  0.00    -0.150 C  
BRANCH   3   4
HETATM    4  C   UNL     1     -10.059   8.782  67.572  1.00  0.00    -0.281 C  
HETATM    5  C   UNL     1     -10.804   7.463  67.286  1.00  0.00    -0.326 C  
BRANCH   4   6
HETATM    6  C   UNL     1     -11.008   9.974  67.253  1.00  0.00    -0.156 C  
BRANCH   6   7
HETATM    7  O   UNL     1     -10.404  11.225  67.632  1.00  0.00    -0.177 OA 
BRANCH   7   8
HETATM    8  C   UNL     1     -10.909  12.344  67.053  1.00  0.00    -0.246 C  
HETATM    9  H   UNL     1      -9.334  13.272  67.995  1.00  0.00     0.000 HD 
HETATM   10  O   UNL     1     -11.915  12.389  66.360  1.00  0.00    -0.559 OA 
HETATM   11  N   UNL     1     -10.115  13.408  67.354  1.00  0.00    -0.235 N  
BRANCH  11  12
HETATM   12  C   UNL     1     -10.338  14.731  66.795  1.00  0.00    -0.268 C  
HETATM   13  C   UNL     1     -11.640  15.327  67.313  1.00  0.00    -0.164 C  
HETATM   14  C   UNL     1     -10.337  14.679  65.267  1.00  0.00    -0.425 C  
ENDBRANCH  11  12
ENDBRANCH   7   8
ENDBRANCH   6   7
ENDBRANCH   4   6
BRANCH   4  15
HETATM   15  C   UNL     1      -9.670   8.816  69.072  1.00  0.00    -0.172 C  
BRANCH  15  16
HETATM   16  O   UNL     1      -8.443   9.545  69.248  1.00  0.00    -0.123 OA 
BRANCH  16  17
HETATM   17  C   UNL     1      -7.494   8.955  70.008  1.00  0.00    -0.057 C  
HETATM   18  O   UNL     1      -7.535   8.761  71.211  1.00  0.00    -0.094 OA 
HETATM   19  H1  UNL     1      -5.718   8.173  69.812  1.00  0.00     0.000 HD 
HETATM   20  N   UNL     1      -6.434   8.619  69.238  1.00  0.00    -0.042 N  
HETATM   21  H2  UNL     1      -6.362   8.786  68.235  1.00  0.00     0.000 HD 
ENDBRANCH  16  17
ENDBRANCH  15  16
ENDBRANCH   4  15
ENDBRANCH   3   4
ENDBRANCH   2   3
TORSDOF 9
ENDMDL
MODEL      258
REMARK 921   NORMALIZED FREE ENERGY PREDICTED BY IDOCK:   -1.70 KCAL/MOL
REMARK 922        TOTAL FREE ENERGY PREDICTED BY IDOCK:   -3.54 KCAL/MOL
REMARK 923 INTER-LIGAND FREE ENERGY PREDICTED BY IDOCK:   -2.92 KCAL/MOL
REMARK 924 INTRA-LIGAND FREE ENERGY PREDICTED BY IDOCK:   -0.63 KCAL/MOL
REMARK 927      BINDING AFFINITY PREDICTED BY RF-SCORE:    0.00 PKD
ROOT
HETATM    1  C   UNL     1     -10.322   3.842  64.539  1.00  0.00    -0.231 C  
HETATM    2  C   UNL     1      -9.887   4.254  65.939  1.00  0.00    -0.230 C  
ENDROOT
BRANCH   2   3
HETATM    3  C   UNL     1      -9.114   5.580  65.926  1.00  0.00    -0.163 C  
BRANCH   3   4
HETATM    4  C   UNL     1      -9.637   6.680  66.902  1.00  0.00    -0.194 C  
HETATM    5  C   UNL     1     -11.144   6.488  67.168  1.00  0.00    -0.434 C  
BRANCH   4   6
HETATM    6  C   UNL     1      -9.419   8.060  66.219  1.00  0.00    -0.172 C  
BRANCH   6   7
HETATM    7  O   UNL     1      -8.695   8.952  67.087  1.00  0.00    -0.119 OA 
BRANCH   7   8
HETATM    8  C   UNL     1      -7.900   9.875  66.486  1.00  0.00    -0.110 C  
HETATM    9  H   UNL     1      -7.757   8.456  65.004  1.00  0.00     0.000 HD 
HETATM   10  O   UNL     1      -7.600  10.963  66.956  1.00  0.00    -0.110 OA 
HETATM   11  N   UNL     1      -7.500   9.406  65.272  1.00  0.00    -0.098 N  
BRANCH  11  12
HETATM   12  C   UNL     1      -6.722  10.208  64.344  1.00  0.00    -0.110 C  
HETATM   13  C   UNL     1      -7.058   9.850  62.902  1.00  0.00    -0.121 C  
HETATM   14  C   UNL     1      -5.226  10.042  64.608  1.00  0.00    -0.080 C  
ENDBRANCH  11  12
ENDBRANCH   7   8
ENDBRANCH   6   7
ENDBRANCH   4   6
BRANCH   4  15
HETATM   15  C   UNL     1      -8.888   6.648  68.259  1.00  0.00    -0.124 C  
BRANCH  15  16
HETATM   16  O   UNL     1      -9.717   6.046  69.268  1.00  0.00    -0.136 OA 
BRANCH  16  17
HETATM   17  C   UNL     1      -9.312   6.194  70.549  1.00  0.00    -0.161 C  
HETATM   18  O   UNL     1      -8.209   5.939  71.003  1.00  0.00    -0.118 OA 
HETATM   19  H1  UNL     1     -10.031   6.763  72.270  1.00  0.00     0.000 HD 
HETATM   20  N   UNL     1     -10.337   6.652  71.304  1.00  0.00    -0.204 N  
HETATM   21  H2  UNL     1     -11.275   6.854  70.957  1.00  0.00     0.000 HD 
ENDBRANCH  16  17
ENDBRANCH  15  16
ENDBRANCH   4  15
ENDBRANCH   3   4
ENDBRANCH   2   3
TORSDOF 9
ENDMDL
MODEL      259
REMARK 921   NORMALIZED FREE ENERGY PREDICTED BY IDOCK:   -1.70 KCAL/MOL
REMARK 922        TOTAL FREE ENERGY PREDICTED BY IDOCK:   -3.54 KCAL/MOL
REMARK 923 INTER-LIGAND FREE ENERGY PREDICTED BY IDOCK:   -2.87 KCAL/MOL
REMARK 924 INTRA-LIGAND FREE ENERGY PREDICTED BY IDOCK:   -0.67 KCAL/MOL
REMARK 927      BINDING AFFINITY PREDICTED BY RF-SCORE:    0.00 PKD
ROOT
HETATM    1  C   UNL     1     -10.901  10.753  65.782  1.00  0.00    -0.076 C  
HETATM    2  C   UNL     1     -10.648   9.592  66.734  1.00  0.00    -0.208 C  
ENDROOT
BRANCH   2   3
HETATM    3  C   UNL     1      -9.318   9.752  67.484  1.00  0.00    -0.152 C  
BRANCH   3   4
HETATM    4  C   UNL     1      -8.778   8.468  68.188  1.00  0.00    -0.142 C  
HETATM    5  C   UNL     1      -7.354   8.144  67.694  1.00  0.00    -0.093 C  
BRANCH   4   6
HETATM    6  C   UNL     1      -9.721   7.290  67.810  1.00  0.00    -0.140 C  
BRANCH   6   7
HETATM    7  O   UNL     1      -9.035   6.330  66.984  1.00  0.00    -0.113 OA 
BRANCH   7   8
HETATM    8  C   UNL     1      -9.407   5.032  67.122  1.00  0.00    -0.125 C  
HETATM    9  H   UNL     1      -8.278   5.124  68.838  1.00  0.00     0.000 HD 
HETATM   10  O   UNL     1     -10.101   4.408  66.332  1.00  0.00    -0.232 OA 
HETATM   11  N   UNL     1      -8.899   4.536  68.284  1.00  0.00    -0.103 N  
BRANCH  11  12
HETATM   12  C   UNL     1      -9.209   3.199  68.762  1.00  0.00    -0.164 C  
HETATM   13  C   UNL     1      -9.323   3.180  70.281  1.00  0.00    -0.236 C  
HETATM   14  C   UNL     1      -8.158   2.197  68.286  1.00  0.00    -0.068 C  
ENDBRANCH  11  12
ENDBRANCH   7   8
ENDBRANCH   6   7
ENDBRANCH   4   6
BRANCH   4  15
HETATM   15  C   UNL     1      -8.742   8.629  69.730  1.00  0.00    -0.132 C  
BRANCH  15  16
HETATM   16  O   UNL     1      -9.215   7.428  70.363  1.00  0.00    -0.157 OA 
BRANCH  16  17
HETATM   17  C   UNL     1     -10.165   7.581  71.313  1.00  0.00    -0.188 C  
HETATM   18  O   UNL     1     -10.276   8.511  72.095  1.00  0.00    -0.286 OA 
HETATM   19  H1  UNL     1     -11.710   6.628  72.025  1.00  0.00     0.000 HD 
HETATM   20  N   UNL     1     -10.994   6.513  71.308  1.00  0.00    -0.251 N  
HETATM   21  H2  UNL     1     -10.914   5.712  70.682  1.00  0.00     0.000 HD 
ENDBRANCH  16  17
ENDBRANCH  15  16
ENDBRANCH   4  15
ENDBRANCH   3   4
ENDBRANCH   2   3
TORSDOF 9
ENDMDL
MODEL      260
REMARK 921   NORMALIZED FREE ENERGY PREDICTED BY IDOCK:   -1.67 KCAL/MOL
REMARK 922        TOTAL FREE ENERGY PREDICTED BY IDOCK:   -3.50 KCAL/MOL
REMARK 923 INTER-LIGAND FREE ENERGY PREDICTED BY IDOCK:   -3.74 KCAL/MOL
REMARK 924 INTRA-LIGAND FREE ENERGY PREDICTED BY IDOCK:    0.24 KCAL/MOL
REMARK 927      BINDING AFFINITY PREDICTED BY RF-SCORE:    0.00 PKD
ROOT
HETATM    1  C   UNL     1     -10.924  16.411  64.574  1.00  0.00    -0.019 C  
HETATM    2  C   UNL     1     -10.406  16.533  66.002  1.00  0.00    -0.358 C  
ENDROOT
BRANCH   2   3
HETATM    3  C   UNL     1      -9.077  15.789  66.189  1.00  0.00    -0.377 C  
BRANCH   3   4
HETATM    4  C   UNL     1      -9.162  14.432  66.955  1.00  0.00    -0.246 C  
HETATM    5  C   UNL     1      -7.809  14.105  67.619  1.00  0.00    -0.190 C  
BRANCH   4   6
HETATM    6  C   UNL     1      -9.492  13.323  65.915  1.00  0.00    -0.026 C  
BRANCH   6   7
HETATM    7  O   UNL     1     -10.303  12.290  66.508  1.00  0.00    -0.223 OA 
BRANCH   7   8
HETATM    8  C   UNL     1      -9.746  11.055  66.595  1.00  0.00    -0.195 C  
HETATM    9  H   UNL     1      -8.178  11.937  65.599  1.00  0.00     0.000 HD 
HETATM   10  O   UNL     1     -10.276  10.074  67.097  1.00  0.00    -0.203 OA 
HETATM   11  N   UNL     1      -8.499  11.080  66.050  1.00  0.00    -0.169 N  
BRANCH  11  12
HETATM   12  C   UNL     1      -7.608   9.932  66.085  1.00  0.00    -0.104 C  
HETATM   13  C   UNL     1      -8.255   8.723  65.422  1.00  0.00    -0.137 C  
HETATM   14  C   UNL     1      -7.201   9.608  67.522  1.00  0.00    -0.090 C  
ENDBRANCH  11  12
ENDBRANCH   7   8
ENDBRANCH   6   7
ENDBRANCH   4   6
BRANCH   4  15
HETATM   15  C   UNL     1     -10.258  14.458  68.052  1.00  0.00    -0.228 C  
BRANCH  15  16
HETATM   16  O   UNL     1      -9.764  15.122  69.228  1.00  0.00    -0.222 OA 
BRANCH  16  17
HETATM   17  C   UNL     1     -10.580  16.045  69.786  1.00  0.00    -0.323 C  
HETATM   18  O   UNL     1     -11.159  15.960  70.856  1.00  0.00    -0.333 OA 
HETATM   19  H1  UNL     1     -11.318  17.803  69.379  1.00  0.00     0.000 HD 
HETATM   20  N   UNL     1     -10.703  17.108  68.958  1.00  0.00    -0.302 N  
HETATM   21  H2  UNL     1     -10.249  17.199  68.050  1.00  0.00     0.000 HD 
ENDBRANCH  16  17
ENDBRANCH  15  16
ENDBRANCH   4  15
ENDBRANCH   3   4
ENDBRANCH   2   3
TORSDOF 9
ENDMDL
MODEL      261
REMARK 921   NORMALIZED FREE ENERGY PREDICTED BY IDOCK:   -1.63 KCAL/MOL
REMARK 922        TOTAL FREE ENERGY PREDICTED BY IDOCK:   -3.43 KCAL/MOL
REMARK 923 INTER-LIGAND FREE ENERGY PREDICTED BY IDOCK:   -3.37 KCAL/MOL
REMARK 924 INTRA-LIGAND FREE ENERGY PREDICTED BY IDOCK:   -0.07 KCAL/MOL
REMARK 927      BINDING AFFINITY PREDICTED BY RF-SCORE:    0.00 PKD
ROOT
HETATM    1  C   UNL     1      -7.806   6.703  66.084  1.00  0.00    -0.102 C  
HETATM    2  C   UNL     1      -8.716   7.730  65.423  1.00  0.00    -0.051 C  
ENDROOT
BRANCH   2   3
HETATM    3  C   UNL     1      -9.425   8.611  66.461  1.00  0.00    -0.278 C  
BRANCH   3   4
HETATM    4  C   UNL     1      -8.674   9.918  66.868  1.00  0.00    -0.135 C  
HETATM    5  C   UNL     1      -7.540  10.219  65.866  1.00  0.00    -0.134 C  
BRANCH   4   6
HETATM    6  C   UNL     1      -8.052   9.687  68.275  1.00  0.00    -0.105 C  
BRANCH   6   7
HETATM    7  O   UNL     1      -9.058   9.263  69.215  1.00  0.00    -0.143 OA 
BRANCH   7   8
HETATM    8  C   UNL     1      -8.845   8.077  69.840  1.00  0.00    -0.144 C  
HETATM    9  H   UNL     1     -10.864   8.170  70.220  1.00  0.00     0.000 HD 
HETATM   10  O   UNL     1      -7.762   7.521  69.952  1.00  0.00    -0.094 OA 
HETATM   11  N   UNL     1     -10.028   7.594  70.312  1.00  0.00    -0.188 N  
BRANCH  11  12
HETATM   12  C   UNL     1     -10.142   6.289  70.940  1.00  0.00    -0.189 C  
HETATM   13  C   UNL     1      -9.339   6.237  72.233  1.00  0.00    -0.146 C  
HETATM   14  C   UNL     1      -9.696   5.186  69.981  1.00  0.00    -0.275 C  
ENDBRANCH  11  12
ENDBRANCH   7   8
ENDBRANCH   6   7
ENDBRANCH   4   6
BRANCH   4  15
HETATM   15  C   UNL     1      -9.628  11.139  66.916  1.00  0.00    -0.186 C  
BRANCH  15  16
HETATM   16  O   UNL     1     -10.588  11.058  65.848  1.00  0.00    -0.252 OA 
BRANCH  16  17
HETATM   17  C   UNL     1     -10.781  12.182  65.123  1.00  0.00    -0.292 C  
HETATM   18  O   UNL     1     -11.274  13.229  65.510  1.00  0.00    -0.287 OA 
HETATM   19  H1  UNL     1     -10.512  12.832  63.304  1.00  0.00     0.000 HD 
HETATM   20  N   UNL     1     -10.367  11.984  63.851  1.00  0.00    -0.366 N  
HETATM   21  H2  UNL     1      -9.970  11.115  63.493  1.00  0.00     0.000 HD 
ENDBRANCH  16  17
ENDBRANCH  15  16
ENDBRANCH   4  15
ENDBRANCH   3   4
ENDBRANCH   2   3
TORSDOF 9
ENDMDL
MODEL      262
REMARK 921   NORMALIZED FREE ENERGY PREDICTED BY IDOCK:   -1.61 KCAL/MOL
REMARK 922        TOTAL FREE ENERGY PREDICTED BY IDOCK:   -3.40 KCAL/MOL
REMARK 923 INTER-LIGAND FREE ENERGY PREDICTED BY IDOCK:   -3.02 KCAL/MOL
REMARK 924 INTRA-LIGAND FREE ENERGY PREDICTED BY IDOCK:   -0.38 KCAL/MOL
REMARK 927      BINDING AFFINITY PREDICTED BY RF-SCORE:    0.00 PKD
ROOT
HETATM    1  C   UNL     1      -6.240  19.853  68.838  1.00  0.00    -0.326 C  
HETATM    2  C   UNL     1      -5.286  18.667  68.888  1.00  0.00    -0.197 C  
ENDROOT
BRANCH   2   3
HETATM    3  C   UNL     1      -5.645  17.605  67.839  1.00  0.00    -0.136 C  
BRANCH   3   4
HETATM    4  C   UNL     1      -6.418  16.359  68.372  1.00  0.00    -0.135 C  
HETATM    5  C   UNL     1      -6.438  16.359  69.914  1.00  0.00    -0.069 C  
BRANCH   4   6
HETATM    6  C   UNL     1      -5.665  15.090  67.879  1.00  0.00    -0.130 C  
BRANCH   6   7
HETATM    7  O   UNL     1      -5.543  14.123  68.940  1.00  0.00    -0.079 OA 
BRANCH   7   8
HETATM    8  C   UNL     1      -5.921  12.851  68.650  1.00  0.00    -0.070 C  
HETATM    9  H   UNL     1      -7.695  13.739  68.110  1.00  0.00     0.000 HD 
HETATM   10  O   UNL     1      -5.230  11.855  68.810  1.00  0.00    -0.050 OA 
HETATM   11  N   UNL     1      -7.183  12.858  68.140  1.00  0.00    -0.101 N  
BRANCH  11  12
HETATM   12  C   UNL     1      -7.828  11.656  67.639  1.00  0.00    -0.135 C  
HETATM   13  C   UNL     1      -7.020  11.039  66.505  1.00  0.00    -0.138 C  
HETATM   14  C   UNL     1      -9.255  11.959  67.183  1.00  0.00    -0.183 C  
ENDBRANCH  11  12
ENDBRANCH   7   8
ENDBRANCH   6   7
ENDBRANCH   4   6
BRANCH   4  15
HETATM   15  C   UNL     1      -7.881  16.326  67.859  1.00  0.00    -0.145 C  
BRANCH  15  16
HETATM   16  O   UNL     1      -8.749  16.986  68.797  1.00  0.00    -0.263 OA 
BRANCH  16  17
HETATM   17  C   UNL     1      -9.953  17.383  68.328  1.00  0.00    -0.320 C  
HETATM   18  O   UNL     1     -10.252  17.596  67.165  1.00  0.00    -0.318 OA 
HETATM   19  H1  UNL     1     -11.721  17.852  69.004  1.00  0.00     0.000 HD 
HETATM   20  N   UNL     1     -10.813  17.552  69.358  1.00  0.00    -0.229 N  
HETATM   21  H2  UNL     1     -10.586  17.402  70.341  1.00  0.00     0.000 HD 
ENDBRANCH  16  17
ENDBRANCH  15  16
ENDBRANCH   4  15
ENDBRANCH   3   4
ENDBRANCH   2   3
TORSDOF 9
ENDMDL
MODEL      263
REMARK 921   NORMALIZED FREE ENERGY PREDICTED BY IDOCK:   -1.59 KCAL/MOL
REMARK 922        TOTAL FREE ENERGY PREDICTED BY IDOCK:   -3.38 KCAL/MOL
REMARK 923 INTER-LIGAND FREE ENERGY PREDICTED BY IDOCK:   -2.80 KCAL/MOL
REMARK 924 INTRA-LIGAND FREE ENERGY PREDICTED BY IDOCK:   -0.57 KCAL/MOL
REMARK 927      BINDING AFFINITY PREDICTED BY RF-SCORE:    0.00 PKD
ROOT
HETATM    1  C   UNL     1      -9.747   4.154  65.660  1.00  0.00    -0.204 C  
HETATM    2  C   UNL     1      -9.931   5.417  66.491  1.00  0.00    -0.222 C  
ENDROOT
BRANCH   2   3
HETATM    3  C   UNL     1      -8.637   6.238  66.569  1.00  0.00    -0.128 C  
BRANCH   3   4
HETATM    4  C   UNL     1      -8.798   7.778  66.370  1.00  0.00    -0.180 C  
HETATM    5  C   UNL     1      -7.544   8.519  66.878  1.00  0.00    -0.091 C  
BRANCH   4   6
HETATM    6  C   UNL     1     -10.025   8.236  67.209  1.00  0.00    -0.224 C  
BRANCH   6   7
HETATM    7  O   UNL     1     -10.585   9.452  66.676  1.00  0.00    -0.197 OA 
BRANCH   7   8
HETATM    8  C   UNL     1     -10.945  10.402  67.576  1.00  0.00    -0.295 C  
HETATM    9  H   UNL     1     -10.109  11.693  66.210  1.00  0.00     0.000 HD 
HETATM   10  O   UNL     1     -11.488  10.189  68.650  1.00  0.00    -0.167 OA 
HETATM   11  N   UNL     1     -10.620  11.632  67.091  1.00  0.00    -0.223 N  
BRANCH  11  12
HETATM   12  C   UNL     1     -10.972  12.861  67.782  1.00  0.00    -0.243 C  
HETATM   13  C   UNL     1     -12.323  13.381  67.309  1.00  0.00    -0.157 C  
HETATM   14  C   UNL     1      -9.887  13.920  67.588  1.00  0.00    -0.236 C  
ENDBRANCH  11  12
ENDBRANCH   7   8
ENDBRANCH   6   7
ENDBRANCH   4   6
BRANCH   4  15
HETATM   15  C   UNL     1      -9.020   8.147  64.881  1.00  0.00     0.321 C  
BRANCH  15  16
HETATM   16  O   UNL     1      -8.068   9.143  64.471  1.00  0.00    -0.123 OA 
BRANCH  16  17
HETATM   17  C   UNL     1      -7.997   9.400  63.145  1.00  0.00    -0.143 C  
HETATM   18  O   UNL     1      -8.878   9.863  62.440  1.00  0.00    -0.198 OA 
HETATM   19  H1  UNL     1      -6.731   9.228  61.672  1.00  0.00     0.000 HD 
HETATM   20  N   UNL     1      -6.784   9.034  62.672  1.00  0.00    -0.094 N  
HETATM   21  H2  UNL     1      -6.035   8.626  63.232  1.00  0.00     0.000 HD 
ENDBRANCH  16  17
ENDBRANCH  15  16
ENDBRANCH   4  15
ENDBRANCH   3   4
ENDBRANCH   2   3
TORSDOF 9
ENDMDL
MODEL      264
REMARK 921   NORMALIZED FREE ENERGY PREDICTED BY IDOCK:   -1.56 KCAL/MOL
REMARK 922        TOTAL FREE ENERGY PREDICTED BY IDOCK:   -3.32 KCAL/MOL
REMARK 923 INTER-LIGAND FREE ENERGY PREDICTED BY IDOCK:   -2.82 KCAL/MOL
REMARK 924 INTRA-LIGAND FREE ENERGY PREDICTED BY IDOCK:   -0.50 KCAL/MOL
REMARK 927      BINDING AFFINITY PREDICTED BY RF-SCORE:    0.00 PKD
ROOT
HETATM    1  C   UNL     1     -10.433  10.529  67.896  1.00  0.00    -0.247 C  
HETATM    2  C   UNL     1     -10.176   9.650  66.679  1.00  0.00    -0.302 C  
ENDROOT
BRANCH   2   3
HETATM    3  C   UNL     1     -10.318   8.159  67.014  1.00  0.00    -0.403 C  
BRANCH   3   4
HETATM    4  C   UNL     1      -8.983   7.388  67.257  1.00  0.00    -0.128 C  
HETATM    5  C   UNL     1      -8.126   7.383  65.975  1.00  0.00    -0.124 C  
BRANCH   4   6
HETATM    6  C   UNL     1      -9.346   5.920  67.624  1.00  0.00    -0.107 C  
BRANCH   6   7
HETATM    7  O   UNL     1      -8.960   5.019  66.569  1.00  0.00    -0.115 OA 
BRANCH   7   8
HETATM    8  C   UNL     1      -9.957   4.548  65.776  1.00  0.00    -0.239 C  
HETATM    9  H   UNL     1      -8.416   3.638  64.763  1.00  0.00     0.000 HD 
HETATM   10  O   UNL     1     -11.145   4.805  65.907  1.00  0.00    -0.148 OA 
HETATM   11  N   UNL     1      -9.430   3.733  64.821  1.00  0.00    -0.155 N  
BRANCH  11  12
HETATM   12  C   UNL     1     -10.258   2.994  63.883  1.00  0.00    -0.176 C  
HETATM   13  C   UNL     1      -9.721   1.584  63.678  1.00  0.00    -0.122 C  
HETATM   14  C   UNL     1     -10.355   3.735  62.550  1.00  0.00    -0.182 C  
ENDBRANCH  11  12
ENDBRANCH   7   8
ENDBRANCH   6   7
ENDBRANCH   4   6
BRANCH   4  15
HETATM   15  C   UNL     1      -8.154   8.020  68.404  1.00  0.00    -0.122 C  
BRANCH  15  16
HETATM   16  O   UNL     1      -6.949   8.605  67.878  1.00  0.00    -0.075 OA 
BRANCH  16  17
HETATM   17  C   UNL     1      -6.677   9.872  68.262  1.00  0.00    -0.060 C  
HETATM   18  O   UNL     1      -7.145  10.465  69.220  1.00  0.00    -0.069 OA 
HETATM   19  H1  UNL     1      -5.600  11.392  67.684  1.00  0.00     0.000 HD 
HETATM   20  N   UNL     1      -5.805  10.436  67.395  1.00  0.00    -0.048 N  
HETATM   21  H2  UNL     1      -5.413   9.974  66.574  1.00  0.00     0.000 HD 
ENDBRANCH  16  17
ENDBRANCH  15  16
ENDBRANCH   4  15
ENDBRANCH   3   4
ENDBRANCH   2   3
TORSDOF 9
ENDMDL
MODEL      265
REMARK 921   NORMALIZED FREE ENERGY PREDICTED BY IDOCK:   -1.51 KCAL/MOL
REMARK 922        TOTAL FREE ENERGY PREDICTED BY IDOCK:   -3.25 KCAL/MOL
REMARK 923 INTER-LIGAND FREE ENERGY PREDICTED BY IDOCK:   -3.01 KCAL/MOL
REMARK 924 INTRA-LIGAND FREE ENERGY PREDICTED BY IDOCK:   -0.24 KCAL/MOL
REMARK 927      BINDING AFFINITY PREDICTED BY RF-SCORE:    0.00 PKD
ROOT
HETATM    1  C   UNL     1     -10.685   9.736  70.559  1.00  0.00    -0.381 C  
HETATM    2  C   UNL     1     -10.020   8.381  70.759  1.00  0.00    -0.222 C  
ENDROOT
BRANCH   2   3
HETATM    3  C   UNL     1      -9.209   7.959  69.526  1.00  0.00    -0.152 C  
BRANCH   3   4
HETATM    4  C   UNL     1      -9.513   6.532  68.970  1.00  0.00    -0.130 C  
HETATM    5  C   UNL     1     -10.969   6.133  69.286  1.00  0.00    -0.450 C  
BRANCH   4   6
HETATM    6  C   UNL     1      -8.553   5.535  69.680  1.00  0.00    -0.108 C  
BRANCH   6   7
HETATM    7  O   UNL     1      -9.294   4.470  70.306  1.00  0.00    -0.121 OA 
BRANCH   7   8
HETATM    8  C   UNL     1      -8.968   4.175  71.591  1.00  0.00    -0.119 C  
HETATM    9  H   UNL     1     -10.648   2.992  71.510  1.00  0.00     0.000 HD 
HETATM   10  O   UNL     1      -8.019   4.643  72.204  1.00  0.00    -0.096 OA 
HETATM   11  N   UNL     1      -9.854   3.267  72.087  1.00  0.00    -0.159 N  
BRANCH  11  12
HETATM   12  C   UNL     1      -9.709   2.678  73.407  1.00  0.00    -0.097 C  
HETATM   13  C   UNL     1      -8.492   1.764  73.463  1.00  0.00    -0.054 C  
HETATM   14  C   UNL     1     -10.975   1.917  73.801  1.00  0.00    -0.267 C  
ENDBRANCH  11  12
ENDBRANCH   7   8
ENDBRANCH   6   7
ENDBRANCH   4   6
BRANCH   4  15
HETATM   15  C   UNL     1      -9.300   6.455  67.437  1.00  0.00    -0.116 C  
BRANCH  15  16
HETATM   16  O   UNL     1      -8.176   7.265  67.053  1.00  0.00    -0.114 OA 
BRANCH  16  17
HETATM   17  C   UNL     1      -8.442   8.332  66.267  1.00  0.00    -0.129 C  
HETATM   18  O   UNL     1      -9.526   8.862  66.092  1.00  0.00    -0.214 OA 
HETATM   19  H1  UNL     1      -7.511   9.543  65.054  1.00  0.00     0.000 HD 
HETATM   20  N   UNL     1      -7.310   8.738  65.647  1.00  0.00    -0.084 N  
HETATM   21  H2  UNL     1      -6.394   8.304  65.756  1.00  0.00     0.000 HD 
ENDBRANCH  16  17
ENDBRANCH  15  16
ENDBRANCH   4  15
ENDBRANCH   3   4
ENDBRANCH   2   3
TORSDOF 9
ENDMDL
MODEL      266
REMARK 921   NORMALIZED FREE ENERGY PREDICTED BY IDOCK:   -1.41 KCAL/MOL
REMARK 922        TOTAL FREE ENERGY PREDICTED BY IDOCK:   -3.10 KCAL/MOL
REMARK 923 INTER-LIGAND FREE ENERGY PREDICTED BY IDOCK:   -4.58 KCAL/MOL
REMARK 924 INTRA-LIGAND FREE ENERGY PREDICTED BY IDOCK:    1.48 KCAL/MOL
REMARK 927      BINDING AFFINITY PREDICTED BY RF-SCORE:    0.00 PKD
ROOT
HETATM    1  C   UNL     1      -5.819  20.041  68.914  1.00  0.00    -0.299 C  
HETATM    2  C   UNL     1      -5.166  19.559  67.626  1.00  0.00    -0.178 C  
ENDROOT
BRANCH   2   3
HETATM    3  C   UNL     1      -6.174  19.484  66.471  1.00  0.00    -0.172 C  
BRANCH   3   4
HETATM    4  C   UNL     1      -7.520  18.762  66.792  1.00  0.00    -0.237 C  
HETATM    5  C   UNL     1      -7.759  18.725  68.315  1.00  0.00    -0.326 C  
BRANCH   4   6
HETATM    6  C   UNL     1      -7.410  17.302  66.266  1.00  0.00    -0.307 C  
BRANCH   6   7
HETATM    7  O   UNL     1      -6.348  16.596  66.936  1.00  0.00    -0.177 OA 
BRANCH   7   8
HETATM    8  C   UNL     1      -6.690  15.453  67.583  1.00  0.00    -0.173 C  
HETATM    9  H   UNL     1      -8.385  15.571  66.424  1.00  0.00     0.000 HD 
HETATM   10  O   UNL     1      -6.026  14.906  68.451  1.00  0.00    -0.090 OA 
HETATM   11  N   UNL     1      -7.883  15.001  67.105  1.00  0.00    -0.209 N  
BRANCH  11  12
HETATM   12  C   UNL     1      -8.466  13.740  67.529  1.00  0.00    -0.196 C  
HETATM   13  C   UNL     1      -7.575  12.570  67.134  1.00  0.00    -0.087 C  
HETATM   14  C   UNL     1      -9.870  13.571  66.948  1.00  0.00    -0.257 C  
ENDBRANCH  11  12
ENDBRANCH   7   8
ENDBRANCH   6   7
ENDBRANCH   4   6
BRANCH   4  15
HETATM   15  C   UNL     1      -8.726  19.466  66.119  1.00  0.00    -0.279 C  
BRANCH  15  16
HETATM   16  O   UNL     1      -9.954  19.042  66.738  1.00  0.00    -0.318 OA 
BRANCH  16  17
HETATM   17  C   UNL     1     -10.567  17.970  66.188  1.00  0.00    -0.261 C  
HETATM   18  O   UNL     1     -10.945  17.853  65.034  1.00  0.00    -0.776 OA 
HETATM   19  H1  UNL     1     -11.205  16.203  66.712  1.00  0.00     0.000 HD 
HETATM   20  N   UNL     1     -10.743  17.012  67.127  1.00  0.00    -0.237 N  
HETATM   21  H2  UNL     1     -10.457  17.088  68.103  1.00  0.00     0.000 HD 
ENDBRANCH  16  17
ENDBRANCH  15  16
ENDBRANCH   4  15
ENDBRANCH   3   4
ENDBRANCH   2   3
TORSDOF 9
ENDMDL
MODEL      267
REMARK 921   NORMALIZED FREE ENERGY PREDICTED BY IDOCK:   -1.36 KCAL/MOL
REMARK 922        TOTAL FREE ENERGY PREDICTED BY IDOCK:   -3.02 KCAL/MOL
REMARK 923 INTER-LIGAND FREE ENERGY PREDICTED BY IDOCK:   -4.14 KCAL/MOL
REMARK 924 INTRA-LIGAND FREE ENERGY PREDICTED BY IDOCK:    1.11 KCAL/MOL
REMARK 927      BINDING AFFINITY PREDICTED BY RF-SCORE:    0.00 PKD
ROOT
HETATM    1  C   UNL     1      -5.633  20.265  69.080  1.00  0.00    -0.311 C  
HETATM    2  C   UNL     1      -5.168  19.295  68.002  1.00  0.00    -0.175 C  
ENDROOT
BRANCH   2   3
HETATM    3  C   UNL     1      -6.133  19.268  66.809  1.00  0.00    -0.170 C  
BRANCH   3   4
HETATM    4  C   UNL     1      -7.635  19.027  67.157  1.00  0.00    -0.243 C  
HETATM    5  C   UNL     1      -7.843  19.058  68.685  1.00  0.00    -0.383 C  
BRANCH   4   6
HETATM    6  C   UNL     1      -8.022  17.617  66.625  1.00  0.00    -0.251 C  
BRANCH   6   7
HETATM    7  O   UNL     1      -8.783  16.890  67.609  1.00  0.00    -0.206 OA 
BRANCH   7   8
HETATM    8  C   UNL     1      -9.732  16.041  67.138  1.00  0.00    -0.228 C  
HETATM    9  H   UNL     1      -8.455  15.858  65.537  1.00  0.00     0.000 HD 
HETATM   10  O   UNL     1     -10.785  15.777  67.701  1.00  0.00    -0.297 OA 
HETATM   11  N   UNL     1      -9.324  15.519  65.949  1.00  0.00    -0.343 N  
BRANCH  11  12
HETATM   12  C   UNL     1     -10.081  14.498  65.246  1.00  0.00    -0.357 C  
HETATM   13  C   UNL     1     -11.289  15.103  64.545  1.00  0.00    -0.297 C  
HETATM   14  C   UNL     1     -10.511  13.387  66.204  1.00  0.00    -0.295 C  
ENDBRANCH  11  12
ENDBRANCH   7   8
ENDBRANCH   6   7
ENDBRANCH   4   6
BRANCH   4  15
HETATM   15  C   UNL     1      -8.554  20.095  66.511  1.00  0.00    -0.260 C  
BRANCH  15  16
HETATM   16  O   UNL     1      -9.723  20.299  67.325  1.00  0.00    -0.399 OA 
BRANCH  16  17
HETATM   17  C   UNL     1     -10.851  19.668  66.928  1.00  0.00    -0.389 C  
HETATM   18  O   UNL     1     -11.208  19.457  65.781  1.00  0.00    -0.108 OA 
HETATM   19  H1  UNL     1     -12.431  18.836  67.711  1.00  0.00     0.000 HD 
HETATM   20  N   UNL     1     -11.581  19.312  68.010  1.00  0.00     0.575 N  
HETATM   21  H2  UNL     1     -11.319  19.493  68.979  1.00  0.00     0.000 HD 
ENDBRANCH  16  17
ENDBRANCH  15  16
ENDBRANCH   4  15
ENDBRANCH   3   4
ENDBRANCH   2   3
TORSDOF 9
ENDMDL
MODEL      268
REMARK 921   NORMALIZED FREE ENERGY PREDICTED BY IDOCK:   -1.36 KCAL/MOL
REMARK 922        TOTAL FREE ENERGY PREDICTED BY IDOCK:   -3.02 KCAL/MOL
REMARK 923 INTER-LIGAND FREE ENERGY PREDICTED BY IDOCK:   -2.61 KCAL/MOL
REMARK 924 INTRA-LIGAND FREE ENERGY PREDICTED BY IDOCK:   -0.40 KCAL/MOL
REMARK 927      BINDING AFFINITY PREDICTED BY RF-SCORE:    0.00 PKD
ROOT
HETATM    1  C   UNL     1      -8.569   2.524  64.049  1.00  0.00    -0.086 C  
HETATM    2  C   UNL     1      -9.055   3.047  65.394  1.00  0.00    -0.150 C  
ENDROOT
BRANCH   2   3
HETATM    3  C   UNL     1      -7.921   3.708  66.189  1.00  0.00    -0.089 C  
BRANCH   3   4
HETATM    4  C   UNL     1      -8.322   4.303  67.576  1.00  0.00    -0.099 C  
HETATM    5  C   UNL     1      -7.106   4.978  68.242  1.00  0.00    -0.062 C  
BRANCH   4   6
HETATM    6  C   UNL     1      -8.797   3.125  68.475  1.00  0.00    -0.119 C  
BRANCH   6   7
HETATM    7  O   UNL     1      -9.810   3.563  69.400  1.00  0.00    -0.076 OA 
BRANCH   7   8
HETATM    8  C   UNL     1      -9.498   3.499  70.719  1.00  0.00    -0.170 C  
HETATM    9  H   UNL     1     -10.723   5.145  70.860  1.00  0.00     0.000 HD 
HETATM   10  O   UNL     1      -8.742   2.683  71.228  1.00  0.00    -0.062 OA 
HETATM   11  N   UNL     1     -10.167   4.475  71.392  1.00  0.00    -0.156 N  
BRANCH  11  12
HETATM   12  C   UNL     1     -10.119   4.599  72.839  1.00  0.00    -0.159 C  
HETATM   13  C   UNL     1     -10.631   3.332  73.510  1.00  0.00    -0.286 C  
HETATM   14  C   UNL     1     -10.916   5.818  73.304  1.00  0.00    -0.292 C  
ENDBRANCH  11  12
ENDBRANCH   7   8
ENDBRANCH   6   7
ENDBRANCH   4   6
BRANCH   4  15
HETATM   15  C   UNL     1      -9.459   5.348  67.446  1.00  0.00    -0.120 C  
BRANCH  15  16
HETATM   16  O   UNL     1      -8.980   6.649  67.829  1.00  0.00    -0.115 OA 
BRANCH  16  17
HETATM   17  C   UNL     1      -9.524   7.188  68.943  1.00  0.00    -0.142 C  
HETATM   18  O   UNL     1      -8.977   7.932  69.740  1.00  0.00    -0.144 OA 
HETATM   19  H1  UNL     1     -11.208   7.164  69.926  1.00  0.00     0.000 HD 
HETATM   20  N   UNL     1     -10.798   6.757  69.086  1.00  0.00    -0.289 N  
HETATM   21  H2  UNL     1     -11.276   6.120  68.448  1.00  0.00     0.000 HD 
ENDBRANCH  16  17
ENDBRANCH  15  16
ENDBRANCH   4  15
ENDBRANCH   3   4
ENDBRANCH   2   3
TORSDOF 9
ENDMDL
MODEL      269
REMARK 921   NORMALIZED FREE ENERGY PREDICTED BY IDOCK:   -1.31 KCAL/MOL
REMARK 922        TOTAL FREE ENERGY PREDICTED BY IDOCK:   -2.94 KCAL/MOL
REMARK 923 INTER-LIGAND FREE ENERGY PREDICTED BY IDOCK:   -2.61 KCAL/MOL
REMARK 924 INTRA-LIGAND FREE ENERGY PREDICTED BY IDOCK:   -0.33 KCAL/MOL
REMARK 927      BINDING AFFINITY PREDICTED BY RF-SCORE:    0.00 PKD
ROOT
HETATM    1  C   UNL     1      -9.396   9.553  70.742  1.00  0.00    -0.218 C  
HETATM    2  C   UNL     1      -8.822   9.401  69.339  1.00  0.00    -0.159 C  
ENDROOT
BRANCH   2   3
HETATM    3  C   UNL     1      -7.922  10.586  68.963  1.00  0.00    -0.136 C  
BRANCH   3   4
HETATM    4  C   UNL     1      -8.632  11.776  68.245  1.00  0.00    -0.162 C  
HETATM    5  C   UNL     1     -10.160  11.681  68.433  1.00  0.00    -0.207 C  
BRANCH   4   6
HETATM    6  C   UNL     1      -8.306  11.674  66.727  1.00  0.00    -0.171 C  
BRANCH   6   7
HETATM    7  O   UNL     1      -8.801  10.437  66.179  1.00  0.00    -0.150 OA 
BRANCH   7   8
HETATM    8  C   UNL     1      -8.419  10.137  64.911  1.00  0.00    -0.172 C  
HETATM    9  H   UNL     1      -6.521  10.382  65.665  1.00  0.00     0.000 HD 
HETATM   10  O   UNL     1      -9.177   9.910  63.980  1.00  0.00    -0.250 OA 
HETATM   11  N   UNL     1      -7.059  10.114  64.841  1.00  0.00    -0.136 N  
BRANCH  11  12
HETATM   12  C   UNL     1      -6.347   9.722  63.637  1.00  0.00    -0.117 C  
HETATM   13  C   UNL     1      -5.372   8.588  63.928  1.00  0.00    -0.056 C  
HETATM   14  C   UNL     1      -5.618  10.918  63.027  1.00  0.00    -0.053 C  
ENDBRANCH  11  12
ENDBRANCH   7   8
ENDBRANCH   6   7
ENDBRANCH   4   6
BRANCH   4  15
HETATM   15  C   UNL     1      -8.151  13.146  68.788  1.00  0.00     0.073 C  
BRANCH  15  16
HETATM   16  O   UNL     1      -9.252  14.069  68.847  1.00  0.00    -0.101 OA 
BRANCH  16  17
HETATM   17  C   UNL     1      -9.201  15.123  68.003  1.00  0.00    -0.185 C  
HETATM   18  O   UNL     1      -8.331  15.976  67.948  1.00  0.00    -0.151 OA 
HETATM   19  H1  UNL     1     -10.259  15.928  66.576  1.00  0.00     0.000 HD 
HETATM   20  N   UNL     1     -10.299  15.132  67.212  1.00  0.00    -0.257 N  
HETATM   21  H2  UNL     1     -11.052  14.445  67.249  1.00  0.00     0.000 HD 
ENDBRANCH  16  17
ENDBRANCH  15  16
ENDBRANCH   4  15
ENDBRANCH   3   4
ENDBRANCH   2   3
TORSDOF 9
ENDMDL
MODEL      270
REMARK 921   NORMALIZED FREE ENERGY PREDICTED BY IDOCK:   -1.28 KCAL/MOL
REMARK 922        TOTAL FREE ENERGY PREDICTED BY IDOCK:   -2.90 KCAL/MOL
REMARK 923 INTER-LIGAND FREE ENERGY PREDICTED BY IDOCK:   -2.76 KCAL/MOL
REMARK 924 INTRA-LIGAND FREE ENERGY PREDICTED BY IDOCK:   -0.14 KCAL/MOL
REMARK 927      BINDING AFFINITY PREDICTED BY RF-SCORE:    0.00 PKD
ROOT
HETATM    1  C   UNL     1     -10.975   8.722  72.067  1.00  0.00    -0.438 C  
HETATM    2  C   UNL     1     -10.964   7.238  71.728  1.00  0.00    -0.256 C  
ENDROOT
BRANCH   2   3
HETATM    3  C   UNL     1      -9.623   6.804  71.119  1.00  0.00    -0.177 C  
BRANCH   3   4
HETATM    4  C   UNL     1      -9.667   6.379  69.617  1.00  0.00    -0.170 C  
HETATM    5  C   UNL     1     -11.088   5.922  69.230  1.00  0.00    -0.352 C  
BRANCH   4   6
HETATM    6  C   UNL     1      -8.688   5.183  69.437  1.00  0.00    -0.099 C  
BRANCH   6   7
HETATM    7  O   UNL     1      -8.328   5.020  68.052  1.00  0.00    -0.100 OA 
BRANCH   7   8
HETATM    8  C   UNL     1      -8.862   3.952  67.406  1.00  0.00    -0.122 C  
HETATM    9  H   UNL     1      -7.860   4.718  65.782  1.00  0.00     0.000 HD 
HETATM   10  O   UNL     1      -9.607   3.123  67.908  1.00  0.00    -0.192 OA 
HETATM   11  N   UNL     1      -8.429   3.940  66.115  1.00  0.00    -0.109 N  
BRANCH  11  12
HETATM   12  C   UNL     1      -8.747   2.861  65.196  1.00  0.00    -0.113 C  
HETATM   13  C   UNL     1      -7.668   1.787  65.226  1.00  0.00    -0.071 C  
HETATM   14  C   UNL     1      -8.937   3.398  63.777  1.00  0.00    -0.093 C  
ENDBRANCH  11  12
ENDBRANCH   7   8
ENDBRANCH   6   7
ENDBRANCH   4   6
BRANCH   4  15
HETATM   15  C   UNL     1      -9.248   7.538  68.678  1.00  0.00    -0.144 C  
BRANCH  15  16
HETATM   16  O   UNL     1      -7.858   7.854  68.873  1.00  0.00    -0.112 OA 
BRANCH  16  17
HETATM   17  C   UNL     1      -7.072   7.821  67.773  1.00  0.00    -0.082 C  
HETATM   18  O   UNL     1      -7.420   7.574  66.631  1.00  0.00    -0.088 OA 
HETATM   19  H1  UNL     1      -5.197   8.052  67.289  1.00  0.00     0.000 HD 
HETATM   20  N   UNL     1      -5.790   8.077  68.118  1.00  0.00    -0.040 N  
HETATM   21  H2  UNL     1      -5.465   8.266  69.066  1.00  0.00     0.000 HD 
ENDBRANCH  16  17
ENDBRANCH  15  16
ENDBRANCH   4  15
ENDBRANCH   3   4
ENDBRANCH   2   3
TORSDOF 9
ENDMDL
MODEL      271
REMARK 921   NORMALIZED FREE ENERGY PREDICTED BY IDOCK:   -1.26 KCAL/MOL
REMARK 922        TOTAL FREE ENERGY PREDICTED BY IDOCK:   -2.87 KCAL/MOL
REMARK 923 INTER-LIGAND FREE ENERGY PREDICTED BY IDOCK:   -2.65 KCAL/MOL
REMARK 924 INTRA-LIGAND FREE ENERGY PREDICTED BY IDOCK:   -0.21 KCAL/MOL
REMARK 927      BINDING AFFINITY PREDICTED BY RF-SCORE:    0.00 PKD
ROOT
HETATM    1  C   UNL     1      -7.932   7.219  65.285  1.00  0.00    -0.127 C  
HETATM    2  C   UNL     1      -8.830   8.338  65.795  1.00  0.00    -0.194 C  
ENDROOT
BRANCH   2   3
HETATM    3  C   UNL     1      -9.341   8.054  67.214  1.00  0.00    -0.177 C  
BRANCH   3   4
HETATM    4  C   UNL     1      -8.572   8.770  68.368  1.00  0.00    -0.134 C  
HETATM    5  C   UNL     1      -7.852  10.025  67.834  1.00  0.00    -0.090 C  
BRANCH   4   6
HETATM    6  C   UNL     1      -7.509   7.775  68.915  1.00  0.00    -0.095 C  
BRANCH   6   7
HETATM    7  O   UNL     1      -8.060   6.450  69.032  1.00  0.00    -0.109 OA 
BRANCH   7   8
HETATM    8  C   UNL     1      -7.361   5.445  68.444  1.00  0.00    -0.072 C  
HETATM    9  H   UNL     1      -9.110   4.390  68.681  1.00  0.00     0.000 HD 
HETATM   10  O   UNL     1      -6.192   5.510  68.092  1.00  0.00    -0.030 OA 
HETATM   11  N   UNL     1      -8.167   4.359  68.293  1.00  0.00    -0.089 N  
BRANCH  11  12
HETATM   12  C   UNL     1      -7.735   3.157  67.601  1.00  0.00    -0.068 C  
HETATM   13  C   UNL     1      -6.589   2.485  68.345  1.00  0.00    -0.029 C  
HETATM   14  C   UNL     1      -7.333   3.477  66.162  1.00  0.00    -0.072 C  
ENDBRANCH  11  12
ENDBRANCH   7   8
ENDBRANCH   6   7
ENDBRANCH   4   6
BRANCH   4  15
HETATM   15  C   UNL     1      -9.523   9.196  69.516  1.00  0.00    -0.168 C  
BRANCH  15  16
HETATM   16  O   UNL     1     -10.771   9.665  68.975  1.00  0.00    -0.217 OA 
BRANCH  16  17
HETATM   17  C   UNL     1     -11.282  10.789  69.525  1.00  0.00    -0.281 C  
HETATM   18  O   UNL     1     -12.264  10.873  70.242  1.00  0.00    -0.296 OA 
HETATM   19  H1  UNL     1     -10.938  12.709  69.552  1.00  0.00     0.000 HD 
HETATM   20  N   UNL     1     -10.552  11.860  69.137  1.00  0.00    -0.406 N  
HETATM   21  H2  UNL     1      -9.739  11.825  68.523  1.00  0.00     0.000 HD 
ENDBRANCH  16  17
ENDBRANCH  15  16
ENDBRANCH   4  15
ENDBRANCH   3   4
ENDBRANCH   2   3
TORSDOF 9
ENDMDL
MODEL      272
REMARK 921   NORMALIZED FREE ENERGY PREDICTED BY IDOCK:   -1.21 KCAL/MOL
REMARK 922        TOTAL FREE ENERGY PREDICTED BY IDOCK:   -2.79 KCAL/MOL
REMARK 923 INTER-LIGAND FREE ENERGY PREDICTED BY IDOCK:   -2.54 KCAL/MOL
REMARK 924 INTRA-LIGAND FREE ENERGY PREDICTED BY IDOCK:   -0.25 KCAL/MOL
REMARK 927      BINDING AFFINITY PREDICTED BY RF-SCORE:    0.00 PKD
ROOT
HETATM    1  C   UNL     1     -10.968  10.277  69.182  1.00  0.00    -0.280 C  
HETATM    2  C   UNL     1     -11.248  10.323  67.685  1.00  0.00    -0.232 C  
ENDROOT
BRANCH   2   3
HETATM    3  C   UNL     1      -9.979  10.064  66.862  1.00  0.00    -0.263 C  
BRANCH   3   4
HETATM    4  C   UNL     1      -9.382   8.625  66.972  1.00  0.00    -0.202 C  
HETATM    5  C   UNL     1      -8.769   8.195  65.624  1.00  0.00    -0.176 C  
BRANCH   4   6
HETATM    6  C   UNL     1     -10.547   7.657  67.327  1.00  0.00    -0.318 C  
BRANCH   6   7
HETATM    7  O   UNL     1     -10.092   6.610  68.205  1.00  0.00    -0.145 OA 
BRANCH   7   8
HETATM    8  C   UNL     1      -9.797   5.417  67.628  1.00  0.00    -0.150 C  
HETATM    9  H   UNL     1      -8.047   5.587  68.694  1.00  0.00     0.000 HD 
HETATM   10  O   UNL     1     -10.511   4.821  66.833  1.00  0.00    -0.194 OA 
HETATM   11  N   UNL     1      -8.590   4.979  68.081  1.00  0.00    -0.102 N  
BRANCH  11  12
HETATM   12  C   UNL     1      -8.047   3.680  67.723  1.00  0.00    -0.084 C  
HETATM   13  C   UNL     1      -7.575   2.929  68.961  1.00  0.00    -0.047 C  
HETATM   14  C   UNL     1      -6.909   3.829  66.714  1.00  0.00    -0.054 C  
ENDBRANCH  11  12
ENDBRANCH   7   8
ENDBRANCH   6   7
ENDBRANCH   4   6
BRANCH   4  15
HETATM   15  C   UNL     1      -8.285   8.539  68.064  1.00  0.00    -0.120 C  
BRANCH  15  16
HETATM   16  O   UNL     1      -7.070   8.013  67.502  1.00  0.00    -0.076 OA 
BRANCH  16  17
HETATM   17  C   UNL     1      -5.949   8.163  68.243  1.00  0.00    -0.041 C  
HETATM   18  O   UNL     1      -5.671   7.582  69.279  1.00  0.00    -0.025 OA 
HETATM   19  H1  UNL     1      -4.307   9.216  68.243  1.00  0.00     0.000 HD 
HETATM   20  N   UNL     1      -5.152   9.102  67.684  1.00  0.00    -0.034 N  
HETATM   21  H2  UNL     1      -5.366   9.619  66.831  1.00  0.00     0.000 HD 
ENDBRANCH  16  17
ENDBRANCH  15  16
ENDBRANCH   4  15
ENDBRANCH   3   4
ENDBRANCH   2   3
TORSDOF 9
ENDMDL
MODEL      273
REMARK 921   NORMALIZED FREE ENERGY PREDICTED BY IDOCK:   -1.00 KCAL/MOL
REMARK 922        TOTAL FREE ENERGY PREDICTED BY IDOCK:   -2.47 KCAL/MOL
REMARK 923 INTER-LIGAND FREE ENERGY PREDICTED BY IDOCK:   -2.46 KCAL/MOL
REMARK 924 INTRA-LIGAND FREE ENERGY PREDICTED BY IDOCK:   -0.00 KCAL/MOL
REMARK 927      BINDING AFFINITY PREDICTED BY RF-SCORE:    0.00 PKD
ROOT
HETATM    1  C   UNL     1      -8.689   2.809  64.220  1.00  0.00    -0.096 C  
HETATM    2  C   UNL     1      -9.040   3.801  65.321  1.00  0.00    -0.143 C  
ENDROOT
BRANCH   2   3
HETATM    3  C   UNL     1      -7.793   4.511  65.865  1.00  0.00    -0.095 C  
BRANCH   3   4
HETATM    4  C   UNL     1      -8.050   5.578  66.974  1.00  0.00    -0.101 C  
HETATM    5  C   UNL     1      -6.739   5.905  67.718  1.00  0.00    -0.058 C  
BRANCH   4   6
HETATM    6  C   UNL     1      -9.065   4.972  67.986  1.00  0.00    -0.114 C  
BRANCH   6   7
HETATM    7  O   UNL     1      -9.456   5.952  68.967  1.00  0.00    -0.124 OA 
BRANCH   7   8
HETATM    8  C   UNL     1      -9.651   5.501  70.233  1.00  0.00    -0.174 C  
HETATM    9  H   UNL     1      -9.732   7.503  70.694  1.00  0.00     0.000 HD 
HETATM   10  O   UNL     1      -9.672   4.326  70.569  1.00  0.00    -0.185 OA 
HETATM   11  N   UNL     1      -9.834   6.560  71.068  1.00  0.00    -0.179 N  
BRANCH  11  12
HETATM   12  C   UNL     1     -10.168   6.397  72.473  1.00  0.00    -0.183 C  
HETATM   13  C   UNL     1      -9.090   5.603  73.199  1.00  0.00    -0.126 C  
HETATM   14  C   UNL     1     -11.532   5.726  72.629  1.00  0.00    -0.337 C  
ENDBRANCH  11  12
ENDBRANCH   7   8
ENDBRANCH   6   7
ENDBRANCH   4   6
BRANCH   4  15
HETATM   15  C   UNL     1      -8.625   6.892  66.386  1.00  0.00    -0.134 C  
BRANCH  15  16
HETATM   16  O   UNL     1      -7.560   7.820  66.115  1.00  0.00    -0.083 OA 
BRANCH  16  17
HETATM   17  C   UNL     1      -7.861   9.133  66.227  1.00  0.00    -0.103 C  
HETATM   18  O   UNL     1      -8.347   9.850  65.368  1.00  0.00    -0.134 OA 
HETATM   19  H1  UNL     1      -7.739  10.571  67.539  1.00  0.00     0.000 HD 
HETATM   20  N   UNL     1      -7.512   9.580  67.455  1.00  0.00    -0.091 N  
HETATM   21  H2  UNL     1      -7.086   9.011  68.186  1.00  0.00     0.000 HD 
ENDBRANCH  16  17
ENDBRANCH  15  16
ENDBRANCH   4  15
ENDBRANCH   3   4
ENDBRANCH   2   3
TORSDOF 9
ENDMDL
MODEL      274
REMARK 921   NORMALIZED FREE ENERGY PREDICTED BY IDOCK:   -0.75 KCAL/MOL
REMARK 922        TOTAL FREE ENERGY PREDICTED BY IDOCK:   -2.08 KCAL/MOL
REMARK 923 INTER-LIGAND FREE ENERGY PREDICTED BY IDOCK:   -2.25 KCAL/MOL
REMARK 924 INTRA-LIGAND FREE ENERGY PREDICTED BY IDOCK:    0.17 KCAL/MOL
REMARK 927      BINDING AFFINITY PREDICTED BY RF-SCORE:    0.00 PKD
ROOT
HETATM    1  C   UNL     1      -6.770   6.790  64.493  1.00  0.00    -0.042 C  
HETATM    2  C   UNL     1      -7.624   7.449  65.568  1.00  0.00    -0.094 C  
ENDROOT
BRANCH   2   3
HETATM    3  C   UNL     1      -8.387   6.412  66.402  1.00  0.00    -0.119 C  
BRANCH   3   4
HETATM    4  C   UNL     1      -7.644   5.878  67.667  1.00  0.00    -0.089 C  
HETATM    5  C   UNL     1      -6.462   6.802  68.024  1.00  0.00    -0.053 C  
BRANCH   4   6
HETATM    6  C   UNL     1      -7.091   4.464  67.328  1.00  0.00    -0.068 C  
BRANCH   6   7
HETATM    7  O   UNL     1      -8.160   3.572  66.959  1.00  0.00    -0.086 OA 
BRANCH   7   8
HETATM    8  C   UNL     1      -8.244   3.232  65.647  1.00  0.00    -0.098 C  
HETATM    9  H   UNL     1     -10.170   2.705  66.137  1.00  0.00     0.000 HD 
HETATM   10  O   UNL     1      -7.332   3.316  64.836  1.00  0.00    -0.068 OA 
HETATM   11  N   UNL     1      -9.503   2.796  65.370  1.00  0.00    -0.072 N  
BRANCH  11  12
HETATM   12  C   UNL     1      -9.933   2.456  64.025  1.00  0.00    -0.107 C  
HETATM   13  C   UNL     1      -8.852   1.675  63.290  1.00  0.00    -0.086 C  
HETATM   14  C   UNL     1     -10.315   3.714  63.245  1.00  0.00    -0.218 C  
ENDBRANCH  11  12
ENDBRANCH   7   8
ENDBRANCH   6   7
ENDBRANCH   4   6
BRANCH   4  15
HETATM   15  C   UNL     1      -8.588   5.786  68.893  1.00  0.00    -0.106 C  
BRANCH  15  16
HETATM   16  O   UNL     1      -9.841   6.429  68.601  1.00  0.00    -0.138 OA 
BRANCH  16  17
HETATM   17  C   UNL     1     -10.545   6.886  69.661  1.00  0.00    -0.231 C  
HETATM   18  O   UNL     1     -11.496   6.343  70.199  1.00  0.00    -0.385 OA 
HETATM   19  H1  UNL     1     -10.593   8.433  70.847  1.00  0.00     0.000 HD 
HETATM   20  N   UNL     1     -10.062   8.088  70.048  1.00  0.00    -0.193 N  
HETATM   21  H2  UNL     1      -9.283   8.576  69.606  1.00  0.00     0.000 HD 
ENDBRANCH  16  17
ENDBRANCH  15  16
ENDBRANCH   4  15
ENDBRANCH   3   4
ENDBRANCH   2   3
TORSDOF 9
ENDMDL
MODEL      275
REMARK 921   NORMALIZED FREE ENERGY PREDICTED BY IDOCK:    0.38 KCAL/MOL
REMARK 922        TOTAL FREE ENERGY PREDICTED BY IDOCK:   -0.37 KCAL/MOL
REMARK 923 INTER-LIGAND FREE ENERGY PREDICTED BY IDOCK:   -1.16 KCAL/MOL
REMARK 924 INTRA-LIGAND FREE ENERGY PREDICTED BY IDOCK:    0.80 KCAL/MOL
REMARK 927      BINDING AFFINITY PREDICTED BY RF-SCORE:    0.00 PKD
ROOT
HETATM    1  C   UNL     1      -6.536   6.899  64.517  1.00  0.00    -0.042 C  
HETATM    2  C   UNL     1      -7.306   7.180  65.801  1.00  0.00    -0.075 C  
ENDROOT
BRANCH   2   3
HETATM    3  C   UNL     1      -7.673   5.884  66.537  1.00  0.00    -0.100 C  
BRANCH   3   4
HETATM    4  C   UNL     1      -7.056   5.717  67.962  1.00  0.00    -0.071 C  
HETATM    5  C   UNL     1      -6.676   7.092  68.547  1.00  0.00    -0.064 C  
BRANCH   4   6
HETATM    6  C   UNL     1      -5.768   4.856  67.820  1.00  0.00    -0.017 C  
BRANCH   6   7
HETATM    7  O   UNL     1      -6.088   3.525  67.374  1.00  0.00    -0.027 OA 
BRANCH   7   8
HETATM    8  C   UNL     1      -5.990   3.290  66.040  1.00  0.00    -0.023 C  
HETATM    9  H   UNL     1      -6.559   1.384  66.562  1.00  0.00     0.000 HD 
HETATM   10  O   UNL     1      -5.644   4.110  65.202  1.00  0.00    -0.013 OA 
HETATM   11  N   UNL     1      -6.349   2.003  65.779  1.00  0.00    -0.023 N  
BRANCH  11  12
HETATM   12  C   UNL     1      -6.445   1.479  64.427  1.00  0.00    -0.018 C  
HETATM   13  C   UNL     1      -5.278   1.959  63.575  1.00  0.00    -0.004 C  
HETATM   14  C   UNL     1      -7.777   1.870  63.789  1.00  0.00    -0.060 C  
ENDBRANCH  11  12
ENDBRANCH   7   8
ENDBRANCH   6   7
ENDBRANCH   4   6
BRANCH   4  15
HETATM   15  C   UNL     1      -8.041   5.020  68.936  1.00  0.00    -0.084 C  
BRANCH  15  16
HETATM   16  O   UNL     1      -9.044   4.302  68.196  1.00  0.00    -0.115 OA 
BRANCH  16  17
HETATM   17  C   UNL     1      -9.131   2.974  68.431  1.00  0.00    -0.161 C  
HETATM   18  O   UNL     1      -9.222   2.087  67.598  1.00  0.00    -0.157 OA 
HETATM   19  H1  UNL     1      -9.202   1.741  69.940  1.00  0.00     0.000 HD 
HETATM   20  N   UNL     1      -9.136   2.743  69.763  1.00  0.00    -0.110 N  
HETATM   21  H2  UNL     1      -9.082   3.464  70.483  1.00  0.00     0.000 HD 
ENDBRANCH  16  17
ENDBRANCH  15  16
ENDBRANCH   4  15
ENDBRANCH   3   4
ENDBRANCH   2   3
TORSDOF 9
ENDMDL
MODEL      276
REMARK 921   NORMALIZED FREE ENERGY PREDICTED BY IDOCK:    0.88 KCAL/MOL
REMARK 922        TOTAL FREE ENERGY PREDICTED BY IDOCK:    0.40 KCAL/MOL
REMARK 923 INTER-LIGAND FREE ENERGY PREDICTED BY IDOCK:   -3.58 KCAL/MOL
REMARK 924 INTRA-LIGAND FREE ENERGY PREDICTED BY IDOCK:    3.98 KCAL/MOL
REMARK 927      BINDING AFFINITY PREDICTED BY RF-SCORE:    0.00 PKD
ROOT
HETATM    1  C   UNL     1     -10.935  19.482  65.692  1.00  0.00    -0.221 C  
HETATM    2  C   UNL     1      -9.898  18.374  65.822  1.00  0.00     0.159 C  
ENDROOT
BRANCH   2   3
HETATM    3  C   UNL     1     -10.551  16.985  65.838  1.00  0.00    -0.221 C  
BRANCH   3   4
HETATM    4  C   UNL     1     -10.087  16.031  66.983  1.00  0.00    -0.271 C  
HETATM    5  C   UNL     1      -9.471  16.842  68.140  1.00  0.00    -0.251 C  
BRANCH   4   6
HETATM    6  C   UNL     1      -8.999  15.085  66.397  1.00  0.00    -0.251 C  
BRANCH   6   7
HETATM    7  O   UNL     1      -7.695  15.691  66.482  1.00  0.00    -0.140 OA 
BRANCH   7   8
HETATM    8  C   UNL     1      -7.278  16.066  67.719  1.00  0.00    -0.143 C  
HETATM    9  H   UNL     1      -7.157  17.934  66.867  1.00  0.00     0.000 HD 
HETATM   10  O   UNL     1      -7.129  15.314  68.672  1.00  0.00    -0.109 OA 
HETATM   11  N   UNL     1      -7.064  17.410  67.738  1.00  0.00    -0.168 N  
BRANCH  11  12
HETATM   12  C   UNL     1      -6.709  18.127  68.951  1.00  0.00    -0.252 C  
HETATM   13  C   UNL     1      -7.627  19.322  69.164  1.00  0.00    -0.297 C  
HETATM   14  C   UNL     1      -5.246  18.569  68.909  1.00  0.00    -0.189 C  
ENDBRANCH  11  12
ENDBRANCH   7   8
ENDBRANCH   6   7
ENDBRANCH   4   6
BRANCH   4  15
HETATM   15  C   UNL     1     -11.262  15.187  67.540  1.00  0.00    -0.330 C  
BRANCH  15  16
HETATM   16  O   UNL     1     -10.817  13.851  67.830  1.00  0.00    -0.239 OA 
BRANCH  16  17
HETATM   17  C   UNL     1     -10.991  12.932  66.853  1.00  0.00    -0.266 C  
HETATM   18  O   UNL     1     -10.128  12.247  66.330  1.00  0.00    -0.224 OA 
HETATM   19  H1  UNL     1     -12.424  12.195  65.756  1.00  0.00     0.000 HD 
HETATM   20  N   UNL     1     -12.294  12.888  66.493  1.00  0.00    -0.173 N  
HETATM   21  H2  UNL     1     -13.033  13.461  66.897  1.00  0.00     0.000 HD 
ENDBRANCH  16  17
ENDBRANCH  15  16
ENDBRANCH   4  15
ENDBRANCH   3   4
ENDBRANCH   2   3
TORSDOF 9
ENDMDL
MODEL      277
REMARK 921   NORMALIZED FREE ENERGY PREDICTED BY IDOCK:    0.98 KCAL/MOL
REMARK 922        TOTAL FREE ENERGY PREDICTED BY IDOCK:    0.55 KCAL/MOL
REMARK 923 INTER-LIGAND FREE ENERGY PREDICTED BY IDOCK:   -1.90 KCAL/MOL
REMARK 924 INTRA-LIGAND FREE ENERGY PREDICTED BY IDOCK:    2.45 KCAL/MOL
REMARK 927      BINDING AFFINITY PREDICTED BY RF-SCORE:    0.00 PKD
ROOT
HETATM    1  C   UNL     1     -12.391  13.338  66.734  1.00  0.00    -0.239 C  
HETATM    2  C   UNL     1     -11.567  12.340  67.537  1.00  0.00    -0.422 C  
ENDROOT
BRANCH   2   3
HETATM    3  C   UNL     1     -10.072  12.440  67.204  1.00  0.00    -0.221 C  
BRANCH   3   4
HETATM    4  C   UNL     1      -9.473  13.881  67.201  1.00  0.00    -0.246 C  
HETATM    5  C   UNL     1      -8.509  14.059  66.010  1.00  0.00     1.192 C  
BRANCH   4   6
HETATM    6  C   UNL     1      -8.675  14.063  68.524  1.00  0.00    -0.156 C  
BRANCH   6   7
HETATM    7  O   UNL     1      -7.257  14.063  68.272  1.00  0.00    -0.092 OA 
BRANCH   7   8
HETATM    8  C   UNL     1      -6.618  12.871  68.393  1.00  0.00    -0.085 C  
HETATM    9  H   UNL     1      -8.252  12.366  69.536  1.00  0.00     0.000 HD 
HETATM   10  O   UNL     1      -5.528  12.601  67.910  1.00  0.00    -0.078 OA 
HETATM   11  N   UNL     1      -7.386  12.017  69.125  1.00  0.00    -0.015 N  
BRANCH  11  12
HETATM   12  C   UNL     1      -7.018  10.629  69.342  1.00  0.00    -0.106 C  
HETATM   13  C   UNL     1      -5.983  10.175  68.321  1.00  0.00    -0.041 C  
HETATM   14  C   UNL     1      -8.252   9.729  69.298  1.00  0.00    -0.132 C  
ENDBRANCH  11  12
ENDBRANCH   7   8
ENDBRANCH   6   7
ENDBRANCH   4   6
BRANCH   4  15
HETATM   15  C   UNL     1     -10.578  14.964  67.108  1.00  0.00    -0.285 C  
BRANCH  15  16
HETATM   16  O   UNL     1     -10.027  16.259  67.404  1.00  0.00    -0.241 OA 
BRANCH  16  17
HETATM   17  C   UNL     1     -10.259  16.743  68.645  1.00  0.00    -0.298 C  
HETATM   18  O   UNL     1      -9.607  17.588  69.236  1.00  0.00    -0.101 OA 
HETATM   19  H1  UNL     1     -11.507  16.488  70.122  1.00  0.00     0.000 HD 
HETATM   20  N   UNL     1     -11.332  16.123  69.186  1.00  0.00    -0.331 N  
HETATM   21  H2  UNL     1     -11.884  15.399  68.726  1.00  0.00     0.000 HD 
ENDBRANCH  16  17
ENDBRANCH  15  16
ENDBRANCH   4  15
ENDBRANCH   3   4
ENDBRANCH   2   3
TORSDOF 9
ENDMDL
MODEL      278
REMARK 921   NORMALIZED FREE ENERGY PREDICTED BY IDOCK:    3.35 KCAL/MOL
REMARK 922        TOTAL FREE ENERGY PREDICTED BY IDOCK:    4.16 KCAL/MOL
REMARK 923 INTER-LIGAND FREE ENERGY PREDICTED BY IDOCK:    1.66 KCAL/MOL
REMARK 924 INTRA-LIGAND FREE ENERGY PREDICTED BY IDOCK:    2.50 KCAL/MOL
REMARK 927      BINDING AFFINITY PREDICTED BY RF-SCORE:    0.00 PKD
ROOT
HETATM    1  C   UNL     1      -7.120  14.713  66.455  1.00  0.00     2.566 C  
HETATM    2  C   UNL     1      -6.067  15.408  67.309  1.00  0.00     0.145 C  
ENDROOT
BRANCH   2   3
HETATM    3  C   UNL     1      -6.478  15.456  68.787  1.00  0.00    -0.105 C  
BRANCH   3   4
HETATM    4  C   UNL     1      -8.008  15.337  69.070  1.00  0.00    -0.195 C  
HETATM    5  C   UNL     1      -8.256  15.027  70.560  1.00  0.00     1.320 C  
BRANCH   4   6
HETATM    6  C   UNL     1      -8.556  14.158  68.215  1.00  0.00    -0.175 C  
BRANCH   6   7
HETATM    7  O   UNL     1      -8.984  13.070  69.057  1.00  0.00     0.245 OA 
BRANCH   7   8
HETATM    8  C   UNL     1      -8.397  11.865  68.838  1.00  0.00     0.116 C  
HETATM    9  H   UNL     1     -10.297  11.292  68.296  1.00  0.00     0.000 HD 
HETATM   10  O   UNL     1      -7.218  11.608  69.031  1.00  0.00    -0.110 OA 
HETATM   11  N   UNL     1      -9.324  10.991  68.358  1.00  0.00    -0.172 N  
BRANCH  11  12
HETATM   12  C   UNL     1      -8.979   9.646  67.931  1.00  0.00    -0.118 C  
HETATM   13  C   UNL     1      -7.924   9.039  68.846  1.00  0.00    -0.100 C  
HETATM   14  C   UNL     1      -8.501   9.645  66.479  1.00  0.00    -0.127 C  
ENDBRANCH  11  12
ENDBRANCH   7   8
ENDBRANCH   6   7
ENDBRANCH   4   6
BRANCH   4  15
HETATM   15  C   UNL     1      -8.765  16.639  68.703  1.00  0.00    -0.250 C  
BRANCH  15  16
HETATM   16  O   UNL     1      -9.077  16.650  67.299  1.00  0.00    -0.211 OA 
BRANCH  16  17
HETATM   17  C   UNL     1      -9.812  17.694  66.853  1.00  0.00    -0.306 C  
HETATM   18  O   UNL     1     -10.450  17.751  65.815  1.00  0.00    -0.556 OA 
HETATM   19  H1  UNL     1     -10.276  19.511  67.389  1.00  0.00     0.000 HD 
HETATM   20  N   UNL     1      -9.722  18.723  67.726  1.00  0.00    -0.309 N  
HETATM   21  H2  UNL     1      -9.181  18.713  68.590  1.00  0.00     0.000 HD 
ENDBRANCH  16  17
ENDBRANCH  15  16
ENDBRANCH   4  15
ENDBRANCH   3   4
ENDBRANCH   2   3
TORSDOF 9
ENDMDL
MODEL      279
REMARK 921   NORMALIZED FREE ENERGY PREDICTED BY IDOCK:   18.81 KCAL/MOL
REMARK 922        TOTAL FREE ENERGY PREDICTED BY IDOCK:   27.75 KCAL/MOL
REMARK 923 INTER-LIGAND FREE ENERGY PREDICTED BY IDOCK:   21.22 KCAL/MOL
REMARK 924 INTRA-LIGAND FREE ENERGY PREDICTED BY IDOCK:    6.54 KCAL/MOL
REMARK 927      BINDING AFFINITY PREDICTED BY RF-SCORE:    0.00 PKD
ROOT
HETATM    1  C   UNL     1      -7.129  15.670  67.489  1.00  0.00    -0.214 C  
HETATM    2  C   UNL     1      -7.468  16.613  68.636  1.00  0.00    -0.211 C  
ENDROOT
BRANCH   2   3
HETATM    3  C   UNL     1      -8.623  16.075  69.491  1.00  0.00    -0.034 C  
BRANCH   3   4
HETATM    4  C   UNL     1      -9.254  17.090  70.495  1.00  0.00     3.315 C  
HETATM    5  C   UNL     1     -10.300  17.971  69.781  1.00  0.00     0.643 C  
BRANCH   4   6
HETATM    6  C   UNL     1      -8.110  18.001  71.027  1.00  0.00     6.584 C  
BRANCH   6   7
HETATM    7  O   UNL     1      -7.344  18.549  69.938  1.00  0.00     0.347 OA 
BRANCH   7   8
HETATM    8  C   UNL     1      -7.925  19.551  69.229  1.00  0.00    -0.080 C  
HETATM    9  H   UNL     1      -9.000  18.021  68.374  1.00  0.00     0.000 HD 
HETATM   10  O   UNL     1      -7.637  20.737  69.316  1.00  0.00     0.799 OA 
HETATM   11  N   UNL     1      -8.887  19.034  68.416  1.00  0.00    -0.330 N  
BRANCH  11  12
HETATM   12  C   UNL     1      -9.756  19.870  67.607  1.00  0.00    -0.385 C  
HETATM   13  C   UNL     1      -9.304  19.876  66.153  1.00  0.00    -0.442 C  
HETATM   14  C   UNL     1      -9.809  21.293  68.163  1.00  0.00     0.562 C  
ENDBRANCH  11  12
ENDBRANCH   7   8
ENDBRANCH   6   7
ENDBRANCH   4   6
BRANCH   4  15
HETATM   15  C   UNL     1      -9.942  16.372  71.684  1.00  0.00     4.188 C  
BRANCH  15  16
HETATM   16  O   UNL     1     -10.010  14.958  71.435  1.00  0.00     1.241 OA 
BRANCH  16  17
HETATM   17  C   UNL     1     -11.160  14.339  71.783  1.00  0.00     1.702 C  
HETATM   18  O   UNL     1     -11.285  13.193  72.182  1.00  0.00     3.852 OA 
HETATM   19  H1  UNL     1     -13.074  14.709  71.857  1.00  0.00     0.000 HD 
HETATM   20  N   UNL     1     -12.206  15.176  71.594  1.00  0.00    -0.319 N  
HETATM   21  H2  UNL     1     -12.136  16.131  71.243  1.00  0.00     0.000 HD 
ENDBRANCH  16  17
ENDBRANCH  15  16
ENDBRANCH   4  15
ENDBRANCH   3   4
ENDBRANCH   2   3
TORSDOF 9
ENDMDL
