MODEL        1
REMARK 921   NORMALIZED FREE ENERGY PREDICTED BY IDOCK:   -5.54 KCAL/MOL
REMARK 922        TOTAL FREE ENERGY PREDICTED BY IDOCK:   -7.25 KCAL/MOL
REMARK 923 INTER-LIGAND FREE ENERGY PREDICTED BY IDOCK:   -7.16 KCAL/MOL
REMARK 924 INTRA-LIGAND FREE ENERGY PREDICTED BY IDOCK:   -0.08 KCAL/MOL
REMARK 927      BINDING AFFINITY PREDICTED BY RF-SCORE:    0.00 PKD
ROOT
HETATM    1 CL   UNL     1      -9.636  11.799  62.949  1.00  0.00    -0.270 Cl 
HETATM    2  C   UNL     1     -11.089  11.387  63.897  1.00  0.00    -0.329 C  
HETATM    3  C   UNL     1     -12.335  12.057  63.331  1.00  0.00    -0.523 C  
ENDROOT
BRANCH   3   4
HETATM    4  N   UNL     1     -12.232  13.510  63.270  1.00  0.00    -1.002 N  
HETATM    5  H   UNL     1     -12.093  13.971  62.372  1.00  0.00     0.000 HD 
BRANCH   4   6
HETATM    6  C   UNL     1     -12.321  14.263  64.423  1.00  0.00    -0.391 C  
HETATM    7  O   UNL     1     -13.263  14.084  65.197  1.00  0.00    -0.768 OA 
BRANCH   6   8
HETATM    8  N   UNL     1     -11.320  15.213  64.610  1.00  0.00    -0.381 N  
BRANCH   8   9
HETATM    9  C   UNL     1     -10.087  15.033  65.392  1.00  0.00    -0.362 C  
HETATM   10 CL   UNL     1     -11.269  14.165  67.714  1.00  0.00    -0.292 Cl 
HETATM   11  C   UNL     1     -10.259  15.371  66.872  1.00  0.00    -0.273 C  
ENDBRANCH   8   9
BRANCH   8  12
HETATM   12  N   UNL     1     -11.557  16.456  63.988  1.00  0.00    -1.542 NA 
HETATM   13  H   UNL     1     -12.557  16.594  63.840  1.00  0.00     0.000 HD 
HETATM   14  H   UNL     1     -11.230  18.261  64.162  1.00  0.00     0.000 HD 
HETATM   15  O   UNL     1     -11.070  17.424  64.582  1.00  0.00    -1.029 OA 
ENDBRANCH   8  12
ENDBRANCH   6   8
ENDBRANCH   4   6
ENDBRANCH   3   4
TORSDOF 5
ENDMDL
MODEL        2
REMARK 921   NORMALIZED FREE ENERGY PREDICTED BY IDOCK:   -5.14 KCAL/MOL
REMARK 922        TOTAL FREE ENERGY PREDICTED BY IDOCK:   -6.72 KCAL/MOL
REMARK 923 INTER-LIGAND FREE ENERGY PREDICTED BY IDOCK:   -6.26 KCAL/MOL
REMARK 924 INTRA-LIGAND FREE ENERGY PREDICTED BY IDOCK:   -0.47 KCAL/MOL
REMARK 927      BINDING AFFINITY PREDICTED BY RF-SCORE:    0.00 PKD
ROOT
HETATM    1 CL   UNL     1      -9.738  11.975  63.173  1.00  0.00    -0.251 Cl 
HETATM    2  C   UNL     1     -11.263  11.468  63.945  1.00  0.00    -0.355 C  
HETATM    3  C   UNL     1     -12.442  12.302  63.456  1.00  0.00    -0.534 C  
ENDROOT
BRANCH   3   4
HETATM    4  N   UNL     1     -12.272  13.731  63.687  1.00  0.00    -0.900 N  
HETATM    5  H   UNL     1     -12.045  14.347  62.906  1.00  0.00     0.000 HD 
BRANCH   4   6
HETATM    6  C   UNL     1     -12.417  14.254  64.955  1.00  0.00    -0.400 C  
HETATM    7  O   UNL     1     -13.462  14.061  65.579  1.00  0.00    -0.677 OA 
BRANCH   6   8
HETATM    8  N   UNL     1     -11.344  15.003  65.433  1.00  0.00    -0.346 N  
BRANCH   8   9
HETATM    9  C   UNL     1     -10.738  14.899  66.769  1.00  0.00    -0.312 C  
HETATM   10 CL   UNL     1     -10.800  17.572  67.391  1.00  0.00    -0.243 Cl 
HETATM   11  C   UNL     1      -9.847  16.089  67.119  1.00  0.00    -0.236 C  
ENDBRANCH   8   9
BRANCH   8  12
HETATM   12  N   UNL     1     -10.830  15.950  64.523  1.00  0.00    -0.855 NA 
HETATM   13  H   UNL     1     -10.173  15.506  63.881  1.00  0.00     0.000 HD 
HETATM   14  H   UNL     1     -11.346  17.212  63.283  1.00  0.00     0.000 HD 
HETATM   15  O   UNL     1     -11.693  16.573  63.896  1.00  0.00    -1.148 OA 
ENDBRANCH   8  12
ENDBRANCH   6   8
ENDBRANCH   4   6
ENDBRANCH   3   4
TORSDOF 5
ENDMDL
MODEL        3
REMARK 921   NORMALIZED FREE ENERGY PREDICTED BY IDOCK:   -4.98 KCAL/MOL
REMARK 922        TOTAL FREE ENERGY PREDICTED BY IDOCK:   -6.51 KCAL/MOL
REMARK 923 INTER-LIGAND FREE ENERGY PREDICTED BY IDOCK:   -6.34 KCAL/MOL
REMARK 924 INTRA-LIGAND FREE ENERGY PREDICTED BY IDOCK:   -0.17 KCAL/MOL
REMARK 927      BINDING AFFINITY PREDICTED BY RF-SCORE:    0.00 PKD
ROOT
HETATM    1 CL   UNL     1      -9.708  10.183  65.064  1.00  0.00    -0.362 Cl 
HETATM    2  C   UNL     1     -10.523  11.009  63.710  1.00  0.00    -0.341 C  
HETATM    3  C   UNL     1     -10.478  12.524  63.871  1.00  0.00    -0.434 C  
ENDROOT
BRANCH   3   4
HETATM    4  N   UNL     1     -11.080  12.990  65.113  1.00  0.00    -0.287 N  
HETATM    5  H   UNL     1     -10.943  12.460  65.974  1.00  0.00     0.000 HD 
BRANCH   4   6
HETATM    6  C   UNL     1     -11.836  14.145  65.131  1.00  0.00    -0.372 C  
HETATM    7  O   UNL     1     -13.065  14.068  65.172  1.00  0.00    -0.776 OA 
BRANCH   6   8
HETATM    8  N   UNL     1     -11.124  15.341  65.073  1.00  0.00    -0.408 N  
BRANCH   8   9
HETATM    9  C   UNL     1     -10.021  15.739  65.959  1.00  0.00    -0.332 C  
HETATM   10 CL   UNL     1     -11.045  14.695  68.283  1.00  0.00    -0.269 Cl 
HETATM   11  C   UNL     1     -10.485  16.118  67.364  1.00  0.00    -0.310 C  
ENDBRANCH   8   9
BRANCH   8  12
HETATM   12  N   UNL     1     -11.544  16.233  64.065  1.00  0.00    -1.504 NA 
HETATM   13  H   UNL     1     -12.513  16.045  63.805  1.00  0.00     0.000 HD 
HETATM   14  H   UNL     1     -11.679  18.027  63.667  1.00  0.00     0.000 HD 
HETATM   15  O   UNL     1     -11.397  17.427  64.347  1.00  0.00    -0.949 OA 
ENDBRANCH   8  12
ENDBRANCH   6   8
ENDBRANCH   4   6
ENDBRANCH   3   4
TORSDOF 5
ENDMDL
MODEL        4
REMARK 921   NORMALIZED FREE ENERGY PREDICTED BY IDOCK:   -4.89 KCAL/MOL
REMARK 922        TOTAL FREE ENERGY PREDICTED BY IDOCK:   -6.40 KCAL/MOL
REMARK 923 INTER-LIGAND FREE ENERGY PREDICTED BY IDOCK:   -6.39 KCAL/MOL
REMARK 924 INTRA-LIGAND FREE ENERGY PREDICTED BY IDOCK:   -0.01 KCAL/MOL
REMARK 927      BINDING AFFINITY PREDICTED BY RF-SCORE:    0.00 PKD
ROOT
HETATM    1 CL   UNL     1     -10.293  10.283  65.462  1.00  0.00    -0.294 Cl 
HETATM    2  C   UNL     1      -9.585  10.648  63.867  1.00  0.00    -0.306 C  
HETATM    3  C   UNL     1     -10.055  12.000  63.342  1.00  0.00    -0.408 C  
ENDROOT
BRANCH   3   4
HETATM    4  N   UNL     1     -11.504  12.101  63.227  1.00  0.00    -0.702 N  
HETATM    5  H   UNL     1     -11.990  11.606  62.480  1.00  0.00     0.000 HD 
BRANCH   4   6
HETATM    6  C   UNL     1     -12.223  12.865  64.125  1.00  0.00    -0.414 C  
HETATM    7  O   UNL     1     -13.293  12.442  64.565  1.00  0.00    -0.800 OA 
BRANCH   6   8
HETATM    8  N   UNL     1     -11.673  14.102  64.452  1.00  0.00    -0.403 N  
BRANCH   8   9
HETATM    9  C   UNL     1     -10.629  14.350  65.457  1.00  0.00    -0.347 C  
HETATM   10 CL   UNL     1     -11.767  12.917  67.504  1.00  0.00    -0.409 Cl 
HETATM   11  C   UNL     1     -11.179  14.480  66.876  1.00  0.00    -0.336 C  
ENDBRANCH   8   9
BRANCH   8  12
HETATM   12  N   UNL     1     -12.206  15.195  63.738  1.00  0.00    -0.980 NA 
HETATM   13  H   UNL     1     -13.205  15.286  63.921  1.00  0.00     0.000 HD 
HETATM   14  H   UNL     1     -11.989  17.005  63.466  1.00  0.00     0.000 HD 
HETATM   15  O   UNL     1     -11.630  16.269  63.947  1.00  0.00    -0.987 OA 
ENDBRANCH   8  12
ENDBRANCH   6   8
ENDBRANCH   4   6
ENDBRANCH   3   4
TORSDOF 5
ENDMDL
MODEL        5
REMARK 921   NORMALIZED FREE ENERGY PREDICTED BY IDOCK:   -4.84 KCAL/MOL
REMARK 922        TOTAL FREE ENERGY PREDICTED BY IDOCK:   -6.34 KCAL/MOL
REMARK 923 INTER-LIGAND FREE ENERGY PREDICTED BY IDOCK:   -5.75 KCAL/MOL
REMARK 924 INTRA-LIGAND FREE ENERGY PREDICTED BY IDOCK:   -0.58 KCAL/MOL
REMARK 927      BINDING AFFINITY PREDICTED BY RF-SCORE:    0.00 PKD
ROOT
HETATM    1 CL   UNL     1     -10.466  19.539  65.828  1.00  0.00    -0.565 Cl 
HETATM    2  C   UNL     1     -10.649  18.884  67.475  1.00  0.00    -0.451 C  
HETATM    3  C   UNL     1     -10.119  17.458  67.572  1.00  0.00    -0.322 C  
ENDROOT
BRANCH   3   4
HETATM    4  N   UNL     1     -10.767  16.538  66.646  1.00  0.00    -0.215 N  
HETATM    5  H   UNL     1     -11.779  16.410  66.682  1.00  0.00     0.000 HD 
BRANCH   4   6
HETATM    6  C   UNL     1     -10.019  15.840  65.720  1.00  0.00    -0.358 C  
HETATM    7  O   UNL     1      -8.816  16.076  65.605  1.00  0.00    -0.281 OA 
BRANCH   6   8
HETATM    8  N   UNL     1     -10.715  14.912  64.948  1.00  0.00    -0.416 N  
BRANCH   8   9
HETATM    9  C   UNL     1     -10.524  13.454  64.962  1.00  0.00    -0.365 C  
HETATM   10 CL   UNL     1     -11.768  12.961  67.360  1.00  0.00    -0.415 Cl 
HETATM   11  C   UNL     1     -10.290  12.892  66.363  1.00  0.00    -0.268 C  
ENDBRANCH   8   9
BRANCH   8  12
HETATM   12  N   UNL     1     -11.671  15.465  64.073  1.00  0.00    -0.894 NA 
HETATM   13  H   UNL     1     -12.613  15.201  64.362  1.00  0.00     0.000 HD 
HETATM   14  H   UNL     1     -12.234  17.064  63.349  1.00  0.00     0.000 HD 
HETATM   15  O   UNL     1     -11.590  16.691  63.939  1.00  0.00    -1.204 OA 
ENDBRANCH   8  12
ENDBRANCH   6   8
ENDBRANCH   4   6
ENDBRANCH   3   4
TORSDOF 5
ENDMDL
MODEL        6
REMARK 921   NORMALIZED FREE ENERGY PREDICTED BY IDOCK:   -4.83 KCAL/MOL
REMARK 922        TOTAL FREE ENERGY PREDICTED BY IDOCK:   -6.33 KCAL/MOL
REMARK 923 INTER-LIGAND FREE ENERGY PREDICTED BY IDOCK:   -5.75 KCAL/MOL
REMARK 924 INTRA-LIGAND FREE ENERGY PREDICTED BY IDOCK:   -0.57 KCAL/MOL
REMARK 927      BINDING AFFINITY PREDICTED BY RF-SCORE:    0.00 PKD
ROOT
HETATM    1 CL   UNL     1     -12.385  12.192  63.326  1.00  0.00    -0.617 Cl 
HETATM    2  C   UNL     1     -10.657  11.883  63.637  1.00  0.00    -0.446 C  
HETATM    3  C   UNL     1     -10.148  12.698  64.821  1.00  0.00    -0.217 C  
ENDROOT
BRANCH   3   4
HETATM    4  N   UNL     1     -10.327  14.134  64.652  1.00  0.00    -0.606 N  
HETATM    5  H   UNL     1      -9.859  14.617  63.886  1.00  0.00     0.000 HD 
BRANCH   4   6
HETATM    6  C   UNL     1     -11.127  14.843  65.525  1.00  0.00    -0.352 C  
HETATM    7  O   UNL     1     -12.036  14.266  66.124  1.00  0.00    -0.407 OA 
BRANCH   6   8
HETATM    8  N   UNL     1     -10.848  16.203  65.641  1.00  0.00    -0.283 N  
BRANCH   8   9
HETATM    9  C   UNL     1     -10.359  16.889  66.846  1.00  0.00    -0.304 C  
HETATM   10 CL   UNL     1      -7.700  16.275  66.544  1.00  0.00    -0.291 Cl 
HETATM   11  C   UNL     1      -9.192  16.168  67.517  1.00  0.00    -0.208 C  
ENDBRANCH   8   9
BRANCH   8  12
HETATM   12  N   UNL     1     -11.085  16.959  64.475  1.00  0.00    -1.120 NA 
HETATM   13  H   UNL     1     -10.215  17.107  63.964  1.00  0.00     0.000 HD 
HETATM   14  H   UNL     1     -12.109  16.996  62.943  1.00  0.00     0.000 HD 
HETATM   15  O   UNL     1     -11.949  16.486  63.728  1.00  0.00    -0.902 OA 
ENDBRANCH   8  12
ENDBRANCH   6   8
ENDBRANCH   4   6
ENDBRANCH   3   4
TORSDOF 5
ENDMDL
MODEL        7
REMARK 921   NORMALIZED FREE ENERGY PREDICTED BY IDOCK:   -4.79 KCAL/MOL
REMARK 922        TOTAL FREE ENERGY PREDICTED BY IDOCK:   -6.28 KCAL/MOL
REMARK 923 INTER-LIGAND FREE ENERGY PREDICTED BY IDOCK:   -5.95 KCAL/MOL
REMARK 924 INTRA-LIGAND FREE ENERGY PREDICTED BY IDOCK:   -0.33 KCAL/MOL
REMARK 927      BINDING AFFINITY PREDICTED BY RF-SCORE:    0.00 PKD
ROOT
HETATM    1 CL   UNL     1      -9.955  19.896  68.668  1.00  0.00    -0.514 Cl 
HETATM    2  C   UNL     1      -9.312  19.913  67.006  1.00  0.00    -0.370 C  
HETATM    3  C   UNL     1     -10.229  19.167  66.043  1.00  0.00    -0.424 C  
ENDROOT
BRANCH   3   4
HETATM    4  N   UNL     1     -10.457  17.779  66.424  1.00  0.00    -0.332 N  
HETATM    5  H   UNL     1     -11.081  17.563  67.202  1.00  0.00     0.000 HD 
BRANCH   4   6
HETATM    6  C   UNL     1      -9.834  16.757  65.738  1.00  0.00    -0.180 C  
HETATM    7  O   UNL     1      -8.604  16.703  65.709  1.00  0.00    -0.464 OA 
BRANCH   6   8
HETATM    8  N   UNL     1     -10.676  15.853  65.093  1.00  0.00    -0.436 N  
BRANCH   8   9
HETATM    9  C   UNL     1     -10.800  14.419  65.389  1.00  0.00    -0.344 C  
HETATM   10 CL   UNL     1     -11.906  14.673  67.890  1.00  0.00    -0.372 Cl 
HETATM   11  C   UNL     1     -10.571  14.087  66.862  1.00  0.00    -0.280 C  
ENDBRANCH   8   9
BRANCH   8  12
HETATM   12  N   UNL     1     -11.452  16.405  64.053  1.00  0.00    -1.573 NA 
HETATM   13  H   UNL     1     -10.962  16.324  63.162  1.00  0.00     0.000 HD 
HETATM   14  H   UNL     1     -13.114  16.305  63.263  1.00  0.00     0.000 HD 
HETATM   15  O   UNL     1     -12.591  15.933  63.963  1.00  0.00    -0.661 OA 
ENDBRANCH   8  12
ENDBRANCH   6   8
ENDBRANCH   4   6
ENDBRANCH   3   4
TORSDOF 5
ENDMDL
MODEL        8
REMARK 921   NORMALIZED FREE ENERGY PREDICTED BY IDOCK:   -4.77 KCAL/MOL
REMARK 922        TOTAL FREE ENERGY PREDICTED BY IDOCK:   -6.24 KCAL/MOL
REMARK 923 INTER-LIGAND FREE ENERGY PREDICTED BY IDOCK:   -6.17 KCAL/MOL
REMARK 924 INTRA-LIGAND FREE ENERGY PREDICTED BY IDOCK:   -0.07 KCAL/MOL
REMARK 927      BINDING AFFINITY PREDICTED BY RF-SCORE:    0.00 PKD
ROOT
HETATM    1 CL   UNL     1     -12.215  14.162  69.846  1.00  0.00    -0.400 Cl 
HETATM    2  C   UNL     1     -10.934  15.363  69.539  1.00  0.00    -0.275 C  
HETATM    3  C   UNL     1     -11.008  15.911  68.119  1.00  0.00    -0.335 C  
ENDROOT
BRANCH   3   4
HETATM    4  N   UNL     1     -10.912  14.877  67.097  1.00  0.00    -0.315 N  
HETATM    5  H   UNL     1     -11.166  13.915  67.322  1.00  0.00     0.000 HD 
BRANCH   4   6
HETATM    6  C   UNL     1     -10.480  15.193  65.825  1.00  0.00    -0.339 C  
HETATM    7  O   UNL     1      -9.320  15.567  65.650  1.00  0.00    -0.302 OA 
BRANCH   6   8
HETATM    8  N   UNL     1     -11.431  15.083  64.812  1.00  0.00    -0.412 N  
BRANCH   8   9
HETATM    9  C   UNL     1     -12.384  13.979  64.632  1.00  0.00    -0.397 C  
HETATM   10 CL   UNL     1     -10.547  12.022  64.054  1.00  0.00    -0.376 Cl 
HETATM   11  C   UNL     1     -11.959  12.988  63.550  1.00  0.00    -0.545 C  
ENDBRANCH   8   9
BRANCH   8  12
HETATM   12  N   UNL     1     -11.436  16.146  63.885  1.00  0.00    -1.418 NA 
HETATM   13  H   UNL     1     -12.264  16.096  63.291  1.00  0.00     0.000 HD 
HETATM   14  H   UNL     1     -11.339  17.982  63.771  1.00  0.00     0.000 HD 
HETATM   15  O   UNL     1     -11.337  17.267  64.395  1.00  0.00    -1.052 OA 
ENDBRANCH   8  12
ENDBRANCH   6   8
ENDBRANCH   4   6
ENDBRANCH   3   4
TORSDOF 5
ENDMDL
MODEL        9
REMARK 921   NORMALIZED FREE ENERGY PREDICTED BY IDOCK:   -4.76 KCAL/MOL
REMARK 922        TOTAL FREE ENERGY PREDICTED BY IDOCK:   -6.23 KCAL/MOL
REMARK 923 INTER-LIGAND FREE ENERGY PREDICTED BY IDOCK:   -6.11 KCAL/MOL
REMARK 924 INTRA-LIGAND FREE ENERGY PREDICTED BY IDOCK:   -0.12 KCAL/MOL
REMARK 927      BINDING AFFINITY PREDICTED BY RF-SCORE:    0.00 PKD
ROOT
HETATM    1 CL   UNL     1     -10.722  19.177  66.958  1.00  0.00    -0.543 Cl 
HETATM    2  C   UNL     1      -9.480  17.972  67.388  1.00  0.00    -0.262 C  
HETATM    3  C   UNL     1      -9.386  16.868  66.342  1.00  0.00    -0.276 C  
ENDROOT
BRANCH   3   4
HETATM    4  N   UNL     1     -10.644  16.164  66.132  1.00  0.00    -0.306 N  
HETATM    5  H   UNL     1     -11.176  15.825  66.934  1.00  0.00     0.000 HD 
BRANCH   4   6
HETATM    6  C   UNL     1     -11.120  15.954  64.854  1.00  0.00    -0.389 C  
HETATM    7  O   UNL     1     -11.369  16.919  64.130  1.00  0.00    -1.208 OA 
BRANCH   6   8
HETATM    8  N   UNL     1     -11.310  14.624  64.484  1.00  0.00    -0.345 N  
BRANCH   8   9
HETATM    9  C   UNL     1     -10.374  13.515  64.720  1.00  0.00    -0.385 C  
HETATM   10 CL   UNL     1     -11.890  12.164  66.568  1.00  0.00    -0.391 Cl 
HETATM   11  C   UNL     1     -10.378  13.022  66.165  1.00  0.00    -0.278 C  
ENDBRANCH   8   9
BRANCH   8  12
HETATM   12  N   UNL     1     -12.521  14.363  63.810  1.00  0.00    -1.058 NA 
HETATM   13  H   UNL     1     -12.826  15.189  63.294  1.00  0.00     0.000 HD 
HETATM   14  H   UNL     1     -13.302  13.202  62.611  1.00  0.00     0.000 HD 
HETATM   15  O   UNL     1     -12.486  13.378  63.065  1.00  0.00    -0.667 OA 
ENDBRANCH   8  12
ENDBRANCH   6   8
ENDBRANCH   4   6
ENDBRANCH   3   4
TORSDOF 5
ENDMDL
MODEL       10
REMARK 921   NORMALIZED FREE ENERGY PREDICTED BY IDOCK:   -4.75 KCAL/MOL
REMARK 922        TOTAL FREE ENERGY PREDICTED BY IDOCK:   -6.22 KCAL/MOL
REMARK 923 INTER-LIGAND FREE ENERGY PREDICTED BY IDOCK:   -6.09 KCAL/MOL
REMARK 924 INTRA-LIGAND FREE ENERGY PREDICTED BY IDOCK:   -0.13 KCAL/MOL
REMARK 927      BINDING AFFINITY PREDICTED BY RF-SCORE:    0.00 PKD
ROOT
HETATM    1 CL   UNL     1     -10.811  15.119  69.970  1.00  0.00    -0.278 Cl 
HETATM    2  C   UNL     1     -12.009  13.869  69.544  1.00  0.00    -0.343 C  
HETATM    3  C   UNL     1     -11.885  13.449  68.084  1.00  0.00    -0.361 C  
ENDROOT
BRANCH   3   4
HETATM    4  N   UNL     1     -12.037  14.557  67.150  1.00  0.00    -0.536 N  
HETATM    5  H   UNL     1     -11.888  15.514  67.470  1.00  0.00     0.000 HD 
BRANCH   4   6
HETATM    6  C   UNL     1     -12.383  14.318  65.836  1.00  0.00    -0.403 C  
HETATM    7  O   UNL     1     -13.533  13.973  65.561  1.00  0.00    -0.677 OA 
BRANCH   6   8
HETATM    8  N   UNL     1     -11.362  14.467  64.900  1.00  0.00    -0.361 N  
BRANCH   8   9
HETATM    9  C   UNL     1     -10.532  13.389  64.341  1.00  0.00    -0.384 C  
HETATM   10 CL   UNL     1     -12.576  11.874  63.307  1.00  0.00    -0.635 Cl 
HETATM   11  C   UNL     1     -11.194  12.015  64.427  1.00  0.00    -0.344 C  
ENDBRANCH   8   9
BRANCH   8  12
HETATM   12  N   UNL     1     -11.125  15.793  64.486  1.00  0.00    -0.792 NA 
HETATM   13  H   UNL     1     -10.210  15.869  64.041  1.00  0.00     0.000 HD 
HETATM   14  H   UNL     1     -11.842  17.157  63.475  1.00  0.00     0.000 HD 
HETATM   15  O   UNL     1     -12.001  16.263  63.753  1.00  0.00    -0.973 OA 
ENDBRANCH   8  12
ENDBRANCH   6   8
ENDBRANCH   4   6
ENDBRANCH   3   4
TORSDOF 5
ENDMDL
MODEL       11
REMARK 921   NORMALIZED FREE ENERGY PREDICTED BY IDOCK:   -4.59 KCAL/MOL
REMARK 922        TOTAL FREE ENERGY PREDICTED BY IDOCK:   -6.01 KCAL/MOL
REMARK 923 INTER-LIGAND FREE ENERGY PREDICTED BY IDOCK:   -5.88 KCAL/MOL
REMARK 924 INTRA-LIGAND FREE ENERGY PREDICTED BY IDOCK:   -0.13 KCAL/MOL
REMARK 927      BINDING AFFINITY PREDICTED BY RF-SCORE:    0.00 PKD
ROOT
HETATM    1 CL   UNL     1     -11.128  11.944  63.365  1.00  0.00    -0.473 Cl 
HETATM    2  C   UNL     1     -11.136  12.340  65.103  1.00  0.00    -0.317 C  
HETATM    3  C   UNL     1     -11.574  13.780  65.346  1.00  0.00    -0.320 C  
ENDROOT
BRANCH   3   4
HETATM    4  N   UNL     1     -10.738  14.760  64.663  1.00  0.00    -0.606 N  
HETATM    5  H   UNL     1     -10.116  14.461  63.912  1.00  0.00     0.000 HD 
BRANCH   4   6
HETATM    6  C   UNL     1     -10.785  16.090  65.028  1.00  0.00    -0.378 C  
HETATM    7  O   UNL     1     -11.379  16.898  64.313  1.00  0.00    -1.202 OA 
BRANCH   6   8
HETATM    8  N   UNL     1     -10.111  16.425  66.200  1.00  0.00    -0.328 N  
BRANCH   8   9
HETATM    9  C   UNL     1     -10.726  16.693  67.509  1.00  0.00    -0.278 C  
HETATM   10 CL   UNL     1     -10.902  19.422  67.261  1.00  0.00    -0.599 Cl 
HETATM   11  C   UNL     1     -10.260  18.005  68.135  1.00  0.00    -0.384 C  
ENDBRANCH   8   9
BRANCH   8  12
HETATM   12  N   UNL     1      -8.710  16.521  66.073  1.00  0.00    -0.457 NA 
HETATM   13  H   UNL     1      -8.360  15.798  65.444  1.00  0.00     0.000 HD 
HETATM   14  H   UNL     1      -7.362  17.698  65.636  1.00  0.00     0.000 HD 
HETATM   15  O   UNL     1      -8.306  17.634  65.721  1.00  0.00    -0.537 OA 
ENDBRANCH   8  12
ENDBRANCH   6   8
ENDBRANCH   4   6
ENDBRANCH   3   4
TORSDOF 5
ENDMDL
MODEL       12
REMARK 921   NORMALIZED FREE ENERGY PREDICTED BY IDOCK:   -4.58 KCAL/MOL
REMARK 922        TOTAL FREE ENERGY PREDICTED BY IDOCK:   -6.01 KCAL/MOL
REMARK 923 INTER-LIGAND FREE ENERGY PREDICTED BY IDOCK:   -5.66 KCAL/MOL
REMARK 924 INTRA-LIGAND FREE ENERGY PREDICTED BY IDOCK:   -0.35 KCAL/MOL
REMARK 927      BINDING AFFINITY PREDICTED BY RF-SCORE:    0.00 PKD
ROOT
HETATM    1 CL   UNL     1     -10.423  19.444  66.676  1.00  0.00    -0.529 Cl 
HETATM    2  C   UNL     1      -9.157  18.263  67.099  1.00  0.00    -0.264 C  
HETATM    3  C   UNL     1      -9.228  17.025  66.213  1.00  0.00    -0.247 C  
ENDROOT
BRANCH   3   4
HETATM    4  N   UNL     1     -10.516  16.347  66.272  1.00  0.00    -0.310 N  
HETATM    5  H   UNL     1     -10.951  16.160  67.176  1.00  0.00     0.000 HD 
BRANCH   4   6
HETATM    6  C   UNL     1     -11.151  15.955  65.111  1.00  0.00    -0.311 C  
HETATM    7  O   UNL     1     -11.278  16.758  64.185  1.00  0.00    -1.155 OA 
BRANCH   6   8
HETATM    8  N   UNL     1     -11.635  14.649  65.090  1.00  0.00    -0.362 N  
BRANCH   8   9
HETATM    9  C   UNL     1     -12.159  13.899  66.241  1.00  0.00    -0.451 C  
HETATM   10 CL   UNL     1      -9.853  12.538  66.851  1.00  0.00    -0.223 Cl 
HETATM   11  C   UNL     1     -11.569  12.495  66.364  1.00  0.00    -0.391 C  
ENDBRANCH   8   9
BRANCH   8  12
HETATM   12  N   UNL     1     -11.585  14.018  63.831  1.00  0.00    -0.634 NA 
HETATM   13  H   UNL     1     -11.074  13.137  63.894  1.00  0.00     0.000 HD 
HETATM   14  H   UNL     1     -12.656  13.414  62.458  1.00  0.00     0.000 HD 
HETATM   15  O   UNL     1     -12.690  13.839  63.307  1.00  0.00    -0.783 OA 
ENDBRANCH   8  12
ENDBRANCH   6   8
ENDBRANCH   4   6
ENDBRANCH   3   4
TORSDOF 5
ENDMDL
MODEL       13
REMARK 921   NORMALIZED FREE ENERGY PREDICTED BY IDOCK:   -4.57 KCAL/MOL
REMARK 922        TOTAL FREE ENERGY PREDICTED BY IDOCK:   -5.99 KCAL/MOL
REMARK 923 INTER-LIGAND FREE ENERGY PREDICTED BY IDOCK:   -5.46 KCAL/MOL
REMARK 924 INTRA-LIGAND FREE ENERGY PREDICTED BY IDOCK:   -0.53 KCAL/MOL
REMARK 927      BINDING AFFINITY PREDICTED BY RF-SCORE:    0.00 PKD
ROOT
HETATM    1 CL   UNL     1      -7.633  16.201  66.756  1.00  0.00    -0.275 Cl 
HETATM    2  C   UNL     1      -9.013  17.297  66.487  1.00  0.00    -0.268 C  
HETATM    3  C   UNL     1     -10.327  16.529  66.390  1.00  0.00    -0.311 C  
ENDROOT
BRANCH   3   4
HETATM    4  N   UNL     1     -10.332  15.528  65.331  1.00  0.00    -0.379 N  
HETATM    5  H   UNL     1      -9.544  14.887  65.235  1.00  0.00     0.000 HD 
BRANCH   4   6
HETATM    6  C   UNL     1     -11.398  15.442  64.459  1.00  0.00    -0.313 C  
HETATM    7  O   UNL     1     -11.730  16.430  63.803  1.00  0.00    -1.049 OA 
BRANCH   6   8
HETATM    8  N   UNL     1     -12.048  14.211  64.409  1.00  0.00    -0.461 N  
BRANCH   8   9
HETATM    9  C   UNL     1     -11.847  13.163  63.397  1.00  0.00    -0.427 C  
HETATM   10 CL   UNL     1     -10.769  11.268  65.066  1.00  0.00    -0.344 Cl 
HETATM   11  C   UNL     1     -10.593  12.325  63.641  1.00  0.00    -0.462 C  
ENDBRANCH   8   9
BRANCH   8  12
HETATM   12  N   UNL     1     -12.991  13.996  65.435  1.00  0.00    -0.743 NA 
HETATM   13  H   UNL     1     -13.579  13.191  65.215  1.00  0.00     0.000 HD 
HETATM   14  H   UNL     1     -13.135  13.733  67.253  1.00  0.00     0.000 HD 
HETATM   15  O   UNL     1     -12.499  13.877  66.562  1.00  0.00    -0.424 OA 
ENDBRANCH   8  12
ENDBRANCH   6   8
ENDBRANCH   4   6
ENDBRANCH   3   4
TORSDOF 5
ENDMDL
MODEL       14
REMARK 921   NORMALIZED FREE ENERGY PREDICTED BY IDOCK:   -4.47 KCAL/MOL
REMARK 922        TOTAL FREE ENERGY PREDICTED BY IDOCK:   -5.86 KCAL/MOL
REMARK 923 INTER-LIGAND FREE ENERGY PREDICTED BY IDOCK:   -5.44 KCAL/MOL
REMARK 924 INTRA-LIGAND FREE ENERGY PREDICTED BY IDOCK:   -0.42 KCAL/MOL
REMARK 927      BINDING AFFINITY PREDICTED BY RF-SCORE:    0.00 PKD
ROOT
HETATM    1 CL   UNL     1     -12.165  12.220  63.498  1.00  0.00    -0.641 Cl 
HETATM    2  C   UNL     1     -11.554  11.999  65.158  1.00  0.00    -0.272 C  
HETATM    3  C   UNL     1     -11.228  13.334  65.817  1.00  0.00    -0.294 C  
ENDROOT
BRANCH   3   4
HETATM    4  N   UNL     1     -10.248  14.118  65.075  1.00  0.00    -0.512 N  
HETATM    5  H   UNL     1      -9.904  13.782  64.176  1.00  0.00     0.000 HD 
BRANCH   4   6
HETATM    6  C   UNL     1      -9.783  15.313  65.585  1.00  0.00    -0.325 C  
HETATM    7  O   UNL     1      -8.642  15.377  66.046  1.00  0.00    -0.134 OA 
BRANCH   6   8
HETATM    8  N   UNL     1     -10.680  16.379  65.558  1.00  0.00    -0.336 N  
BRANCH   8   9
HETATM    9  C   UNL     1     -11.158  17.140  66.722  1.00  0.00     0.334 C  
HETATM   10 CL   UNL     1     -10.610  19.648  65.748  1.00  0.00    -0.602 Cl 
HETATM   11  C   UNL     1     -10.339  18.400  66.994  1.00  0.00    -0.393 C  
ENDBRANCH   8   9
BRANCH   8  12
HETATM   12  N   UNL     1     -11.162  16.717  64.277  1.00  0.00    -1.380 NA 
HETATM   13  H   UNL     1     -10.418  16.635  63.584  1.00  0.00     0.000 HD 
HETATM   14  H   UNL     1     -12.481  16.302  63.059  1.00  0.00     0.000 HD 
HETATM   15  O   UNL     1     -12.156  16.074  63.922  1.00  0.00    -0.880 OA 
ENDBRANCH   8  12
ENDBRANCH   6   8
ENDBRANCH   4   6
ENDBRANCH   3   4
TORSDOF 5
ENDMDL
MODEL       15
REMARK 921   NORMALIZED FREE ENERGY PREDICTED BY IDOCK:   -4.47 KCAL/MOL
REMARK 922        TOTAL FREE ENERGY PREDICTED BY IDOCK:   -5.86 KCAL/MOL
REMARK 923 INTER-LIGAND FREE ENERGY PREDICTED BY IDOCK:   -5.58 KCAL/MOL
REMARK 924 INTRA-LIGAND FREE ENERGY PREDICTED BY IDOCK:   -0.28 KCAL/MOL
REMARK 927      BINDING AFFINITY PREDICTED BY RF-SCORE:    0.00 PKD
ROOT
HETATM    1 CL   UNL     1     -11.488  12.057  63.101  1.00  0.00    -0.344 Cl 
HETATM    2  C   UNL     1     -12.289  12.686  64.565  1.00  0.00    -0.464 C  
HETATM    3  C   UNL     1     -12.259  14.209  64.608  1.00  0.00    -0.445 C  
ENDROOT
BRANCH   3   4
HETATM    4  N   UNL     1     -10.911  14.761  64.558  1.00  0.00    -0.625 N  
HETATM    5  H   UNL     1     -10.139  14.185  64.222  1.00  0.00     0.000 HD 
BRANCH   4   6
HETATM    6  C   UNL     1     -10.674  16.059  64.964  1.00  0.00    -0.378 C  
HETATM    7  O   UNL     1     -11.204  16.993  64.360  1.00  0.00    -1.167 OA 
BRANCH   6   8
HETATM    8  N   UNL     1      -9.805  16.212  66.042  1.00  0.00    -0.325 N  
BRANCH   8   9
HETATM    9  C   UNL     1      -9.417  15.166  67.000  1.00  0.00    -0.226 C  
HETATM   10 CL   UNL     1     -11.566  15.425  68.690  1.00  0.00    -0.358 Cl 
HETATM   11  C   UNL     1      -9.801  15.498  68.441  1.00  0.00    -0.210 C  
ENDBRANCH   8   9
BRANCH   8  12
HETATM   12  N   UNL     1      -9.283  17.512  66.203  1.00  0.00    -0.486 NA 
HETATM   13  H   UNL     1      -9.336  17.798  67.181  1.00  0.00     0.000 HD 
HETATM   14  H   UNL     1      -7.782  18.531  65.882  1.00  0.00     0.000 HD 
HETATM   15  O   UNL     1      -8.133  17.655  65.773  1.00  0.00    -0.550 OA 
ENDBRANCH   8  12
ENDBRANCH   6   8
ENDBRANCH   4   6
ENDBRANCH   3   4
TORSDOF 5
ENDMDL
MODEL       16
REMARK 921   NORMALIZED FREE ENERGY PREDICTED BY IDOCK:   -4.44 KCAL/MOL
REMARK 922        TOTAL FREE ENERGY PREDICTED BY IDOCK:   -5.82 KCAL/MOL
REMARK 923 INTER-LIGAND FREE ENERGY PREDICTED BY IDOCK:   -5.29 KCAL/MOL
REMARK 924 INTRA-LIGAND FREE ENERGY PREDICTED BY IDOCK:   -0.54 KCAL/MOL
REMARK 927      BINDING AFFINITY PREDICTED BY RF-SCORE:    0.00 PKD
ROOT
HETATM    1 CL   UNL     1     -10.810  11.351  64.767  1.00  0.00    -0.360 Cl 
HETATM    2  C   UNL     1     -12.256  12.386  64.638  1.00  0.00    -0.425 C  
HETATM    3  C   UNL     1     -11.966  13.655  63.846  1.00  0.00    -0.408 C  
ENDROOT
BRANCH   3   4
HETATM    4  N   UNL     1     -10.887  14.455  64.412  1.00  0.00    -0.617 N  
HETATM    5  H   UNL     1      -9.977  14.028  64.587  1.00  0.00     0.000 HD 
BRANCH   4   6
HETATM    6  C   UNL     1     -11.090  15.786  64.713  1.00  0.00    -0.400 C  
HETATM    7  O   UNL     1     -11.636  16.521  63.889  1.00  0.00    -1.175 OA 
BRANCH   6   8
HETATM    8  N   UNL     1     -10.623  16.209  65.955  1.00  0.00    -0.315 N  
BRANCH   8   9
HETATM    9  C   UNL     1     -10.265  17.587  66.325  1.00  0.00    -0.355 C  
HETATM   10 CL   UNL     1      -7.540  17.300  66.149  1.00  0.00    -0.345 Cl 
HETATM   11  C   UNL     1      -8.976  17.676  67.139  1.00  0.00    -0.244 C  
ENDBRANCH   8   9
BRANCH   8  12
HETATM   12  N   UNL     1     -10.479  15.187  66.915  1.00  0.00    -0.277 NA 
HETATM   13  H   UNL     1      -9.931  15.519  67.709  1.00  0.00     0.000 HD 
HETATM   14  H   UNL     1     -11.448  14.007  67.947  1.00  0.00     0.000 HD 
HETATM   15  O   UNL     1     -11.545  14.696  67.300  1.00  0.00    -0.365 OA 
ENDBRANCH   8  12
ENDBRANCH   6   8
ENDBRANCH   4   6
ENDBRANCH   3   4
TORSDOF 5
ENDMDL
MODEL       17
REMARK 921   NORMALIZED FREE ENERGY PREDICTED BY IDOCK:   -4.44 KCAL/MOL
REMARK 922        TOTAL FREE ENERGY PREDICTED BY IDOCK:   -5.81 KCAL/MOL
REMARK 923 INTER-LIGAND FREE ENERGY PREDICTED BY IDOCK:   -5.27 KCAL/MOL
REMARK 924 INTRA-LIGAND FREE ENERGY PREDICTED BY IDOCK:   -0.55 KCAL/MOL
REMARK 927      BINDING AFFINITY PREDICTED BY RF-SCORE:    0.00 PKD
ROOT
HETATM    1 CL   UNL     1      -7.851  14.201  67.823  1.00  0.00    -0.157 Cl 
HETATM    2  C   UNL     1      -7.337  15.613  66.863  1.00  0.00    -0.092 C  
HETATM    3  C   UNL     1      -8.529  16.332  66.242  1.00  0.00    -0.334 C  
ENDROOT
BRANCH   3   4
HETATM    4  N   UNL     1      -9.338  15.473  65.387  1.00  0.00    -0.217 N  
HETATM    5  H   UNL     1      -8.931  15.069  64.543  1.00  0.00     0.000 HD 
BRANCH   4   6
HETATM    6  C   UNL     1     -10.652  15.205  65.712  1.00  0.00    -0.351 C  
HETATM    7  O   UNL     1     -11.006  15.231  66.892  1.00  0.00    -0.320 OA 
BRANCH   6   8
HETATM    8  N   UNL     1     -11.493  14.891  64.646  1.00  0.00    -0.396 N  
BRANCH   8   9
HETATM    9  C   UNL     1     -12.173  13.606  64.426  1.00  0.00    -0.390 C  
HETATM   10 CL   UNL     1      -9.970  11.992  64.708  1.00  0.00    -0.265 Cl 
HETATM   11  C   UNL     1     -11.307  12.587  63.688  1.00  0.00    -0.485 C  
ENDBRANCH   8   9
BRANCH   8  12
HETATM   12  N   UNL     1     -11.670  15.926  63.705  1.00  0.00    -1.124 NA 
HETATM   13  H   UNL     1     -12.610  15.891  63.311  1.00  0.00     0.000 HD 
HETATM   14  H   UNL     1     -11.545  17.754  63.506  1.00  0.00     0.000 HD 
HETATM   15  O   UNL     1     -11.426  17.057  64.140  1.00  0.00    -1.135 OA 
ENDBRANCH   8  12
ENDBRANCH   6   8
ENDBRANCH   4   6
ENDBRANCH   3   4
TORSDOF 5
ENDMDL
MODEL       18
REMARK 921   NORMALIZED FREE ENERGY PREDICTED BY IDOCK:   -4.34 KCAL/MOL
REMARK 922        TOTAL FREE ENERGY PREDICTED BY IDOCK:   -5.69 KCAL/MOL
REMARK 923 INTER-LIGAND FREE ENERGY PREDICTED BY IDOCK:   -5.27 KCAL/MOL
REMARK 924 INTRA-LIGAND FREE ENERGY PREDICTED BY IDOCK:   -0.42 KCAL/MOL
REMARK 927      BINDING AFFINITY PREDICTED BY RF-SCORE:    0.00 PKD
ROOT
HETATM    1 CL   UNL     1     -13.641  12.691  72.111  1.00  0.00    -0.590 Cl 
HETATM    2  C   UNL     1     -13.535  14.343  72.772  1.00  0.00    -0.485 C  
HETATM    3  C   UNL     1     -14.096  15.373  71.798  1.00  0.00    -0.527 C  
ENDROOT
BRANCH   3   4
HETATM    4  N   UNL     1     -13.431  15.361  70.501  1.00  0.00    -0.793 N  
HETATM    5  H   UNL     1     -13.949  15.084  69.667  1.00  0.00     0.000 HD 
BRANCH   4   6
HETATM    6  C   UNL     1     -12.103  15.723  70.396  1.00  0.00    -0.370 C  
HETATM    7  O   UNL     1     -11.593  16.429  71.268  1.00  0.00    -0.414 OA 
BRANCH   6   8
HETATM    8  N   UNL     1     -11.434  15.267  69.263  1.00  0.00    -0.298 N  
BRANCH   8   9
HETATM    9  C   UNL     1     -10.068  15.630  68.857  1.00  0.00    -0.217 C  
HETATM   10 CL   UNL     1     -10.654  18.110  67.835  1.00  0.00    -0.411 Cl 
HETATM   11  C   UNL     1     -10.022  16.462  67.577  1.00  0.00    -0.250 C  
ENDBRANCH   8   9
BRANCH   8  12
HETATM   12  N   UNL     1     -12.177  14.389  68.448  1.00  0.00    -0.605 NA 
HETATM   13  H   UNL     1     -11.903  14.493  67.471  1.00  0.00     0.000 HD 
HETATM   14  H   UNL     1     -12.617  12.612  68.241  1.00  0.00     0.000 HD 
HETATM   15  O   UNL     1     -12.116  13.203  68.789  1.00  0.00    -0.310 OA 
ENDBRANCH   8  12
ENDBRANCH   6   8
ENDBRANCH   4   6
ENDBRANCH   3   4
TORSDOF 5
ENDMDL
MODEL       19
REMARK 921   NORMALIZED FREE ENERGY PREDICTED BY IDOCK:   -4.32 KCAL/MOL
REMARK 922        TOTAL FREE ENERGY PREDICTED BY IDOCK:   -5.66 KCAL/MOL
REMARK 923 INTER-LIGAND FREE ENERGY PREDICTED BY IDOCK:   -5.30 KCAL/MOL
REMARK 924 INTRA-LIGAND FREE ENERGY PREDICTED BY IDOCK:   -0.36 KCAL/MOL
REMARK 927      BINDING AFFINITY PREDICTED BY RF-SCORE:    0.00 PKD
ROOT
HETATM    1 CL   UNL     1     -12.455  14.037  71.199  1.00  0.00    -0.426 Cl 
HETATM    2  C   UNL     1     -11.307  15.029  70.263  1.00  0.00    -0.263 C  
HETATM    3  C   UNL     1     -11.887  15.430  68.912  1.00  0.00    -0.329 C  
ENDROOT
BRANCH   3   4
HETATM    4  N   UNL     1     -12.275  14.290  68.090  1.00  0.00    -0.580 N  
HETATM    5  H   UNL     1     -12.945  13.610  68.449  1.00  0.00     0.000 HD 
BRANCH   4   6
HETATM    6  C   UNL     1     -11.740  14.127  66.828  1.00  0.00    -0.410 C  
HETATM    7  O   UNL     1     -11.147  15.064  66.292  1.00  0.00    -0.340 OA 
BRANCH   6   8
HETATM    8  N   UNL     1     -11.944  12.884  66.234  1.00  0.00    -0.413 N  
BRANCH   8   9
HETATM    9  C   UNL     1     -12.654  12.631  64.972  1.00  0.00    -0.430 C  
HETATM   10 CL   UNL     1     -10.454  12.004  63.453  1.00  0.00    -0.480 Cl 
HETATM   11  C   UNL     1     -11.861  13.062  63.739  1.00  0.00    -0.502 C  
ENDBRANCH   8   9
BRANCH   8  12
HETATM   12  N   UNL     1     -11.418  11.790  66.951  1.00  0.00    -0.477 NA 
HETATM   13  H   UNL     1     -10.487  12.012  67.306  1.00  0.00     0.000 HD 
HETATM   14  H   UNL     1     -11.788  10.648  68.349  1.00  0.00     0.000 HD 
HETATM   15  O   UNL     1     -12.143  11.385  67.866  1.00  0.00    -0.646 OA 
ENDBRANCH   8  12
ENDBRANCH   6   8
ENDBRANCH   4   6
ENDBRANCH   3   4
TORSDOF 5
ENDMDL
MODEL       20
REMARK 921   NORMALIZED FREE ENERGY PREDICTED BY IDOCK:   -4.30 KCAL/MOL
REMARK 922        TOTAL FREE ENERGY PREDICTED BY IDOCK:   -5.63 KCAL/MOL
REMARK 923 INTER-LIGAND FREE ENERGY PREDICTED BY IDOCK:   -5.30 KCAL/MOL
REMARK 924 INTRA-LIGAND FREE ENERGY PREDICTED BY IDOCK:   -0.33 KCAL/MOL
REMARK 927      BINDING AFFINITY PREDICTED BY RF-SCORE:    0.00 PKD
ROOT
HETATM    1 CL   UNL     1     -12.399  11.771  63.337  1.00  0.00    -0.586 Cl 
HETATM    2  C   UNL     1     -10.725  11.363  63.797  1.00  0.00    -0.403 C  
HETATM    3  C   UNL     1     -10.169  12.350  64.817  1.00  0.00    -0.279 C  
ENDROOT
BRANCH   3   4
HETATM    4  N   UNL     1     -10.185  13.731  64.351  1.00  0.00    -0.669 N  
HETATM    5  H   UNL     1      -9.799  13.962  63.435  1.00  0.00     0.000 HD 
BRANCH   4   6
HETATM    6  C   UNL     1     -10.721  14.726  65.142  1.00  0.00    -0.415 C  
HETATM    7  O   UNL     1     -10.204  15.845  65.148  1.00  0.00    -0.472 OA 
BRANCH   6   8
HETATM    8  N   UNL     1     -11.823  14.366  65.914  1.00  0.00    -0.374 N  
BRANCH   8   9
HETATM    9  C   UNL     1     -11.791  13.894  67.306  1.00  0.00    -0.407 C  
HETATM   10 CL   UNL     1     -11.322  16.326  68.490  1.00  0.00    -0.367 Cl 
HETATM   11  C   UNL     1     -10.791  14.653  68.175  1.00  0.00    -0.252 C  
ENDBRANCH   8   9
BRANCH   8  12
HETATM   12  N   UNL     1     -13.066  14.464  65.255  1.00  0.00    -0.565 NA 
HETATM   13  H   UNL     1     -13.746  14.943  65.847  1.00  0.00     0.000 HD 
HETATM   14  H   UNL     1     -13.849  15.063  63.698  1.00  0.00     0.000 HD 
HETATM   15  O   UNL     1     -13.012  14.998  64.142  1.00  0.00    -0.511 OA 
ENDBRANCH   8  12
ENDBRANCH   6   8
ENDBRANCH   4   6
ENDBRANCH   3   4
TORSDOF 5
ENDMDL
MODEL       21
REMARK 921   NORMALIZED FREE ENERGY PREDICTED BY IDOCK:   -4.30 KCAL/MOL
REMARK 922        TOTAL FREE ENERGY PREDICTED BY IDOCK:   -5.63 KCAL/MOL
REMARK 923 INTER-LIGAND FREE ENERGY PREDICTED BY IDOCK:   -5.32 KCAL/MOL
REMARK 924 INTRA-LIGAND FREE ENERGY PREDICTED BY IDOCK:   -0.32 KCAL/MOL
REMARK 927      BINDING AFFINITY PREDICTED BY RF-SCORE:    0.00 PKD
ROOT
HETATM    1 CL   UNL     1     -10.646  19.764  66.141  1.00  0.00    -0.591 Cl 
HETATM    2  C   UNL     1      -9.246  18.877  66.799  1.00  0.00    -0.319 C  
HETATM    3  C   UNL     1      -9.077  17.520  66.126  1.00  0.00    -0.127 C  
ENDROOT
BRANCH   3   4
HETATM    4  N   UNL     1     -10.250  16.665  66.249  1.00  0.00    -0.322 N  
HETATM    5  H   UNL     1     -10.630  16.453  67.171  1.00  0.00     0.000 HD 
BRANCH   4   6
HETATM    6  C   UNL     1     -10.851  16.141  65.122  1.00  0.00    -0.361 C  
HETATM    7  O   UNL     1     -11.314  16.900  64.269  1.00  0.00    -1.202 OA 
BRANCH   6   8
HETATM    8  N   UNL     1     -10.908  14.751  65.051  1.00  0.00    -0.399 N  
BRANCH   8   9
HETATM    9  C   UNL     1     -12.124  13.940  64.892  1.00  0.00    -0.414 C  
HETATM   10 CL   UNL     1     -12.159  12.860  67.416  1.00  0.00    -0.342 Cl 
HETATM   11  C   UNL     1     -12.068  12.616  65.651  1.00  0.00    -0.443 C  
ENDBRANCH   8   9
BRANCH   8  12
HETATM   12  N   UNL     1      -9.663  14.099  65.163  1.00  0.00    -0.552 NA 
HETATM   13  H   UNL     1      -8.950  14.602  64.635  1.00  0.00     0.000 HD 
HETATM   14  H   UNL     1      -8.450  13.473  66.401  1.00  0.00     0.000 HD 
HETATM   15  O   UNL     1      -9.289  13.913  66.326  1.00  0.00    -0.245 OA 
ENDBRANCH   8  12
ENDBRANCH   6   8
ENDBRANCH   4   6
ENDBRANCH   3   4
TORSDOF 5
ENDMDL
MODEL       22
REMARK 921   NORMALIZED FREE ENERGY PREDICTED BY IDOCK:   -4.28 KCAL/MOL
REMARK 922        TOTAL FREE ENERGY PREDICTED BY IDOCK:   -5.61 KCAL/MOL
REMARK 923 INTER-LIGAND FREE ENERGY PREDICTED BY IDOCK:   -5.36 KCAL/MOL
REMARK 924 INTRA-LIGAND FREE ENERGY PREDICTED BY IDOCK:   -0.26 KCAL/MOL
REMARK 927      BINDING AFFINITY PREDICTED BY RF-SCORE:    0.00 PKD
ROOT
HETATM    1 CL   UNL     1     -11.535  16.067  70.854  1.00  0.00    -0.432 Cl 
HETATM    2  C   UNL     1     -12.496  14.686  70.265  1.00  0.00    -0.346 C  
HETATM    3  C   UNL     1     -11.939  14.134  68.957  1.00  0.00    -0.340 C  
ENDROOT
BRANCH   3   4
HETATM    4  N   UNL     1     -11.877  15.128  67.893  1.00  0.00    -0.447 N  
HETATM    5  H   UNL     1     -12.480  15.950  67.930  1.00  0.00     0.000 HD 
BRANCH   4   6
HETATM    6  C   UNL     1     -11.006  14.962  66.835  1.00  0.00    -0.327 C  
HETATM    7  O   UNL     1     -10.495  13.859  66.634  1.00  0.00    -0.268 OA 
BRANCH   6   8
HETATM    8  N   UNL     1     -10.749  16.099  66.072  1.00  0.00    -0.282 N  
BRANCH   8   9
HETATM    9  C   UNL     1     -10.373  17.424  66.588  1.00  0.00    -0.306 C  
HETATM   10 CL   UNL     1      -7.663  17.191  66.212  1.00  0.00    -0.342 Cl 
HETATM   11  C   UNL     1      -9.036  17.425  67.327  1.00  0.00    -0.237 C  
ENDBRANCH   8   9
BRANCH   8  12
HETATM   12  N   UNL     1     -10.887  15.923  64.680  1.00  0.00    -0.821 NA 
HETATM   13  H   UNL     1     -11.466  15.108  64.481  1.00  0.00     0.000 HD 
HETATM   14  H   UNL     1     -11.409  16.797  63.144  1.00  0.00     0.000 HD 
HETATM   15  O   UNL     1     -11.317  16.915  64.082  1.00  0.00    -1.208 OA 
ENDBRANCH   8  12
ENDBRANCH   6   8
ENDBRANCH   4   6
ENDBRANCH   3   4
TORSDOF 5
ENDMDL
MODEL       23
REMARK 921   NORMALIZED FREE ENERGY PREDICTED BY IDOCK:   -4.26 KCAL/MOL
REMARK 922        TOTAL FREE ENERGY PREDICTED BY IDOCK:   -5.59 KCAL/MOL
REMARK 923 INTER-LIGAND FREE ENERGY PREDICTED BY IDOCK:   -5.43 KCAL/MOL
REMARK 924 INTRA-LIGAND FREE ENERGY PREDICTED BY IDOCK:   -0.16 KCAL/MOL
REMARK 927      BINDING AFFINITY PREDICTED BY RF-SCORE:    0.00 PKD
ROOT
HETATM    1 CL   UNL     1     -11.642  12.306  66.431  1.00  0.00    -0.439 Cl 
HETATM    2  C   UNL     1     -12.779  13.344  65.532  1.00  0.00    -0.410 C  
HETATM    3  C   UNL     1     -12.142  13.905  64.265  1.00  0.00    -0.440 C  
ENDROOT
BRANCH   3   4
HETATM    4  N   UNL     1     -10.932  14.676  64.522  1.00  0.00    -0.621 N  
HETATM    5  H   UNL     1     -10.020  14.226  64.451  1.00  0.00     0.000 HD 
BRANCH   4   6
HETATM    6  C   UNL     1     -11.016  16.011  64.859  1.00  0.00    -0.384 C  
HETATM    7  O   UNL     1     -11.507  16.812  64.063  1.00  0.00    -1.198 OA 
BRANCH   6   8
HETATM    8  N   UNL     1     -10.496  16.360  66.104  1.00  0.00    -0.328 N  
BRANCH   8   9
HETATM    9  C   UNL     1     -10.103  15.429  67.172  1.00  0.00    -0.245 C  
HETATM   10 CL   UNL     1      -7.394  15.854  67.027  1.00  0.00    -0.253 Cl 
HETATM   11  C   UNL     1      -8.773  14.729  66.900  1.00  0.00    -0.236 C  
ENDBRANCH   8   9
BRANCH   8  12
HETATM   12  N   UNL     1     -10.366  17.746  66.326  1.00  0.00    -0.374 NA 
HETATM   13  H   UNL     1     -10.479  17.960  67.317  1.00  0.00     0.000 HD 
HETATM   14  H   UNL     1      -9.228  19.167  66.045  1.00  0.00     0.000 HD 
HETATM   15  O   UNL     1      -9.315  18.234  65.896  1.00  0.00    -0.506 OA 
ENDBRANCH   8  12
ENDBRANCH   6   8
ENDBRANCH   4   6
ENDBRANCH   3   4
TORSDOF 5
ENDMDL
MODEL       24
REMARK 921   NORMALIZED FREE ENERGY PREDICTED BY IDOCK:   -4.25 KCAL/MOL
REMARK 922        TOTAL FREE ENERGY PREDICTED BY IDOCK:   -5.57 KCAL/MOL
REMARK 923 INTER-LIGAND FREE ENERGY PREDICTED BY IDOCK:   -5.15 KCAL/MOL
REMARK 924 INTRA-LIGAND FREE ENERGY PREDICTED BY IDOCK:   -0.42 KCAL/MOL
REMARK 927      BINDING AFFINITY PREDICTED BY RF-SCORE:    0.00 PKD
ROOT
HETATM    1 CL   UNL     1     -13.638  12.438  72.144  1.00  0.00    -0.531 Cl 
HETATM    2  C   UNL     1     -13.478  14.115  72.728  1.00  0.00    -0.489 C  
HETATM    3  C   UNL     1     -14.010  15.116  71.709  1.00  0.00    -0.529 C  
ENDROOT
BRANCH   3   4
HETATM    4  N   UNL     1     -13.349  15.024  70.413  1.00  0.00    -0.658 N  
HETATM    5  H   UNL     1     -13.845  14.621  69.618  1.00  0.00     0.000 HD 
BRANCH   4   6
HETATM    6  C   UNL     1     -12.056  15.480  70.256  1.00  0.00    -0.386 C  
HETATM    7  O   UNL     1     -11.609  16.324  71.035  1.00  0.00    -0.410 OA 
BRANCH   6   8
HETATM    8  N   UNL     1     -11.348  14.951  69.180  1.00  0.00    -0.275 N  
BRANCH   8   9
HETATM    9  C   UNL     1     -11.076  15.627  67.903  1.00  0.00    -0.324 C  
HETATM   10 CL   UNL     1     -12.469  13.898  66.288  1.00  0.00    -0.480 Cl 
HETATM   11  C   UNL     1     -10.918  14.659  66.732  1.00  0.00    -0.323 C  
ENDBRANCH   8   9
BRANCH   8  12
HETATM   12  N   UNL     1     -10.879  13.635  69.368  1.00  0.00    -0.442 NA 
HETATM   13  H   UNL     1     -10.153  13.615  70.085  1.00  0.00     0.000 HD 
HETATM   14  H   UNL     1     -11.447  11.924  69.751  1.00  0.00     0.000 HD 
HETATM   15  O   UNL     1     -11.763  12.811  69.625  1.00  0.00    -0.304 OA 
ENDBRANCH   8  12
ENDBRANCH   6   8
ENDBRANCH   4   6
ENDBRANCH   3   4
TORSDOF 5
ENDMDL
MODEL       25
REMARK 921   NORMALIZED FREE ENERGY PREDICTED BY IDOCK:   -4.23 KCAL/MOL
REMARK 922        TOTAL FREE ENERGY PREDICTED BY IDOCK:   -5.54 KCAL/MOL
REMARK 923 INTER-LIGAND FREE ENERGY PREDICTED BY IDOCK:   -5.28 KCAL/MOL
REMARK 924 INTRA-LIGAND FREE ENERGY PREDICTED BY IDOCK:   -0.26 KCAL/MOL
REMARK 927      BINDING AFFINITY PREDICTED BY RF-SCORE:    0.00 PKD
ROOT
HETATM    1 CL   UNL     1     -12.893  15.769  70.840  1.00  0.00    -0.477 Cl 
HETATM    2  C   UNL     1     -12.504  14.031  70.918  1.00  0.00    -0.369 C  
HETATM    3  C   UNL     1     -11.626  13.601  69.748  1.00  0.00    -0.254 C  
ENDROOT
BRANCH   3   4
HETATM    4  N   UNL     1     -12.225  13.872  68.448  1.00  0.00    -0.498 N  
HETATM    5  H   UNL     1     -12.841  14.677  68.330  1.00  0.00     0.000 HD 
BRANCH   4   6
HETATM    6  C   UNL     1     -11.964  13.045  67.374  1.00  0.00    -0.316 C  
HETATM    7  O   UNL     1     -11.967  11.823  67.531  1.00  0.00    -0.607 OA 
BRANCH   6   8
HETATM    8  N   UNL     1     -11.683  13.681  66.167  1.00  0.00    -0.347 N  
BRANCH   8   9
HETATM    9  C   UNL     1     -10.375  14.202  65.744  1.00  0.00    -0.325 C  
HETATM   10 CL   UNL     1     -10.771  16.808  66.512  1.00  0.00    -0.176 Cl 
HETATM   11  C   UNL     1     -10.441  15.632  65.212  1.00  0.00    -0.412 C  
ENDBRANCH   8   9
BRANCH   8  12
HETATM   12  N   UNL     1     -12.789  13.833  65.306  1.00  0.00    -0.737 NA 
HETATM   13  H   UNL     1     -12.637  14.614  64.666  1.00  0.00     0.000 HD 
HETATM   14  H   UNL     1     -13.834  12.915  64.098  1.00  0.00     0.000 HD 
HETATM   15  O   UNL     1     -13.089  12.812  64.677  1.00  0.00    -0.760 OA 
ENDBRANCH   8  12
ENDBRANCH   6   8
ENDBRANCH   4   6
ENDBRANCH   3   4
TORSDOF 5
ENDMDL
MODEL       26
REMARK 921   NORMALIZED FREE ENERGY PREDICTED BY IDOCK:   -4.20 KCAL/MOL
REMARK 922        TOTAL FREE ENERGY PREDICTED BY IDOCK:   -5.51 KCAL/MOL
REMARK 923 INTER-LIGAND FREE ENERGY PREDICTED BY IDOCK:   -5.17 KCAL/MOL
REMARK 924 INTRA-LIGAND FREE ENERGY PREDICTED BY IDOCK:   -0.34 KCAL/MOL
REMARK 927      BINDING AFFINITY PREDICTED BY RF-SCORE:    0.00 PKD
ROOT
HETATM    1 CL   UNL     1     -10.187  16.635  66.721  1.00  0.00    -0.295 Cl 
HETATM    2  C   UNL     1     -10.908  16.768  68.346  1.00  0.00    -0.355 C  
HETATM    3  C   UNL     1     -11.382  15.413  68.861  1.00  0.00    -0.314 C  
ENDROOT
BRANCH   3   4
HETATM    4  N   UNL     1     -12.356  14.773  67.986  1.00  0.00    -0.559 N  
HETATM    5  H   UNL     1     -13.281  15.186  67.868  1.00  0.00     0.000 HD 
BRANCH   4   6
HETATM    6  C   UNL     1     -12.033  13.611  67.316  1.00  0.00    -0.381 C  
HETATM    7  O   UNL     1     -11.896  12.562  67.947  1.00  0.00    -0.351 OA 
BRANCH   6   8
HETATM    8  N   UNL     1     -11.856  13.729  65.939  1.00  0.00    -0.363 N  
BRANCH   8   9
HETATM    9  C   UNL     1     -10.619  13.447  65.195  1.00  0.00    -0.343 C  
HETATM   10 CL   UNL     1     -11.634  11.492  63.556  1.00  0.00    -0.419 Cl 
HETATM   11  C   UNL     1     -10.468  11.975  64.816  1.00  0.00    -0.294 C  
ENDBRANCH   8   9
BRANCH   8  12
HETATM   12  N   UNL     1     -12.990  14.177  65.231  1.00  0.00    -0.735 NA 
HETATM   13  H   UNL     1     -13.598  14.722  65.843  1.00  0.00     0.000 HD 
HETATM   14  H   UNL     1     -13.494  15.114  63.727  1.00  0.00     0.000 HD 
HETATM   15  O   UNL     1     -12.730  14.813  64.204  1.00  0.00    -0.758 OA 
ENDBRANCH   8  12
ENDBRANCH   6   8
ENDBRANCH   4   6
ENDBRANCH   3   4
TORSDOF 5
ENDMDL
MODEL       27
REMARK 921   NORMALIZED FREE ENERGY PREDICTED BY IDOCK:   -4.19 KCAL/MOL
REMARK 922        TOTAL FREE ENERGY PREDICTED BY IDOCK:   -5.50 KCAL/MOL
REMARK 923 INTER-LIGAND FREE ENERGY PREDICTED BY IDOCK:   -4.75 KCAL/MOL
REMARK 924 INTRA-LIGAND FREE ENERGY PREDICTED BY IDOCK:   -0.75 KCAL/MOL
REMARK 927      BINDING AFFINITY PREDICTED BY RF-SCORE:    0.00 PKD
ROOT
HETATM    1 CL   UNL     1     -11.594  12.249  63.642  1.00  0.00    -0.539 Cl 
HETATM    2  C   UNL     1     -12.541  13.354  64.672  1.00  0.00    -0.265 C  
HETATM    3  C   UNL     1     -12.254  14.813  64.338  1.00  0.00    -0.428 C  
ENDROOT
BRANCH   3   4
HETATM    4  N   UNL     1     -10.846  15.168  64.469  1.00  0.00    -0.637 N  
HETATM    5  H   UNL     1     -10.179  14.868  63.758  1.00  0.00     0.000 HD 
BRANCH   4   6
HETATM    6  C   UNL     1     -10.411  15.907  65.550  1.00  0.00    -0.404 C  
HETATM    7  O   UNL     1     -10.519  17.135  65.533  1.00  0.00    -0.593 OA 
BRANCH   6   8
HETATM    8  N   UNL     1      -9.845  15.183  66.597  1.00  0.00    -0.243 N  
BRANCH   8   9
HETATM    9  C   UNL     1     -10.115  15.372  68.030  1.00  0.00    -0.226 C  
HETATM   10 CL   UNL     1     -12.154  13.545  68.244  1.00  0.00    -0.363 Cl 
HETATM   11  C   UNL     1     -11.594  15.233  68.385  1.00  0.00    -0.349 C  
ENDBRANCH   8   9
BRANCH   8  12
HETATM   12  N   UNL     1      -8.918  14.197  66.202  1.00  0.00    -0.471 NA 
HETATM   13  H   UNL     1      -8.063  14.271  66.753  1.00  0.00     0.000 HD 
HETATM   14  H   UNL     1      -8.732  12.378  65.974  1.00  0.00     0.000 HD 
HETATM   15  O   UNL     1      -9.356  13.042  66.240  1.00  0.00    -0.230 OA 
ENDBRANCH   8  12
ENDBRANCH   6   8
ENDBRANCH   4   6
ENDBRANCH   3   4
TORSDOF 5
ENDMDL
MODEL       28
REMARK 921   NORMALIZED FREE ENERGY PREDICTED BY IDOCK:   -4.19 KCAL/MOL
REMARK 922        TOTAL FREE ENERGY PREDICTED BY IDOCK:   -5.50 KCAL/MOL
REMARK 923 INTER-LIGAND FREE ENERGY PREDICTED BY IDOCK:   -5.00 KCAL/MOL
REMARK 924 INTRA-LIGAND FREE ENERGY PREDICTED BY IDOCK:   -0.50 KCAL/MOL
REMARK 927      BINDING AFFINITY PREDICTED BY RF-SCORE:    0.00 PKD
ROOT
HETATM    1 CL   UNL     1     -11.485  16.201  70.755  1.00  0.00    -0.430 Cl 
HETATM    2  C   UNL     1     -12.261  15.194  69.505  1.00  0.00    -0.233 C  
HETATM    3  C   UNL     1     -11.422  15.133  68.234  1.00  0.00    -0.336 C  
ENDROOT
BRANCH   3   4
HETATM    4  N   UNL     1     -11.156  16.445  67.657  1.00  0.00    -0.215 N  
HETATM    5  H   UNL     1     -11.825  17.203  67.790  1.00  0.00     0.000 HD 
BRANCH   4   6
HETATM    6  C   UNL     1     -10.003  16.665  66.930  1.00  0.00    -0.271 C  
HETATM    7  O   UNL     1      -9.110  15.816  66.932  1.00  0.00    -0.209 OA 
BRANCH   6   8
HETATM    8  N   UNL     1      -9.931  17.880  66.253  1.00  0.00    -0.341 N  
BRANCH   8   9
HETATM    9  C   UNL     1      -9.024  18.994  66.563  1.00  0.00    -0.330 C  
HETATM   10 CL   UNL     1     -10.309  19.872  68.826  1.00  0.00    -0.481 Cl 
HETATM   11  C   UNL     1      -9.739  20.201  67.167  1.00  0.00    -0.439 C  
ENDBRANCH   8   9
BRANCH   8  12
HETATM   12  N   UNL     1     -10.842  18.019  65.185  1.00  0.00    -0.611 NA 
HETATM   13  H   UNL     1     -10.530  18.749  64.545  1.00  0.00     0.000 HD 
HETATM   14  H   UNL     1     -11.682  17.066  63.850  1.00  0.00     0.000 HD 
HETATM   15  O   UNL     1     -11.068  16.972  64.569  1.00  0.00    -1.098 OA 
ENDBRANCH   8  12
ENDBRANCH   6   8
ENDBRANCH   4   6
ENDBRANCH   3   4
TORSDOF 5
ENDMDL
MODEL       29
REMARK 921   NORMALIZED FREE ENERGY PREDICTED BY IDOCK:   -4.18 KCAL/MOL
REMARK 922        TOTAL FREE ENERGY PREDICTED BY IDOCK:   -5.48 KCAL/MOL
REMARK 923 INTER-LIGAND FREE ENERGY PREDICTED BY IDOCK:   -4.92 KCAL/MOL
REMARK 924 INTRA-LIGAND FREE ENERGY PREDICTED BY IDOCK:   -0.56 KCAL/MOL
REMARK 927      BINDING AFFINITY PREDICTED BY RF-SCORE:    0.00 PKD
ROOT
HETATM    1 CL   UNL     1     -13.515  13.698  72.482  1.00  0.00    -0.664 Cl 
HETATM    2  C   UNL     1     -12.306  14.963  72.141  1.00  0.00    -0.351 C  
HETATM    3  C   UNL     1     -12.622  15.705  70.848  1.00  0.00    -0.449 C  
ENDROOT
BRANCH   3   4
HETATM    4  N   UNL     1     -12.701  14.830  69.686  1.00  0.00    -0.584 N  
HETATM    5  H   UNL     1     -13.503  14.210  69.571  1.00  0.00     0.000 HD 
BRANCH   4   6
HETATM    6  C   UNL     1     -11.696  14.837  68.739  1.00  0.00    -0.323 C  
HETATM    7  O   UNL     1     -11.385  15.893  68.188  1.00  0.00    -0.345 OA 
BRANCH   6   8
HETATM    8  N   UNL     1     -11.115  13.602  68.458  1.00  0.00    -0.262 N  
BRANCH   8   9
HETATM    9  C   UNL     1     -10.624  13.153  67.147  1.00  0.00    -0.257 C  
HETATM   10 CL   UNL     1     -12.884  13.747  65.704  1.00  0.00    -0.519 Cl 
HETATM   11  C   UNL     1     -11.714  12.528  66.278  1.00  0.00    -0.404 C  
ENDBRANCH   8   9
BRANCH   8  12
HETATM   12  N   UNL     1     -11.022  12.725  69.558  1.00  0.00    -0.454 NA 
HETATM   13  H   UNL     1     -10.771  13.239  70.402  1.00  0.00     0.000 HD 
HETATM   14  H   UNL     1     -11.971  11.452  70.493  1.00  0.00     0.000 HD 
HETATM   15  O   UNL     1     -12.034  12.043  69.752  1.00  0.00    -0.308 OA 
ENDBRANCH   8  12
ENDBRANCH   6   8
ENDBRANCH   4   6
ENDBRANCH   3   4
TORSDOF 5
ENDMDL
MODEL       30
REMARK 921   NORMALIZED FREE ENERGY PREDICTED BY IDOCK:   -4.16 KCAL/MOL
REMARK 922        TOTAL FREE ENERGY PREDICTED BY IDOCK:   -5.46 KCAL/MOL
REMARK 923 INTER-LIGAND FREE ENERGY PREDICTED BY IDOCK:   -4.91 KCAL/MOL
REMARK 924 INTRA-LIGAND FREE ENERGY PREDICTED BY IDOCK:   -0.55 KCAL/MOL
REMARK 927      BINDING AFFINITY PREDICTED BY RF-SCORE:    0.00 PKD
ROOT
HETATM    1 CL   UNL     1     -12.022  11.304  70.463  1.00  0.00    -0.456 Cl 
HETATM    2  C   UNL     1     -10.834  10.573  69.351  1.00  0.00    -0.249 C  
HETATM    3  C   UNL     1     -10.457  11.532  68.227  1.00  0.00    -0.197 C  
ENDROOT
BRANCH   3   4
HETATM    4  N   UNL     1     -11.600  11.975  67.440  1.00  0.00    -0.330 N  
HETATM    5  H   UNL     1     -12.219  11.287  67.011  1.00  0.00     0.000 HD 
BRANCH   4   6
HETATM    6  C   UNL     1     -11.849  13.322  67.271  1.00  0.00    -0.372 C  
HETATM    7  O   UNL     1     -12.183  14.006  68.239  1.00  0.00    -0.328 OA 
BRANCH   6   8
HETATM    8  N   UNL     1     -11.724  13.808  65.971  1.00  0.00    -0.347 N  
BRANCH   8   9
HETATM    9  C   UNL     1     -10.534  14.451  65.396  1.00  0.00    -0.373 C  
HETATM   10 CL   UNL     1     -10.629  16.757  66.882  1.00  0.00    -0.266 Cl 
HETATM   11  C   UNL     1     -10.666  15.968  65.283  1.00  0.00    -0.399 C  
ENDBRANCH   8   9
BRANCH   8  12
HETATM   12  N   UNL     1     -12.875  13.663  65.170  1.00  0.00    -0.738 NA 
HETATM   13  H   UNL     1     -12.869  14.345  64.412  1.00  0.00     0.000 HD 
HETATM   14  H   UNL     1     -13.821  12.426  64.185  1.00  0.00     0.000 HD 
HETATM   15  O   UNL     1     -13.045  12.523  64.724  1.00  0.00    -0.853 OA 
ENDBRANCH   8  12
ENDBRANCH   6   8
ENDBRANCH   4   6
ENDBRANCH   3   4
TORSDOF 5
ENDMDL
MODEL       31
REMARK 921   NORMALIZED FREE ENERGY PREDICTED BY IDOCK:   -4.15 KCAL/MOL
REMARK 922        TOTAL FREE ENERGY PREDICTED BY IDOCK:   -5.44 KCAL/MOL
REMARK 923 INTER-LIGAND FREE ENERGY PREDICTED BY IDOCK:   -5.01 KCAL/MOL
REMARK 924 INTRA-LIGAND FREE ENERGY PREDICTED BY IDOCK:   -0.43 KCAL/MOL
REMARK 927      BINDING AFFINITY PREDICTED BY RF-SCORE:    0.00 PKD
ROOT
HETATM    1 CL   UNL     1     -10.932  16.440  68.328  1.00  0.00    -0.350 Cl 
HETATM    2  C   UNL     1     -11.856  15.023  68.888  1.00  0.00    -0.307 C  
HETATM    3  C   UNL     1     -11.871  13.915  67.842  1.00  0.00    -0.378 C  
ENDROOT
BRANCH   3   4
HETATM    4  N   UNL     1     -12.424  14.338  66.562  1.00  0.00    -0.528 N  
HETATM    5  H   UNL     1     -13.354  14.755  66.524  1.00  0.00     0.000 HD 
BRANCH   4   6
HETATM    6  C   UNL     1     -11.697  14.176  65.400  1.00  0.00    -0.347 C  
HETATM    7  O   UNL     1     -11.035  15.117  64.959  1.00  0.00    -0.381 OA 
BRANCH   6   8
HETATM    8  N   UNL     1     -11.794  12.928  64.788  1.00  0.00    -0.342 N  
BRANCH   8   9
HETATM    9  C   UNL     1     -10.674  12.035  64.456  1.00  0.00    -0.312 C  
HETATM   10 CL   UNL     1     -10.613  10.655  66.829  1.00  0.00    -0.306 Cl 
HETATM   11  C   UNL     1      -9.785  11.714  65.656  1.00  0.00    -0.236 C  
ENDBRANCH   8   9
BRANCH   8  12
HETATM   12  N   UNL     1     -13.105  12.529  64.458  1.00  0.00    -0.839 NA 
HETATM   13  H   UNL     1     -13.749  13.316  64.547  1.00  0.00     0.000 HD 
HETATM   14  H   UNL     1     -14.096  11.737  63.123  1.00  0.00     0.000 HD 
HETATM   15  O   UNL     1     -13.213  12.006  63.344  1.00  0.00    -0.687 OA 
ENDBRANCH   8  12
ENDBRANCH   6   8
ENDBRANCH   4   6
ENDBRANCH   3   4
TORSDOF 5
ENDMDL
MODEL       32
REMARK 921   NORMALIZED FREE ENERGY PREDICTED BY IDOCK:   -4.14 KCAL/MOL
REMARK 922        TOTAL FREE ENERGY PREDICTED BY IDOCK:   -5.44 KCAL/MOL
REMARK 923 INTER-LIGAND FREE ENERGY PREDICTED BY IDOCK:   -5.13 KCAL/MOL
REMARK 924 INTRA-LIGAND FREE ENERGY PREDICTED BY IDOCK:   -0.31 KCAL/MOL
REMARK 927      BINDING AFFINITY PREDICTED BY RF-SCORE:    0.00 PKD
ROOT
HETATM    1 CL   UNL     1     -13.630  15.421  71.112  1.00  0.00    -0.567 Cl 
HETATM    2  C   UNL     1     -12.644  13.936  71.143  1.00  0.00    -0.370 C  
HETATM    3  C   UNL     1     -11.678  13.881  69.965  1.00  0.00    -0.268 C  
ENDROOT
BRANCH   3   4
HETATM    4  N   UNL     1     -12.342  13.955  68.670  1.00  0.00    -0.454 N  
HETATM    5  H   UNL     1     -13.288  13.588  68.563  1.00  0.00     0.000 HD 
BRANCH   4   6
HETATM    6  C   UNL     1     -11.698  14.519  67.588  1.00  0.00    -0.382 C  
HETATM    7  O   UNL     1     -11.372  15.706  67.623  1.00  0.00    -0.313 OA 
BRANCH   6   8
HETATM    8  N   UNL     1     -11.486  13.678  66.497  1.00  0.00    -0.323 N  
BRANCH   8   9
HETATM    9  C   UNL     1     -10.541  13.908  65.395  1.00  0.00    -0.335 C  
HETATM   10 CL   UNL     1     -12.252  13.301  63.335  1.00  0.00    -0.569 Cl 
HETATM   11  C   UNL     1     -10.743  12.952  64.221  1.00  0.00    -0.406 C  
ENDBRANCH   8   9
BRANCH   8  12
HETATM   12  N   UNL     1     -12.284  12.516  66.480  1.00  0.00    -0.531 NA 
HETATM   13  H   UNL     1     -12.425  12.195  65.522  1.00  0.00     0.000 HD 
HETATM   14  H   UNL     1     -12.395  10.812  67.174  1.00  0.00     0.000 HD 
HETATM   15  O   UNL     1     -11.857  11.595  67.185  1.00  0.00    -0.608 OA 
ENDBRANCH   8  12
ENDBRANCH   6   8
ENDBRANCH   4   6
ENDBRANCH   3   4
TORSDOF 5
ENDMDL
MODEL       33
REMARK 921   NORMALIZED FREE ENERGY PREDICTED BY IDOCK:   -4.13 KCAL/MOL
REMARK 922        TOTAL FREE ENERGY PREDICTED BY IDOCK:   -5.42 KCAL/MOL
REMARK 923 INTER-LIGAND FREE ENERGY PREDICTED BY IDOCK:   -4.85 KCAL/MOL
REMARK 924 INTRA-LIGAND FREE ENERGY PREDICTED BY IDOCK:   -0.57 KCAL/MOL
REMARK 927      BINDING AFFINITY PREDICTED BY RF-SCORE:    0.00 PKD
ROOT
HETATM    1 CL   UNL     1     -10.444  14.285  68.440  1.00  0.00    -0.242 Cl 
HETATM    2  C   UNL     1     -11.757  14.401  67.239  1.00  0.00    -0.404 C  
HETATM    3  C   UNL     1     -11.235  14.214  65.820  1.00  0.00    -0.312 C  
ENDROOT
BRANCH   3   4
HETATM    4  N   UNL     1     -10.202  15.174  65.454  1.00  0.00    -0.360 N  
HETATM    5  H   UNL     1      -9.257  14.850  65.248  1.00  0.00     0.000 HD 
BRANCH   4   6
HETATM    6  C   UNL     1     -10.496  16.521  65.385  1.00  0.00    -0.269 C  
HETATM    7  O   UNL     1     -11.169  16.951  64.448  1.00  0.00    -1.159 OA 
BRANCH   6   8
HETATM    8  N   UNL     1      -9.968  17.314  66.402  1.00  0.00    -0.299 N  
BRANCH   8   9
HETATM    9  C   UNL     1     -10.736  18.034  67.429  1.00  0.00    -0.318 C  
HETATM   10 CL   UNL     1      -9.788  20.550  66.875  1.00  0.00    -0.571 Cl 
HETATM   11  C   UNL     1      -9.973  19.209  68.036  1.00  0.00    -0.376 C  
ENDBRANCH   8   9
BRANCH   8  12
HETATM   12  N   UNL     1      -8.562  17.422  66.402  1.00  0.00    -0.337 NA 
HETATM   13  H   UNL     1      -8.267  18.229  66.950  1.00  0.00     0.000 HD 
HETATM   14  H   UNL     1      -7.026  16.476  66.780  1.00  0.00     0.000 HD 
HETATM   15  O   UNL     1      -7.973  16.404  66.781  1.00  0.00    -0.202 OA 
ENDBRANCH   8  12
ENDBRANCH   6   8
ENDBRANCH   4   6
ENDBRANCH   3   4
TORSDOF 5
ENDMDL
MODEL       34
REMARK 921   NORMALIZED FREE ENERGY PREDICTED BY IDOCK:   -4.13 KCAL/MOL
REMARK 922        TOTAL FREE ENERGY PREDICTED BY IDOCK:   -5.42 KCAL/MOL
REMARK 923 INTER-LIGAND FREE ENERGY PREDICTED BY IDOCK:   -4.93 KCAL/MOL
REMARK 924 INTRA-LIGAND FREE ENERGY PREDICTED BY IDOCK:   -0.49 KCAL/MOL
REMARK 927      BINDING AFFINITY PREDICTED BY RF-SCORE:    0.00 PKD
ROOT
HETATM    1 CL   UNL     1     -11.844  15.888  72.532  1.00  0.00    -0.582 Cl 
HETATM    2  C   UNL     1     -11.692  15.617  70.777  1.00  0.00    -0.375 C  
HETATM    3  C   UNL     1     -12.440  14.364  70.337  1.00  0.00    -0.357 C  
ENDROOT
BRANCH   3   4
HETATM    4  N   UNL     1     -11.993  13.157  71.021  1.00  0.00    -0.384 N  
HETATM    5  H   UNL     1     -10.997  12.944  71.077  1.00  0.00     0.000 HD 
BRANCH   4   6
HETATM    6  C   UNL     1     -12.912  12.299  71.592  1.00  0.00    -0.311 C  
HETATM    7  O   UNL     1     -13.777  12.747  72.345  1.00  0.00    -0.546 OA 
BRANCH   6   8
HETATM    8  N   UNL     1     -12.764  10.950  71.279  1.00  0.00    -0.412 N  
BRANCH   8   9
HETATM    9  C   UNL     1     -13.368   9.820  72.000  1.00  0.00    -0.451 C  
HETATM   10 CL   UNL     1     -11.049   8.433  72.485  1.00  0.00    -0.431 Cl 
HETATM   11  C   UNL     1     -12.665   8.491  71.732  1.00  0.00    -0.349 C  
ENDBRANCH   8   9
BRANCH   8  12
HETATM   12  N   UNL     1     -11.936  10.685  70.168  1.00  0.00    -0.308 NA 
HETATM   13  H   UNL     1     -11.585   9.728  70.206  1.00  0.00     0.000 HD 
HETATM   14  H   UNL     1     -11.909  10.730  68.326  1.00  0.00     0.000 HD 
HETATM   15  O   UNL     1     -12.466  10.907  69.074  1.00  0.00    -0.425 OA 
ENDBRANCH   8  12
ENDBRANCH   6   8
ENDBRANCH   4   6
ENDBRANCH   3   4
TORSDOF 5
ENDMDL
MODEL       35
REMARK 921   NORMALIZED FREE ENERGY PREDICTED BY IDOCK:   -4.11 KCAL/MOL
REMARK 922        TOTAL FREE ENERGY PREDICTED BY IDOCK:   -5.39 KCAL/MOL
REMARK 923 INTER-LIGAND FREE ENERGY PREDICTED BY IDOCK:   -5.04 KCAL/MOL
REMARK 924 INTRA-LIGAND FREE ENERGY PREDICTED BY IDOCK:   -0.35 KCAL/MOL
REMARK 927      BINDING AFFINITY PREDICTED BY RF-SCORE:    0.00 PKD
ROOT
HETATM    1 CL   UNL     1     -11.967  15.789  70.507  1.00  0.00    -0.385 Cl 
HETATM    2  C   UNL     1     -12.252  14.040  70.311  1.00  0.00    -0.361 C  
HETATM    3  C   UNL     1     -11.776  13.544  68.951  1.00  0.00    -0.339 C  
ENDROOT
BRANCH   3   4
HETATM    4  N   UNL     1     -12.407  14.233  67.833  1.00  0.00    -0.570 N  
HETATM    5  H   UNL     1     -13.418  14.367  67.826  1.00  0.00     0.000 HD 
BRANCH   4   6
HETATM    6  C   UNL     1     -11.644  14.703  66.784  1.00  0.00    -0.360 C  
HETATM    7  O   UNL     1     -10.896  15.667  66.958  1.00  0.00    -0.318 OA 
BRANCH   6   8
HETATM    8  N   UNL     1     -11.807  14.045  65.567  1.00  0.00    -0.351 N  
BRANCH   8   9
HETATM    9  C   UNL     1     -12.038  12.605  65.383  1.00  0.00    -0.462 C  
HETATM   10 CL   UNL     1      -9.539  11.751  66.133  1.00  0.00    -0.241 Cl 
HETATM   11  C   UNL     1     -10.805  11.857  64.881  1.00  0.00    -0.305 C  
ENDBRANCH   8   9
BRANCH   8  12
HETATM   12  N   UNL     1     -11.720  14.872  64.428  1.00  0.00    -0.639 NA 
HETATM   13  H   UNL     1     -10.870  14.664  63.902  1.00  0.00     0.000 HD 
HETATM   14  H   UNL     1     -12.649  15.383  62.922  1.00  0.00     0.000 HD 
HETATM   15  O   UNL     1     -12.708  14.826  63.688  1.00  0.00    -0.713 OA 
ENDBRANCH   8  12
ENDBRANCH   6   8
ENDBRANCH   4   6
ENDBRANCH   3   4
TORSDOF 5
ENDMDL
MODEL       36
REMARK 921   NORMALIZED FREE ENERGY PREDICTED BY IDOCK:   -4.09 KCAL/MOL
REMARK 922        TOTAL FREE ENERGY PREDICTED BY IDOCK:   -5.37 KCAL/MOL
REMARK 923 INTER-LIGAND FREE ENERGY PREDICTED BY IDOCK:   -4.92 KCAL/MOL
REMARK 924 INTRA-LIGAND FREE ENERGY PREDICTED BY IDOCK:   -0.45 KCAL/MOL
REMARK 927      BINDING AFFINITY PREDICTED BY RF-SCORE:    0.00 PKD
ROOT
HETATM    1 CL   UNL     1     -10.340  11.226  69.059  1.00  0.00    -0.210 Cl 
HETATM    2  C   UNL     1     -10.713  12.929  68.686  1.00  0.00    -0.247 C  
HETATM    3  C   UNL     1     -11.902  13.047  67.739  1.00  0.00    -0.347 C  
ENDROOT
BRANCH   3   4
HETATM    4  N   UNL     1     -11.707  12.340  66.479  1.00  0.00    -0.377 N  
HETATM    5  H   UNL     1     -11.283  11.413  66.478  1.00  0.00     0.000 HD 
BRANCH   4   6
HETATM    6  C   UNL     1     -12.094  12.921  65.288  1.00  0.00    -0.453 C  
HETATM    7  O   UNL     1     -13.195  12.649  64.807  1.00  0.00    -0.846 OA 
BRANCH   6   8
HETATM    8  N   UNL     1     -11.166  13.774  64.696  1.00  0.00    -0.363 N  
BRANCH   8   9
HETATM    9  C   UNL     1     -11.211  15.244  64.700  1.00  0.00    -0.356 C  
HETATM   10 CL   UNL     1      -9.029  15.655  66.315  1.00  0.00    -0.359 Cl 
HETATM   11  C   UNL     1     -10.779  15.854  66.032  1.00  0.00    -0.284 C  
ENDBRANCH   8   9
BRANCH   8  12
HETATM   12  N   UNL     1     -10.108  13.127  64.025  1.00  0.00    -0.768 NA 
HETATM   13  H   UNL     1      -9.212  13.387  64.439  1.00  0.00     0.000 HD 
HETATM   14  H   UNL     1      -9.504  11.461  63.518  1.00  0.00     0.000 HD 
HETATM   15  O   UNL     1     -10.217  11.897  63.970  1.00  0.00    -0.306 OA 
ENDBRANCH   8  12
ENDBRANCH   6   8
ENDBRANCH   4   6
ENDBRANCH   3   4
TORSDOF 5
ENDMDL
MODEL       37
REMARK 921   NORMALIZED FREE ENERGY PREDICTED BY IDOCK:   -4.06 KCAL/MOL
REMARK 922        TOTAL FREE ENERGY PREDICTED BY IDOCK:   -5.33 KCAL/MOL
REMARK 923 INTER-LIGAND FREE ENERGY PREDICTED BY IDOCK:   -4.87 KCAL/MOL
REMARK 924 INTRA-LIGAND FREE ENERGY PREDICTED BY IDOCK:   -0.46 KCAL/MOL
REMARK 927      BINDING AFFINITY PREDICTED BY RF-SCORE:    0.00 PKD
ROOT
HETATM    1 CL   UNL     1     -11.512  11.560  67.067  1.00  0.00    -0.346 Cl 
HETATM    2  C   UNL     1     -11.847  12.987  66.053  1.00  0.00    -0.417 C  
HETATM    3  C   UNL     1     -11.564  14.284  66.801  1.00  0.00    -0.391 C  
ENDROOT
BRANCH   3   4
HETATM    4  N   UNL     1     -12.329  14.417  68.034  1.00  0.00    -0.589 N  
HETATM    5  H   UNL     1     -13.347  14.353  68.009  1.00  0.00     0.000 HD 
BRANCH   4   6
HETATM    6  C   UNL     1     -11.684  14.630  69.235  1.00  0.00    -0.312 C  
HETATM    7  O   UNL     1     -10.513  15.014  69.238  1.00  0.00    -0.235 OA 
BRANCH   6   8
HETATM    8  N   UNL     1     -12.426  14.360  70.383  1.00  0.00    -0.342 N  
BRANCH   8   9
HETATM    9  C   UNL     1     -13.470  15.218  70.964  1.00  0.00    -0.452 C  
HETATM   10 CL   UNL     1     -12.162  15.828  73.300  1.00  0.00    -0.570 Cl 
HETATM   11  C   UNL     1     -13.570  15.098  72.483  1.00  0.00    -0.488 C  
ENDBRANCH   8   9
BRANCH   8  12
HETATM   12  N   UNL     1     -12.103  13.148  71.027  1.00  0.00    -0.430 NA 
HETATM   13  H   UNL     1     -12.516  13.120  71.959  1.00  0.00     0.000 HD 
HETATM   14  H   UNL     1     -12.190  11.319  70.822  1.00  0.00     0.000 HD 
HETATM   15  O   UNL     1     -12.408  12.135  70.388  1.00  0.00    -0.303 OA 
ENDBRANCH   8  12
ENDBRANCH   6   8
ENDBRANCH   4   6
ENDBRANCH   3   4
TORSDOF 5
ENDMDL
MODEL       38
REMARK 921   NORMALIZED FREE ENERGY PREDICTED BY IDOCK:   -4.04 KCAL/MOL
REMARK 922        TOTAL FREE ENERGY PREDICTED BY IDOCK:   -5.31 KCAL/MOL
REMARK 923 INTER-LIGAND FREE ENERGY PREDICTED BY IDOCK:   -4.80 KCAL/MOL
REMARK 924 INTRA-LIGAND FREE ENERGY PREDICTED BY IDOCK:   -0.51 KCAL/MOL
REMARK 927      BINDING AFFINITY PREDICTED BY RF-SCORE:    0.00 PKD
ROOT
HETATM    1 CL   UNL     1     -13.712  13.382  72.345  1.00  0.00    -0.696 Cl 
HETATM    2  C   UNL     1     -12.518  14.327  71.417  1.00  0.00    -0.360 C  
HETATM    3  C   UNL     1     -12.123  13.618  70.127  1.00  0.00    -0.361 C  
ENDROOT
BRANCH   3   4
HETATM    4  N   UNL     1     -11.574  12.286  70.346  1.00  0.00    -0.493 N  
HETATM    5  H   UNL     1     -11.022  12.096  71.183  1.00  0.00     0.000 HD 
BRANCH   4   6
HETATM    6  C   UNL     1     -11.796  11.281  69.427  1.00  0.00    -0.355 C  
HETATM    7  O   UNL     1     -12.023  11.570  68.251  1.00  0.00    -0.544 OA 
BRANCH   6   8
HETATM    8  N   UNL     1     -11.769   9.981  69.925  1.00  0.00    -0.175 N  
BRANCH   8   9
HETATM    9  C   UNL     1     -10.722   8.978  69.678  1.00  0.00    -0.219 C  
HETATM   10 CL   UNL     1      -9.941   8.636  72.288  1.00  0.00    -0.382 Cl 
HETATM   11  C   UNL     1      -9.527   9.111  70.619  1.00  0.00    -0.261 C  
ENDBRANCH   8   9
BRANCH   8  12
HETATM   12  N   UNL     1     -12.875   9.629  70.725  1.00  0.00    -0.540 NA 
HETATM   13  H   UNL     1     -12.939   8.615  70.818  1.00  0.00     0.000 HD 
HETATM   14  H   UNL     1     -13.635   9.929  72.377  1.00  0.00     0.000 HD 
HETATM   15  O   UNL     1     -12.890  10.166  71.838  1.00  0.00    -0.413 OA 
ENDBRANCH   8  12
ENDBRANCH   6   8
ENDBRANCH   4   6
ENDBRANCH   3   4
TORSDOF 5
ENDMDL
MODEL       39
REMARK 921   NORMALIZED FREE ENERGY PREDICTED BY IDOCK:   -4.02 KCAL/MOL
REMARK 922        TOTAL FREE ENERGY PREDICTED BY IDOCK:   -5.28 KCAL/MOL
REMARK 923 INTER-LIGAND FREE ENERGY PREDICTED BY IDOCK:   -4.75 KCAL/MOL
REMARK 924 INTRA-LIGAND FREE ENERGY PREDICTED BY IDOCK:   -0.53 KCAL/MOL
REMARK 927      BINDING AFFINITY PREDICTED BY RF-SCORE:    0.00 PKD
ROOT
HETATM    1 CL   UNL     1     -13.090  12.356  71.606  1.00  0.00    -0.474 Cl 
HETATM    2  C   UNL     1     -12.338  13.921  71.204  1.00  0.00    -0.359 C  
HETATM    3  C   UNL     1     -12.144  14.079  69.700  1.00  0.00    -0.355 C  
ENDROOT
BRANCH   3   4
HETATM    4  N   UNL     1     -11.332  13.023  69.110  1.00  0.00    -0.292 N  
HETATM    5  H   UNL     1     -10.524  12.661  69.617  1.00  0.00     0.000 HD 
BRANCH   4   6
HETATM    6  C   UNL     1     -11.650  12.511  67.869  1.00  0.00    -0.347 C  
HETATM    7  O   UNL     1     -12.029  11.342  67.771  1.00  0.00    -0.637 OA 
BRANCH   6   8
HETATM    8  N   UNL     1     -11.487  13.377  66.791  1.00  0.00    -0.328 N  
BRANCH   8   9
HETATM    9  C   UNL     1     -12.516  13.740  65.805  1.00  0.00    -0.485 C  
HETATM   10 CL   UNL     1     -11.281  12.670  63.599  1.00  0.00    -0.509 Cl 
HETATM   11  C   UNL     1     -11.939  14.100  64.438  1.00  0.00    -0.457 C  
ENDBRANCH   8   9
BRANCH   8  12
HETATM   12  N   UNL     1     -10.194  13.924  66.659  1.00  0.00    -0.271 NA 
HETATM   13  H   UNL     1     -10.077  14.716  67.292  1.00  0.00     0.000 HD 
HETATM   14  H   UNL     1      -8.408  13.478  66.723  1.00  0.00     0.000 HD 
HETATM   15  O   UNL     1      -9.278  13.109  66.812  1.00  0.00    -0.233 OA 
ENDBRANCH   8  12
ENDBRANCH   6   8
ENDBRANCH   4   6
ENDBRANCH   3   4
TORSDOF 5
ENDMDL
MODEL       40
REMARK 921   NORMALIZED FREE ENERGY PREDICTED BY IDOCK:   -3.98 KCAL/MOL
REMARK 922        TOTAL FREE ENERGY PREDICTED BY IDOCK:   -5.22 KCAL/MOL
REMARK 923 INTER-LIGAND FREE ENERGY PREDICTED BY IDOCK:   -4.77 KCAL/MOL
REMARK 924 INTRA-LIGAND FREE ENERGY PREDICTED BY IDOCK:   -0.45 KCAL/MOL
REMARK 927      BINDING AFFINITY PREDICTED BY RF-SCORE:    0.00 PKD
ROOT
HETATM    1 CL   UNL     1     -12.558  16.102  72.966  1.00  0.00    -0.559 Cl 
HETATM    2  C   UNL     1     -14.019  15.299  72.332  1.00  0.00    -0.543 C  
HETATM    3  C   UNL     1     -13.843  13.787  72.268  1.00  0.00    -0.580 C  
ENDROOT
BRANCH   3   4
HETATM    4  N   UNL     1     -12.710  13.372  71.452  1.00  0.00    -0.347 N  
HETATM    5  H   UNL     1     -12.023  14.063  71.148  1.00  0.00     0.000 HD 
BRANCH   4   6
HETATM    6  C   UNL     1     -12.561  12.050  71.087  1.00  0.00    -0.271 C  
HETATM    7  O   UNL     1     -13.104  11.168  71.754  1.00  0.00    -0.467 OA 
BRANCH   6   8
HETATM    8  N   UNL     1     -11.761  11.810  69.971  1.00  0.00    -0.323 N  
BRANCH   8   9
HETATM    9  C   UNL     1     -11.520  10.504  69.340  1.00  0.00    -0.262 C  
HETATM   10 CL   UNL     1     -10.243   9.320  71.462  1.00  0.00    -0.391 Cl 
HETATM   11  C   UNL     1     -10.199   9.866  69.765  1.00  0.00    -0.246 C  
ENDBRANCH   8   9
BRANCH   8  12
HETATM   12  N   UNL     1     -11.130  12.952  69.438  1.00  0.00    -0.453 NA 
HETATM   13  H   UNL     1     -10.210  12.711  69.069  1.00  0.00     0.000 HD 
HETATM   14  H   UNL     1     -11.369  14.319  68.224  1.00  0.00     0.000 HD 
HETATM   15  O   UNL     1     -11.794  13.549  68.583  1.00  0.00    -0.333 OA 
ENDBRANCH   8  12
ENDBRANCH   6   8
ENDBRANCH   4   6
ENDBRANCH   3   4
TORSDOF 5
ENDMDL
MODEL       41
REMARK 921   NORMALIZED FREE ENERGY PREDICTED BY IDOCK:   -3.98 KCAL/MOL
REMARK 922        TOTAL FREE ENERGY PREDICTED BY IDOCK:   -5.22 KCAL/MOL
REMARK 923 INTER-LIGAND FREE ENERGY PREDICTED BY IDOCK:   -4.70 KCAL/MOL
REMARK 924 INTRA-LIGAND FREE ENERGY PREDICTED BY IDOCK:   -0.52 KCAL/MOL
REMARK 927      BINDING AFFINITY PREDICTED BY RF-SCORE:    0.00 PKD
ROOT
HETATM    1 CL   UNL     1     -10.275  19.873  68.994  1.00  0.00    -0.461 Cl 
HETATM    2  C   UNL     1      -9.893  20.295  67.304  1.00  0.00    -0.452 C  
HETATM    3  C   UNL     1     -10.495  19.292  66.327  1.00  0.00    -0.478 C  
ENDROOT
BRANCH   3   4
HETATM    4  N   UNL     1     -10.053  17.923  66.561  1.00  0.00    -0.353 N  
HETATM    5  H   UNL     1      -9.408  17.722  67.326  1.00  0.00     0.000 HD 
BRANCH   4   6
HETATM    6  C   UNL     1     -10.502  16.898  65.753  1.00  0.00    -0.268 C  
HETATM    7  O   UNL     1     -10.932  17.153  64.628  1.00  0.00    -1.005 OA 
BRANCH   6   8
HETATM    8  N   UNL     1     -10.453  15.620  66.305  1.00  0.00    -0.297 N  
BRANCH   8   9
HETATM    9  C   UNL     1     -11.452  15.025  67.205  1.00  0.00    -0.304 C  
HETATM   10 CL   UNL     1     -10.191  15.622  69.570  1.00  0.00    -0.259 Cl 
HETATM   11  C   UNL     1     -10.836  14.391  68.452  1.00  0.00    -0.248 C  
ENDBRANCH   8   9
BRANCH   8  12
HETATM   12  N   UNL     1      -9.316  14.865  65.954  1.00  0.00    -0.487 NA 
HETATM   13  H   UNL     1      -9.319  14.660  64.955  1.00  0.00     0.000 HD 
HETATM   14  H   UNL     1      -7.475  14.869  66.050  1.00  0.00     0.000 HD 
HETATM   15  O   UNL     1      -8.241  15.378  66.286  1.00  0.00    -0.087 OA 
ENDBRANCH   8  12
ENDBRANCH   6   8
ENDBRANCH   4   6
ENDBRANCH   3   4
TORSDOF 5
ENDMDL
MODEL       42
REMARK 921   NORMALIZED FREE ENERGY PREDICTED BY IDOCK:   -3.97 KCAL/MOL
REMARK 922        TOTAL FREE ENERGY PREDICTED BY IDOCK:   -5.21 KCAL/MOL
REMARK 923 INTER-LIGAND FREE ENERGY PREDICTED BY IDOCK:   -4.85 KCAL/MOL
REMARK 924 INTRA-LIGAND FREE ENERGY PREDICTED BY IDOCK:   -0.36 KCAL/MOL
REMARK 927      BINDING AFFINITY PREDICTED BY RF-SCORE:    0.00 PKD
ROOT
HETATM    1 CL   UNL     1     -13.969  13.755  72.380  1.00  0.00    -0.657 Cl 
HETATM    2  C   UNL     1     -12.924  14.894  73.268  1.00  0.00    -0.519 C  
HETATM    3  C   UNL     1     -12.085  15.741  72.319  1.00  0.00    -0.478 C  
ENDROOT
BRANCH   3   4
HETATM    4  N   UNL     1     -11.240  14.949  71.434  1.00  0.00    -0.566 N  
HETATM    5  H   UNL     1     -10.808  14.092  71.778  1.00  0.00     0.000 HD 
BRANCH   4   6
HETATM    6  C   UNL     1     -11.023  15.353  70.132  1.00  0.00    -0.310 C  
HETATM    7  O   UNL     1     -11.020  16.554  69.859  1.00  0.00    -0.349 OA 
BRANCH   6   8
HETATM    8  N   UNL     1     -10.845  14.334  69.198  1.00  0.00    -0.252 N  
BRANCH   8   9
HETATM    9  C   UNL     1     -11.911  13.575  68.528  1.00  0.00    -0.362 C  
HETATM   10 CL   UNL     1     -12.140  11.573  70.392  1.00  0.00    -0.457 Cl 
HETATM   11  C   UNL     1     -11.782  12.065  68.715  1.00  0.00    -0.321 C  
ENDBRANCH   8   9
BRANCH   8  12
HETATM   12  N   UNL     1      -9.501  14.023  68.909  1.00  0.00    -0.397 NA 
HETATM   13  H   UNL     1      -9.319  13.034  69.081  1.00  0.00     0.000 HD 
HETATM   14  H   UNL     1      -8.234  14.127  67.574  1.00  0.00     0.000 HD 
HETATM   15  O   UNL     1      -9.140  14.336  67.769  1.00  0.00    -0.182 OA 
ENDBRANCH   8  12
ENDBRANCH   6   8
ENDBRANCH   4   6
ENDBRANCH   3   4
TORSDOF 5
ENDMDL
MODEL       43
REMARK 921   NORMALIZED FREE ENERGY PREDICTED BY IDOCK:   -3.96 KCAL/MOL
REMARK 922        TOTAL FREE ENERGY PREDICTED BY IDOCK:   -5.19 KCAL/MOL
REMARK 923 INTER-LIGAND FREE ENERGY PREDICTED BY IDOCK:   -4.66 KCAL/MOL
REMARK 924 INTRA-LIGAND FREE ENERGY PREDICTED BY IDOCK:   -0.54 KCAL/MOL
REMARK 927      BINDING AFFINITY PREDICTED BY RF-SCORE:    0.00 PKD
ROOT
HETATM    1 CL   UNL     1     -13.487  13.945  72.683  1.00  0.00    -0.649 Cl 
HETATM    2  C   UNL     1     -12.916  14.916  71.301  1.00  0.00    -0.363 C  
HETATM    3  C   UNL     1     -12.621  14.042  70.087  1.00  0.00    -0.251 C  
ENDROOT
BRANCH   3   4
HETATM    4  N   UNL     1     -11.632  13.005  70.350  1.00  0.00    -0.511 N  
HETATM    5  H   UNL     1     -10.687  13.264  70.633  1.00  0.00     0.000 HD 
BRANCH   4   6
HETATM    6  C   UNL     1     -11.967  11.673  70.219  1.00  0.00    -0.358 C  
HETATM    7  O   UNL     1     -12.791  11.173  70.987  1.00  0.00    -0.359 OA 
BRANCH   6   8
HETATM    8  N   UNL     1     -11.307  10.973  69.211  1.00  0.00    -0.255 N  
BRANCH   8   9
HETATM    9  C   UNL     1      -9.997  10.315  69.327  1.00  0.00    -0.227 C  
HETATM   10 CL   UNL     1      -8.485  12.363  68.296  1.00  0.00    -0.176 Cl 
HETATM   11  C   UNL     1      -9.043  10.672  68.188  1.00  0.00    -0.148 C  
ENDBRANCH   8   9
BRANCH   8  12
HETATM   12  N   UNL     1     -11.986  10.928  67.977  1.00  0.00    -0.777 NA 
HETATM   13  H   UNL     1     -12.926  10.553  68.101  1.00  0.00     0.000 HD 
HETATM   14  H   UNL     1     -12.485  11.979  66.547  1.00  0.00     0.000 HD 
HETATM   15  O   UNL     1     -12.028  12.009  67.379  1.00  0.00    -0.583 OA 
ENDBRANCH   8  12
ENDBRANCH   6   8
ENDBRANCH   4   6
ENDBRANCH   3   4
TORSDOF 5
ENDMDL
MODEL       44
REMARK 921   NORMALIZED FREE ENERGY PREDICTED BY IDOCK:   -3.95 KCAL/MOL
REMARK 922        TOTAL FREE ENERGY PREDICTED BY IDOCK:   -5.19 KCAL/MOL
REMARK 923 INTER-LIGAND FREE ENERGY PREDICTED BY IDOCK:   -4.78 KCAL/MOL
REMARK 924 INTRA-LIGAND FREE ENERGY PREDICTED BY IDOCK:   -0.41 KCAL/MOL
REMARK 927      BINDING AFFINITY PREDICTED BY RF-SCORE:    0.00 PKD
ROOT
HETATM    1 CL   UNL     1      -9.964  19.771  69.163  1.00  0.00    -0.467 Cl 
HETATM    2  C   UNL     1      -9.952  20.262  67.449  1.00  0.00    -0.427 C  
HETATM    3  C   UNL     1     -10.648  19.231  66.567  1.00  0.00    -0.446 C  
ENDROOT
BRANCH   3   4
HETATM    4  N   UNL     1     -10.059  17.902  66.660  1.00  0.00    -0.344 N  
HETATM    5  H   UNL     1      -9.297  17.729  67.316  1.00  0.00     0.000 HD 
BRANCH   4   6
HETATM    6  C   UNL     1     -10.525  16.876  65.863  1.00  0.00    -0.285 C  
HETATM    7  O   UNL     1     -11.130  17.139  64.823  1.00  0.00    -0.909 OA 
BRANCH   6   8
HETATM    8  N   UNL     1     -10.289  15.585  66.330  1.00  0.00    -0.289 N  
BRANCH   8   9
HETATM    9  C   UNL     1      -9.862  14.434  65.521  1.00  0.00    -0.266 C  
HETATM   10 CL   UNL     1     -12.132  14.218  63.992  1.00  0.00    -0.432 Cl 
HETATM   11  C   UNL     1     -11.008  13.488  65.168  1.00  0.00    -0.320 C  
ENDBRANCH   8   9
BRANCH   8  12
HETATM   12  N   UNL     1     -10.507  15.404  67.711  1.00  0.00    -0.260 NA 
HETATM   13  H   UNL     1      -9.671  15.656  68.239  1.00  0.00     0.000 HD 
HETATM   14  H   UNL     1     -11.641  15.879  69.084  1.00  0.00     0.000 HD 
HETATM   15  O   UNL     1     -11.494  16.001  68.154  1.00  0.00    -0.338 OA 
ENDBRANCH   8  12
ENDBRANCH   6   8
ENDBRANCH   4   6
ENDBRANCH   3   4
TORSDOF 5
ENDMDL
MODEL       45
REMARK 921   NORMALIZED FREE ENERGY PREDICTED BY IDOCK:   -3.93 KCAL/MOL
REMARK 922        TOTAL FREE ENERGY PREDICTED BY IDOCK:   -5.17 KCAL/MOL
REMARK 923 INTER-LIGAND FREE ENERGY PREDICTED BY IDOCK:   -4.46 KCAL/MOL
REMARK 924 INTRA-LIGAND FREE ENERGY PREDICTED BY IDOCK:   -0.71 KCAL/MOL
REMARK 927      BINDING AFFINITY PREDICTED BY RF-SCORE:    0.00 PKD
ROOT
HETATM    1 CL   UNL     1     -12.241  11.980  63.424  1.00  0.00    -0.648 Cl 
HETATM    2  C   UNL     1     -10.474  11.753  63.336  1.00  0.00    -0.434 C  
HETATM    3  C   UNL     1     -10.024  10.547  64.152  1.00  0.00    -0.318 C  
ENDROOT
BRANCH   3   4
HETATM    4  N   UNL     1     -10.399  10.629  65.557  1.00  0.00    -0.254 N  
HETATM    5  H   UNL     1     -11.058   9.955  65.947  1.00  0.00     0.000 HD 
BRANCH   4   6
HETATM    6  C   UNL     1      -9.869  11.616  66.364  1.00  0.00    -0.207 C  
HETATM    7  O   UNL     1      -8.683  11.560  66.695  1.00  0.00    -0.172 OA 
BRANCH   6   8
HETATM    8  N   UNL     1     -10.753  12.612  66.771  1.00  0.00    -0.237 N  
BRANCH   8   9
HETATM    9  C   UNL     1     -10.430  14.034  66.960  1.00  0.00    -0.275 C  
HETATM   10 CL   UNL     1     -11.823  14.999  64.800  1.00  0.00    -0.372 Cl 
HETATM   11  C   UNL     1     -10.266  14.794  65.645  1.00  0.00    -0.358 C  
ENDBRANCH   8   9
BRANCH   8  12
HETATM   12  N   UNL     1     -12.066  12.171  67.031  1.00  0.00    -0.546 NA 
HETATM   13  H   UNL     1     -12.509  11.847  66.171  1.00  0.00     0.000 HD 
HETATM   14  H   UNL     1     -13.033  11.010  68.085  1.00  0.00     0.000 HD 
HETATM   15  O   UNL     1     -12.148  11.307  67.910  1.00  0.00    -0.634 OA 
ENDBRANCH   8  12
ENDBRANCH   6   8
ENDBRANCH   4   6
ENDBRANCH   3   4
TORSDOF 5
ENDMDL
MODEL       46
REMARK 921   NORMALIZED FREE ENERGY PREDICTED BY IDOCK:   -3.93 KCAL/MOL
REMARK 922        TOTAL FREE ENERGY PREDICTED BY IDOCK:   -5.16 KCAL/MOL
REMARK 923 INTER-LIGAND FREE ENERGY PREDICTED BY IDOCK:   -5.09 KCAL/MOL
REMARK 924 INTRA-LIGAND FREE ENERGY PREDICTED BY IDOCK:   -0.07 KCAL/MOL
REMARK 927      BINDING AFFINITY PREDICTED BY RF-SCORE:    0.00 PKD
ROOT
HETATM    1 CL   UNL     1      -7.449  13.409  67.675  1.00  0.00    -0.164 Cl 
HETATM    2  C   UNL     1      -9.049  12.626  67.604  1.00  0.00    -0.192 C  
HETATM    3  C   UNL     1      -9.688  12.783  66.230  1.00  0.00    -0.262 C  
ENDROOT
BRANCH   3   4
HETATM    4  N   UNL     1      -9.847  14.174  65.824  1.00  0.00    -0.446 N  
HETATM    5  H   UNL     1      -9.182  14.592  65.173  1.00  0.00     0.000 HD 
BRANCH   4   6
HETATM    6  C   UNL     1     -10.893  14.928  66.315  1.00  0.00    -0.331 C  
HETATM    7  O   UNL     1     -11.967  14.384  66.577  1.00  0.00    -0.404 OA 
BRANCH   6   8
HETATM    8  N   UNL     1     -10.649  16.292  66.457  1.00  0.00    -0.291 N  
BRANCH   8   9
HETATM    9  C   UNL     1     -10.619  17.042  67.721  1.00  0.00    -0.350 C  
HETATM   10 CL   UNL     1     -10.741  19.562  66.636  1.00  0.00    -0.560 Cl 
HETATM   11  C   UNL     1      -9.858  18.363  67.619  1.00  0.00    -0.313 C  
ENDBRANCH   8   9
BRANCH   8  12
HETATM   12  N   UNL     1     -10.429  16.984  65.248  1.00  0.00    -0.665 NA 
HETATM   13  H   UNL     1      -9.478  16.824  64.914  1.00  0.00     0.000 HD 
HETATM   14  H   UNL     1     -11.100  17.194  63.545  1.00  0.00     0.000 HD 
HETATM   15  O   UNL     1     -11.248  16.728  64.359  1.00  0.00    -1.112 OA 
ENDBRANCH   8  12
ENDBRANCH   6   8
ENDBRANCH   4   6
ENDBRANCH   3   4
TORSDOF 5
ENDMDL
MODEL       47
REMARK 921   NORMALIZED FREE ENERGY PREDICTED BY IDOCK:   -3.92 KCAL/MOL
REMARK 922        TOTAL FREE ENERGY PREDICTED BY IDOCK:   -5.15 KCAL/MOL
REMARK 923 INTER-LIGAND FREE ENERGY PREDICTED BY IDOCK:   -4.54 KCAL/MOL
REMARK 924 INTRA-LIGAND FREE ENERGY PREDICTED BY IDOCK:   -0.61 KCAL/MOL
REMARK 927      BINDING AFFINITY PREDICTED BY RF-SCORE:    0.00 PKD
ROOT
HETATM    1 CL   UNL     1     -12.388  11.853  63.088  1.00  0.00    -0.513 Cl 
HETATM    2  C   UNL     1     -10.659  11.711  63.498  1.00  0.00    -0.435 C  
HETATM    3  C   UNL     1     -10.460  11.080  64.871  1.00  0.00    -0.303 C  
ENDROOT
BRANCH   3   4
HETATM    4  N   UNL     1     -11.120  11.813  65.944  1.00  0.00    -0.315 N  
HETATM    5  H   UNL     1     -11.962  11.432  66.375  1.00  0.00     0.000 HD 
BRANCH   4   6
HETATM    6  C   UNL     1     -10.612  13.020  66.378  1.00  0.00    -0.284 C  
HETATM    7  O   UNL     1      -9.664  13.035  67.166  1.00  0.00    -0.219 OA 
BRANCH   6   8
HETATM    8  N   UNL     1     -11.249  14.161  65.895  1.00  0.00    -0.309 N  
BRANCH   8   9
HETATM    9  C   UNL     1     -10.665  15.166  64.995  1.00  0.00    -0.430 C  
HETATM   10 CL   UNL     1      -9.185  16.505  66.880  1.00  0.00    -0.232 Cl 
HETATM   11  C   UNL     1     -10.482  16.531  65.656  1.00  0.00    -0.324 C  
ENDBRANCH   8   9
BRANCH   8  12
HETATM   12  N   UNL     1     -12.573  14.338  66.347  1.00  0.00    -0.499 NA 
HETATM   13  H   UNL     1     -12.728  15.308  66.624  1.00  0.00     0.000 HD 
HETATM   14  H   UNL     1     -14.330  14.093  65.849  1.00  0.00     0.000 HD 
HETATM   15  O   UNL     1     -13.439  13.975  65.544  1.00  0.00    -0.677 OA 
ENDBRANCH   8  12
ENDBRANCH   6   8
ENDBRANCH   4   6
ENDBRANCH   3   4
TORSDOF 5
ENDMDL
MODEL       48
REMARK 921   NORMALIZED FREE ENERGY PREDICTED BY IDOCK:   -3.92 KCAL/MOL
REMARK 922        TOTAL FREE ENERGY PREDICTED BY IDOCK:   -5.15 KCAL/MOL
REMARK 923 INTER-LIGAND FREE ENERGY PREDICTED BY IDOCK:   -4.68 KCAL/MOL
REMARK 924 INTRA-LIGAND FREE ENERGY PREDICTED BY IDOCK:   -0.47 KCAL/MOL
REMARK 927      BINDING AFFINITY PREDICTED BY RF-SCORE:    0.00 PKD
ROOT
HETATM    1 CL   UNL     1     -10.622  10.844  64.338  1.00  0.00    -0.409 Cl 
HETATM    2  C   UNL     1     -12.142  11.766  64.200  1.00  0.00    -0.214 C  
HETATM    3  C   UNL     1     -11.937  13.073  63.443  1.00  0.00    -0.520 C  
ENDROOT
BRANCH   3   4
HETATM    4  N   UNL     1     -10.936  13.940  64.052  1.00  0.00    -0.521 N  
HETATM    5  H   UNL     1      -9.947  13.701  63.982  1.00  0.00     0.000 HD 
BRANCH   4   6
HETATM    6  C   UNL     1     -11.320  15.084  64.722  1.00  0.00    -0.406 C  
HETATM    7  O   UNL     1     -11.933  15.966  64.119  1.00  0.00    -0.577 OA 
BRANCH   6   8
HETATM    8  N   UNL     1     -10.947  15.161  66.062  1.00  0.00    -0.335 N  
BRANCH   8   9
HETATM    9  C   UNL     1      -9.644  15.606  66.577  1.00  0.00    -0.270 C  
HETATM   10 CL   UNL     1     -10.531  17.861  67.869  1.00  0.00    -0.394 Cl 
HETATM   11  C   UNL     1      -9.500  17.127  66.612  1.00  0.00    -0.264 C  
ENDBRANCH   8   9
BRANCH   8  12
HETATM   12  N   UNL     1     -11.937  14.749  66.977  1.00  0.00    -0.391 NA 
HETATM   13  H   UNL     1     -12.840  15.155  66.732  1.00  0.00     0.000 HD 
HETATM   14  H   UNL     1     -12.702  13.246  67.722  1.00  0.00     0.000 HD 
HETATM   15  O   UNL     1     -12.035  13.524  67.104  1.00  0.00    -0.380 OA 
ENDBRANCH   8  12
ENDBRANCH   6   8
ENDBRANCH   4   6
ENDBRANCH   3   4
TORSDOF 5
ENDMDL
MODEL       49
REMARK 921   NORMALIZED FREE ENERGY PREDICTED BY IDOCK:   -3.92 KCAL/MOL
REMARK 922        TOTAL FREE ENERGY PREDICTED BY IDOCK:   -5.15 KCAL/MOL
REMARK 923 INTER-LIGAND FREE ENERGY PREDICTED BY IDOCK:   -4.56 KCAL/MOL
REMARK 924 INTRA-LIGAND FREE ENERGY PREDICTED BY IDOCK:   -0.59 KCAL/MOL
REMARK 927      BINDING AFFINITY PREDICTED BY RF-SCORE:    0.00 PKD
ROOT
HETATM    1 CL   UNL     1      -7.452  10.580  64.929  1.00  0.00    -0.057 Cl 
HETATM    2  C   UNL     1      -8.831   9.601  65.492  1.00  0.00    -0.172 C  
HETATM    3  C   UNL     1     -10.153  10.133  64.951  1.00  0.00    -0.207 C  
ENDROOT
BRANCH   3   4
HETATM    4  N   UNL     1     -10.407  11.522  65.313  1.00  0.00    -0.260 N  
HETATM    5  H   UNL     1      -9.787  12.256  64.973  1.00  0.00     0.000 HD 
BRANCH   4   6
HETATM    6  C   UNL     1     -11.482  11.847  66.115  1.00  0.00    -0.288 C  
HETATM    7  O   UNL     1     -11.651  11.250  67.179  1.00  0.00    -0.513 OA 
BRANCH   6   8
HETATM    8  N   UNL     1     -12.329  12.839  65.628  1.00  0.00    -0.445 N  
BRANCH   8   9
HETATM    9  C   UNL     1     -12.492  14.191  66.182  1.00  0.00    -0.395 C  
HETATM   10 CL   UNL     1     -10.310  15.332  64.966  1.00  0.00    -0.409 Cl 
HETATM   11  C   UNL     1     -11.163  14.887  66.469  1.00  0.00    -0.335 C  
ENDBRANCH   8   9
BRANCH   8  12
HETATM   12  N   UNL     1     -13.096  12.465  64.505  1.00  0.00    -0.815 NA 
HETATM   13  H   UNL     1     -13.997  12.945  64.514  1.00  0.00     0.000 HD 
HETATM   14  H   UNL     1     -13.045  12.382  62.665  1.00  0.00     0.000 HD 
HETATM   15  O   UNL     1     -12.528  12.634  63.421  1.00  0.00    -0.663 OA 
ENDBRANCH   8  12
ENDBRANCH   6   8
ENDBRANCH   4   6
ENDBRANCH   3   4
TORSDOF 5
ENDMDL
MODEL       50
REMARK 921   NORMALIZED FREE ENERGY PREDICTED BY IDOCK:   -3.92 KCAL/MOL
REMARK 922        TOTAL FREE ENERGY PREDICTED BY IDOCK:   -5.14 KCAL/MOL
REMARK 923 INTER-LIGAND FREE ENERGY PREDICTED BY IDOCK:   -4.68 KCAL/MOL
REMARK 924 INTRA-LIGAND FREE ENERGY PREDICTED BY IDOCK:   -0.46 KCAL/MOL
REMARK 927      BINDING AFFINITY PREDICTED BY RF-SCORE:    0.00 PKD
ROOT
HETATM    1 CL   UNL     1     -12.605  12.702  64.886  1.00  0.00    -0.571 Cl 
HETATM    2  C   UNL     1     -11.975  14.366  64.780  1.00  0.00    -0.447 C  
HETATM    3  C   UNL     1     -11.124  14.720  65.994  1.00  0.00    -0.330 C  
ENDROOT
BRANCH   3   4
HETATM    4  N   UNL     1     -11.837  14.586  67.258  1.00  0.00    -0.426 N  
HETATM    5  H   UNL     1     -12.604  13.918  67.339  1.00  0.00     0.000 HD 
BRANCH   4   6
HETATM    6  C   UNL     1     -11.481  15.358  68.344  1.00  0.00    -0.355 C  
HETATM    7  O   UNL     1     -11.335  16.574  68.207  1.00  0.00    -0.331 OA 
BRANCH   6   8
HETATM    8  N   UNL     1     -11.283  14.674  69.542  1.00  0.00    -0.260 N  
BRANCH   8   9
HETATM    9  C   UNL     1     -11.350  15.251  70.892  1.00  0.00    -0.342 C  
HETATM   10 CL   UNL     1     -13.672  14.018  71.685  1.00  0.00    -0.427 Cl 
HETATM   11  C   UNL     1     -12.778  15.527  71.358  1.00  0.00    -0.451 C  
ENDBRANCH   8   9
BRANCH   8  12
HETATM   12  N   UNL     1     -10.978  13.305  69.399  1.00  0.00    -0.447 NA 
HETATM   13  H   UNL     1     -10.398  12.987  70.176  1.00  0.00     0.000 HD 
HETATM   14  H   UNL     1     -11.761  11.651  69.175  1.00  0.00     0.000 HD 
HETATM   15  O   UNL     1     -11.966  12.574  69.272  1.00  0.00    -0.296 OA 
ENDBRANCH   8  12
ENDBRANCH   6   8
ENDBRANCH   4   6
ENDBRANCH   3   4
TORSDOF 5
ENDMDL
MODEL       51
REMARK 921   NORMALIZED FREE ENERGY PREDICTED BY IDOCK:   -3.91 KCAL/MOL
REMARK 922        TOTAL FREE ENERGY PREDICTED BY IDOCK:   -5.13 KCAL/MOL
REMARK 923 INTER-LIGAND FREE ENERGY PREDICTED BY IDOCK:   -4.55 KCAL/MOL
REMARK 924 INTRA-LIGAND FREE ENERGY PREDICTED BY IDOCK:   -0.58 KCAL/MOL
REMARK 927      BINDING AFFINITY PREDICTED BY RF-SCORE:    0.00 PKD
ROOT
HETATM    1 CL   UNL     1      -8.460  10.578  65.096  1.00  0.00    -0.172 Cl 
HETATM    2  C   UNL     1     -10.076  10.443  64.356  1.00  0.00    -0.272 C  
HETATM    3  C   UNL     1     -10.637  11.810  63.982  1.00  0.00    -0.375 C  
ENDROOT
BRANCH   3   4
HETATM    4  N   UNL     1     -10.733  12.723  65.114  1.00  0.00    -0.287 N  
HETATM    5  H   UNL     1      -9.903  13.220  65.437  1.00  0.00     0.000 HD 
BRANCH   4   6
HETATM    6  C   UNL     1     -11.942  12.917  65.751  1.00  0.00    -0.443 C  
HETATM    7  O   UNL     1     -12.986  12.894  65.098  1.00  0.00    -0.758 OA 
BRANCH   6   8
HETATM    8  N   UNL     1     -11.877  13.157  67.122  1.00  0.00    -0.372 N  
BRANCH   8   9
HETATM    9  C   UNL     1     -11.723  14.469  67.767  1.00  0.00    -0.374 C  
HETATM   10 CL   UNL     1      -8.983  14.601  67.643  1.00  0.00    -0.181 Cl 
HETATM   11  C   UNL     1     -10.468  14.571  68.632  1.00  0.00    -0.247 C  
ENDBRANCH   8   9
BRANCH   8  12
HETATM   12  N   UNL     1     -11.956  12.005  67.931  1.00  0.00    -0.547 NA 
HETATM   13  H   UNL     1     -12.906  11.881  68.282  1.00  0.00     0.000 HD 
HETATM   14  H   UNL     1     -11.612  10.195  67.928  1.00  0.00     0.000 HD 
HETATM   15  O   UNL     1     -11.559  10.971  67.383  1.00  0.00    -0.525 OA 
ENDBRANCH   8  12
ENDBRANCH   6   8
ENDBRANCH   4   6
ENDBRANCH   3   4
TORSDOF 5
ENDMDL
MODEL       52
REMARK 921   NORMALIZED FREE ENERGY PREDICTED BY IDOCK:   -3.89 KCAL/MOL
REMARK 922        TOTAL FREE ENERGY PREDICTED BY IDOCK:   -5.11 KCAL/MOL
REMARK 923 INTER-LIGAND FREE ENERGY PREDICTED BY IDOCK:   -4.56 KCAL/MOL
REMARK 924 INTRA-LIGAND FREE ENERGY PREDICTED BY IDOCK:   -0.56 KCAL/MOL
REMARK 927      BINDING AFFINITY PREDICTED BY RF-SCORE:    0.00 PKD
ROOT
HETATM    1 CL   UNL     1     -13.158  11.134  71.838  1.00  0.00    -0.583 Cl 
HETATM    2  C   UNL     1     -13.145   9.415  72.308  1.00  0.00    -0.428 C  
HETATM    3  C   UNL     1     -11.915   8.695  71.767  1.00  0.00    -0.336 C  
ENDROOT
BRANCH   3   4
HETATM    4  N   UNL     1     -11.796   8.768  70.316  1.00  0.00    -0.466 N  
HETATM    5  H   UNL     1     -12.502   8.327  69.727  1.00  0.00     0.000 HD 
BRANCH   4   6
HETATM    6  C   UNL     1     -10.733   9.430  69.737  1.00  0.00    -0.234 C  
HETATM    7  O   UNL     1      -9.849   9.906  70.450  1.00  0.00    -0.246 OA 
BRANCH   6   8
HETATM    8  N   UNL     1     -10.761   9.531  68.348  1.00  0.00    -0.211 N  
BRANCH   8   9
HETATM    9  C   UNL     1      -9.861   8.844  67.409  1.00  0.00    -0.193 C  
HETATM   10 CL   UNL     1     -11.142   6.416  67.409  1.00  0.00    -0.454 Cl 
HETATM   11  C   UNL     1      -9.667   7.365  67.735  1.00  0.00    -0.143 C  
ENDBRANCH   8   9
BRANCH   8  12
HETATM   12  N   UNL     1     -11.750  10.395  67.835  1.00  0.00    -0.680 NA 
HETATM   13  H   UNL     1     -12.476   9.861  67.357  1.00  0.00     0.000 HD 
HETATM   14  H   UNL     1     -12.919  11.731  68.330  1.00  0.00     0.000 HD 
HETATM   15  O   UNL     1     -12.253  11.149  68.675  1.00  0.00    -0.582 OA 
ENDBRANCH   8  12
ENDBRANCH   6   8
ENDBRANCH   4   6
ENDBRANCH   3   4
TORSDOF 5
ENDMDL
MODEL       53
REMARK 921   NORMALIZED FREE ENERGY PREDICTED BY IDOCK:   -3.89 KCAL/MOL
REMARK 922        TOTAL FREE ENERGY PREDICTED BY IDOCK:   -5.10 KCAL/MOL
REMARK 923 INTER-LIGAND FREE ENERGY PREDICTED BY IDOCK:   -4.67 KCAL/MOL
REMARK 924 INTRA-LIGAND FREE ENERGY PREDICTED BY IDOCK:   -0.44 KCAL/MOL
REMARK 927      BINDING AFFINITY PREDICTED BY RF-SCORE:    0.00 PKD
ROOT
HETATM    1 CL   UNL     1     -12.662  15.866  73.866  1.00  0.00    -0.690 Cl 
HETATM    2  C   UNL     1     -13.987  15.640  72.694  1.00  0.00    -0.525 C  
HETATM    3  C   UNL     1     -13.701  14.486  71.741  1.00  0.00    -0.418 C  
ENDROOT
BRANCH   3   4
HETATM    4  N   UNL     1     -12.460  14.650  70.994  1.00  0.00    -0.305 N  
HETATM    5  H   UNL     1     -11.901  15.494  71.118  1.00  0.00     0.000 HD 
BRANCH   4   6
HETATM    6  C   UNL     1     -12.039  13.670  70.118  1.00  0.00    -0.361 C  
HETATM    7  O   UNL     1     -12.264  12.486  70.375  1.00  0.00    -0.348 OA 
BRANCH   6   8
HETATM    8  N   UNL     1     -11.349  14.112  68.992  1.00  0.00    -0.259 N  
BRANCH   8   9
HETATM    9  C   UNL     1     -11.904  14.266  67.639  1.00  0.00    -0.385 C  
HETATM   10 CL   UNL     1     -11.353  11.728  66.746  1.00  0.00    -0.388 Cl 
HETATM   11  C   UNL     1     -11.125  13.490  66.579  1.00  0.00    -0.300 C  
ENDBRANCH   8   9
BRANCH   8  12
HETATM   12  N   UNL     1      -9.990  14.417  69.211  1.00  0.00    -0.417 NA 
HETATM   13  H   UNL     1      -9.485  14.443  68.325  1.00  0.00     0.000 HD 
HETATM   14  H   UNL     1      -8.882  15.662  69.996  1.00  0.00     0.000 HD 
HETATM   15  O   UNL     1      -9.797  15.458  69.849  1.00  0.00    -0.270 OA 
ENDBRANCH   8  12
ENDBRANCH   6   8
ENDBRANCH   4   6
ENDBRANCH   3   4
TORSDOF 5
ENDMDL
MODEL       54
REMARK 921   NORMALIZED FREE ENERGY PREDICTED BY IDOCK:   -3.88 KCAL/MOL
REMARK 922        TOTAL FREE ENERGY PREDICTED BY IDOCK:   -5.10 KCAL/MOL
REMARK 923 INTER-LIGAND FREE ENERGY PREDICTED BY IDOCK:   -4.69 KCAL/MOL
REMARK 924 INTRA-LIGAND FREE ENERGY PREDICTED BY IDOCK:   -0.41 KCAL/MOL
REMARK 927      BINDING AFFINITY PREDICTED BY RF-SCORE:    0.00 PKD
ROOT
HETATM    1 CL   UNL     1     -11.467  11.595  63.905  1.00  0.00    -0.462 Cl 
HETATM    2  C   UNL     1     -11.936  13.294  63.636  1.00  0.00    -0.486 C  
HETATM    3  C   UNL     1     -11.783  14.125  64.905  1.00  0.00    -0.392 C  
ENDROOT
BRANCH   3   4
HETATM    4  N   UNL     1     -12.561  13.613  66.026  1.00  0.00    -0.424 N  
HETATM    5  H   UNL     1     -13.580  13.595  65.970  1.00  0.00     0.000 HD 
BRANCH   4   6
HETATM    6  C   UNL     1     -11.927  13.154  67.163  1.00  0.00    -0.341 C  
HETATM    7  O   UNL     1     -11.941  11.950  67.424  1.00  0.00    -0.603 OA 
BRANCH   6   8
HETATM    8  N   UNL     1     -11.325  14.124  67.960  1.00  0.00    -0.283 N  
BRANCH   8   9
HETATM    9  C   UNL     1      -9.926  14.131  68.412  1.00  0.00    -0.235 C  
HETATM   10 CL   UNL     1      -8.902  15.638  66.358  1.00  0.00    -0.344 Cl 
HETATM   11  C   UNL     1      -8.923  14.100  67.262  1.00  0.00    -0.214 C  
ENDBRANCH   8   9
BRANCH   8  12
HETATM   12  N   UNL     1     -12.177  15.173  68.363  1.00  0.00    -0.556 NA 
HETATM   13  H   UNL     1     -13.150  14.866  68.353  1.00  0.00     0.000 HD 
HETATM   14  H   UNL     1     -12.466  16.376  69.729  1.00  0.00     0.000 HD 
HETATM   15  O   UNL     1     -11.892  15.669  69.458  1.00  0.00    -0.347 OA 
ENDBRANCH   8  12
ENDBRANCH   6   8
ENDBRANCH   4   6
ENDBRANCH   3   4
TORSDOF 5
ENDMDL
MODEL       55
REMARK 921   NORMALIZED FREE ENERGY PREDICTED BY IDOCK:   -3.88 KCAL/MOL
REMARK 922        TOTAL FREE ENERGY PREDICTED BY IDOCK:   -5.09 KCAL/MOL
REMARK 923 INTER-LIGAND FREE ENERGY PREDICTED BY IDOCK:   -4.61 KCAL/MOL
REMARK 924 INTRA-LIGAND FREE ENERGY PREDICTED BY IDOCK:   -0.48 KCAL/MOL
REMARK 927      BINDING AFFINITY PREDICTED BY RF-SCORE:    0.00 PKD
ROOT
HETATM    1 CL   UNL     1     -13.307  11.679  72.061  1.00  0.00    -0.534 Cl 
HETATM    2  C   UNL     1     -12.809  10.478  70.841  1.00  0.00    -0.394 C  
HETATM    3  C   UNL     1     -11.442  10.808  70.255  1.00  0.00    -0.319 C  
ENDROOT
BRANCH   3   4
HETATM    4  N   UNL     1     -11.383  12.128  69.640  1.00  0.00    -0.464 N  
HETATM    5  H   UNL     1     -11.221  12.952  70.219  1.00  0.00     0.000 HD 
BRANCH   4   6
HETATM    6  C   UNL     1     -11.544  12.269  68.276  1.00  0.00    -0.331 C  
HETATM    7  O   UNL     1     -11.808  11.282  67.588  1.00  0.00    -0.614 OA 
BRANCH   6   8
HETATM    8  N   UNL     1     -11.364  13.554  67.770  1.00  0.00    -0.281 N  
BRANCH   8   9
HETATM    9  C   UNL     1     -12.148  14.181  66.695  1.00  0.00    -0.451 C  
HETATM   10 CL   UNL     1     -10.583  13.357  64.595  1.00  0.00    -0.405 Cl 
HETATM   11  C   UNL     1     -11.286  14.695  65.543  1.00  0.00    -0.343 C  
ENDBRANCH   8   9
BRANCH   8  12
HETATM   12  N   UNL     1     -10.311  14.283  68.360  1.00  0.00    -0.241 NA 
HETATM   13  H   UNL     1      -9.780  14.783  67.646  1.00  0.00     0.000 HD 
HETATM   14  H   UNL     1      -9.958  15.548  69.653  1.00  0.00     0.000 HD 
HETATM   15  O   UNL     1     -10.667  15.057  69.255  1.00  0.00    -0.231 OA 
ENDBRANCH   8  12
ENDBRANCH   6   8
ENDBRANCH   4   6
ENDBRANCH   3   4
TORSDOF 5
ENDMDL
MODEL       56
REMARK 921   NORMALIZED FREE ENERGY PREDICTED BY IDOCK:   -3.87 KCAL/MOL
REMARK 922        TOTAL FREE ENERGY PREDICTED BY IDOCK:   -5.08 KCAL/MOL
REMARK 923 INTER-LIGAND FREE ENERGY PREDICTED BY IDOCK:   -4.78 KCAL/MOL
REMARK 924 INTRA-LIGAND FREE ENERGY PREDICTED BY IDOCK:   -0.30 KCAL/MOL
REMARK 927      BINDING AFFINITY PREDICTED BY RF-SCORE:    0.00 PKD
ROOT
HETATM    1 CL   UNL     1      -9.106  10.107  67.810  1.00  0.00    -0.132 Cl 
HETATM    2  C   UNL     1      -9.010   9.314  66.216  1.00  0.00    -0.159 C  
HETATM    3  C   UNL     1      -8.889  10.335  65.091  1.00  0.00    -0.184 C  
ENDROOT
BRANCH   3   4
HETATM    4  N   UNL     1      -9.990  11.288  65.056  1.00  0.00    -0.258 N  
HETATM    5  H   UNL     1     -10.569  11.426  65.884  1.00  0.00     0.000 HD 
BRANCH   4   6
HETATM    6  C   UNL     1     -10.255  12.005  63.906  1.00  0.00    -0.398 C  
HETATM    7  O   UNL     1      -9.730  11.669  62.844  1.00  0.00    -0.382 OA 
BRANCH   6   8
HETATM    8  N   UNL     1     -11.103  13.101  64.052  1.00  0.00    -0.387 N  
BRANCH   8   9
HETATM    9  C   UNL     1     -10.935  14.207  65.005  1.00  0.00    -0.384 C  
HETATM   10 CL   UNL     1     -11.907  12.910  67.221  1.00  0.00    -0.425 Cl 
HETATM   11  C   UNL     1     -12.035  14.261  66.063  1.00  0.00    -0.400 C  
ENDBRANCH   8   9
BRANCH   8  12
HETATM   12  N   UNL     1     -12.223  13.102  63.196  1.00  0.00    -0.893 NA 
HETATM   13  H   UNL     1     -11.926  13.154  62.221  1.00  0.00     0.000 HD 
HETATM   14  H   UNL     1     -13.747  12.151  62.786  1.00  0.00     0.000 HD 
HETATM   15  O   UNL     1     -12.993  12.150  63.362  1.00  0.00    -0.776 OA 
ENDBRANCH   8  12
ENDBRANCH   6   8
ENDBRANCH   4   6
ENDBRANCH   3   4
TORSDOF 5
ENDMDL
MODEL       57
REMARK 921   NORMALIZED FREE ENERGY PREDICTED BY IDOCK:   -3.86 KCAL/MOL
REMARK 922        TOTAL FREE ENERGY PREDICTED BY IDOCK:   -5.07 KCAL/MOL
REMARK 923 INTER-LIGAND FREE ENERGY PREDICTED BY IDOCK:   -4.50 KCAL/MOL
REMARK 924 INTRA-LIGAND FREE ENERGY PREDICTED BY IDOCK:   -0.57 KCAL/MOL
REMARK 927      BINDING AFFINITY PREDICTED BY RF-SCORE:    0.00 PKD
ROOT
HETATM    1 CL   UNL     1     -10.218  10.536  66.821  1.00  0.00    -0.276 Cl 
HETATM    2  C   UNL     1     -11.473  11.736  67.225  1.00  0.00    -0.303 C  
HETATM    3  C   UNL     1     -11.720  11.804  68.728  1.00  0.00    -0.329 C  
ENDROOT
BRANCH   3   4
HETATM    4  N   UNL     1     -12.114  10.525  69.305  1.00  0.00    -0.544 N  
HETATM    5  H   UNL     1     -12.922  10.027  68.933  1.00  0.00     0.000 HD 
BRANCH   4   6
HETATM    6  C   UNL     1     -11.398   9.985  70.354  1.00  0.00    -0.320 C  
HETATM    7  O   UNL     1     -10.167   9.964  70.306  1.00  0.00    -0.267 OA 
BRANCH   6   8
HETATM    8  N   UNL     1     -12.152   9.467  71.405  1.00  0.00    -0.339 N  
BRANCH   8   9
HETATM    9  C   UNL     1     -11.819   8.284  72.212  1.00  0.00    -0.388 C  
HETATM   10 CL   UNL     1     -11.697   6.476  70.150  1.00  0.00    -0.473 Cl 
HETATM   11  C   UNL     1     -12.448   6.997  71.682  1.00  0.00    -0.374 C  
ENDBRANCH   8   9
BRANCH   8  12
HETATM   12  N   UNL     1     -13.348  10.163  71.677  1.00  0.00    -0.382 NA 
HETATM   13  H   UNL     1     -13.909   9.653  72.360  1.00  0.00     0.000 HD 
HETATM   14  H   UNL     1     -13.990  11.802  72.223  1.00  0.00     0.000 HD 
HETATM   15  O   UNL     1     -13.184  11.333  72.040  1.00  0.00    -0.506 OA 
ENDBRANCH   8  12
ENDBRANCH   6   8
ENDBRANCH   4   6
ENDBRANCH   3   4
TORSDOF 5
ENDMDL
MODEL       58
REMARK 921   NORMALIZED FREE ENERGY PREDICTED BY IDOCK:   -3.86 KCAL/MOL
REMARK 922        TOTAL FREE ENERGY PREDICTED BY IDOCK:   -5.07 KCAL/MOL
REMARK 923 INTER-LIGAND FREE ENERGY PREDICTED BY IDOCK:   -4.62 KCAL/MOL
REMARK 924 INTRA-LIGAND FREE ENERGY PREDICTED BY IDOCK:   -0.44 KCAL/MOL
REMARK 927      BINDING AFFINITY PREDICTED BY RF-SCORE:    0.00 PKD
ROOT
HETATM    1 CL   UNL     1      -9.548  16.291  66.383  1.00  0.00    -0.292 Cl 
HETATM    2  C   UNL     1     -10.586  16.747  67.759  1.00  0.00    -0.341 C  
HETATM    3  C   UNL     1     -11.327  15.541  68.324  1.00  0.00    -0.357 C  
ENDROOT
BRANCH   3   4
HETATM    4  N   UNL     1     -12.157  14.859  67.339  1.00  0.00    -0.441 N  
HETATM    5  H   UNL     1     -12.761  15.402  66.722  1.00  0.00     0.000 HD 
BRANCH   4   6
HETATM    6  C   UNL     1     -12.128  13.483  67.236  1.00  0.00    -0.323 C  
HETATM    7  O   UNL     1     -12.033  12.798  68.255  1.00  0.00    -0.319 OA 
BRANCH   6   8
HETATM    8  N   UNL     1     -12.186  12.966  65.944  1.00  0.00    -0.443 N  
BRANCH   8   9
HETATM    9  C   UNL     1     -11.377  11.858  65.415  1.00  0.00    -0.277 C  
HETATM   10 CL   UNL     1      -9.036  12.489  66.704  1.00  0.00    -0.204 Cl 
HETATM   11  C   UNL     1      -9.918  12.241  65.173  1.00  0.00    -0.215 C  
ENDBRANCH   8   9
BRANCH   8  12
HETATM   12  N   UNL     1     -13.109  13.604  65.090  1.00  0.00    -0.734 NA 
HETATM   13  H   UNL     1     -13.862  14.027  65.632  1.00  0.00     0.000 HD 
HETATM   14  H   UNL     1     -13.228  14.866  63.752  1.00  0.00     0.000 HD 
HETATM   15  O   UNL     1     -12.606  14.436  64.327  1.00  0.00    -0.676 OA 
ENDBRANCH   8  12
ENDBRANCH   6   8
ENDBRANCH   4   6
ENDBRANCH   3   4
TORSDOF 5
ENDMDL
MODEL       59
REMARK 921   NORMALIZED FREE ENERGY PREDICTED BY IDOCK:   -3.85 KCAL/MOL
REMARK 922        TOTAL FREE ENERGY PREDICTED BY IDOCK:   -5.06 KCAL/MOL
REMARK 923 INTER-LIGAND FREE ENERGY PREDICTED BY IDOCK:   -4.58 KCAL/MOL
REMARK 924 INTRA-LIGAND FREE ENERGY PREDICTED BY IDOCK:   -0.48 KCAL/MOL
REMARK 927      BINDING AFFINITY PREDICTED BY RF-SCORE:    0.00 PKD
ROOT
HETATM    1 CL   UNL     1      -8.261  10.364  64.352  1.00  0.00    -0.154 Cl 
HETATM    2  C   UNL     1      -9.931  10.722  63.841  1.00  0.00    -0.343 C  
HETATM    3  C   UNL     1     -10.122  12.207  63.556  1.00  0.00    -0.383 C  
ENDROOT
BRANCH   3   4
HETATM    4  N   UNL     1      -9.807  13.058  64.697  1.00  0.00    -0.583 N  
HETATM    5  H   UNL     1      -8.913  12.953  65.176  1.00  0.00     0.000 HD 
BRANCH   4   6
HETATM    6  C   UNL     1     -10.713  14.004  65.132  1.00  0.00    -0.382 C  
HETATM    7  O   UNL     1     -10.747  15.110  64.591  1.00  0.00    -0.366 OA 
BRANCH   6   8
HETATM    8  N   UNL     1     -11.524  13.626  66.200  1.00  0.00    -0.317 N  
BRANCH   8   9
HETATM    9  C   UNL     1     -11.086  13.400  67.585  1.00  0.00    -0.265 C  
HETATM   10 CL   UNL     1     -11.122  10.655  67.519  1.00  0.00    -0.373 Cl 
HETATM   11  C   UNL     1     -11.733  12.174  68.227  1.00  0.00    -0.342 C  
ENDBRANCH   8   9
BRANCH   8  12
HETATM   12  N   UNL     1     -12.883  13.440  65.876  1.00  0.00    -0.317 NA 
HETATM   13  H   UNL     1     -13.380  14.331  65.898  1.00  0.00     0.000 HD 
HETATM   14  H   UNL     1     -13.992  12.739  64.581  1.00  0.00     0.000 HD 
HETATM   15  O   UNL     1     -13.076  12.865  64.799  1.00  0.00    -0.754 OA 
ENDBRANCH   8  12
ENDBRANCH   6   8
ENDBRANCH   4   6
ENDBRANCH   3   4
TORSDOF 5
ENDMDL
MODEL       60
REMARK 921   NORMALIZED FREE ENERGY PREDICTED BY IDOCK:   -3.82 KCAL/MOL
REMARK 922        TOTAL FREE ENERGY PREDICTED BY IDOCK:   -5.02 KCAL/MOL
REMARK 923 INTER-LIGAND FREE ENERGY PREDICTED BY IDOCK:   -4.61 KCAL/MOL
REMARK 924 INTRA-LIGAND FREE ENERGY PREDICTED BY IDOCK:   -0.41 KCAL/MOL
REMARK 927      BINDING AFFINITY PREDICTED BY RF-SCORE:    0.00 PKD
ROOT
HETATM    1 CL   UNL     1     -13.429  12.871  72.111  1.00  0.00    -0.642 Cl 
HETATM    2  C   UNL     1     -12.604  14.300  71.435  1.00  0.00    -0.360 C  
HETATM    3  C   UNL     1     -12.330  14.134  69.945  1.00  0.00    -0.327 C  
ENDROOT
BRANCH   3   4
HETATM    4  N   UNL     1     -11.527  12.959  69.633  1.00  0.00    -0.462 N  
HETATM    5  H   UNL     1     -10.762  12.689  70.251  1.00  0.00     0.000 HD 
BRANCH   4   6
HETATM    6  C   UNL     1     -11.797  12.210  68.506  1.00  0.00    -0.310 C  
HETATM    7  O   UNL     1     -12.309  11.096  68.622  1.00  0.00    -0.549 OA 
BRANCH   6   8
HETATM    8  N   UNL     1     -11.431  12.784  67.290  1.00  0.00    -0.317 N  
BRANCH   8   9
HETATM    9  C   UNL     1     -10.063  13.104  66.857  1.00  0.00    -0.245 C  
HETATM   10 CL   UNL     1      -9.392  10.605  65.940  1.00  0.00    -0.209 Cl 
HETATM   11  C   UNL     1      -9.082  11.953  67.066  1.00  0.00    -0.191 C  
ENDBRANCH   8   9
BRANCH   8  12
HETATM   12  N   UNL     1     -12.506  13.084  66.429  1.00  0.00    -0.366 NA 
HETATM   13  H   UNL     1     -12.506  14.077  66.192  1.00  0.00     0.000 HD 
HETATM   14  H   UNL     1     -13.270  12.598  64.824  1.00  0.00     0.000 HD 
HETATM   15  O   UNL     1     -12.545  12.396  65.403  1.00  0.00    -0.637 OA 
ENDBRANCH   8  12
ENDBRANCH   6   8
ENDBRANCH   4   6
ENDBRANCH   3   4
TORSDOF 5
ENDMDL
MODEL       61
REMARK 921   NORMALIZED FREE ENERGY PREDICTED BY IDOCK:   -3.81 KCAL/MOL
REMARK 922        TOTAL FREE ENERGY PREDICTED BY IDOCK:   -5.01 KCAL/MOL
REMARK 923 INTER-LIGAND FREE ENERGY PREDICTED BY IDOCK:   -4.61 KCAL/MOL
REMARK 924 INTRA-LIGAND FREE ENERGY PREDICTED BY IDOCK:   -0.40 KCAL/MOL
REMARK 927      BINDING AFFINITY PREDICTED BY RF-SCORE:    0.00 PKD
ROOT
HETATM    1 CL   UNL     1     -11.328  16.116  70.593  1.00  0.00    -0.410 Cl 
HETATM    2  C   UNL     1     -12.532  14.827  70.855  1.00  0.00    -0.328 C  
HETATM    3  C   UNL     1     -12.268  13.623  69.959  1.00  0.00    -0.329 C  
ENDROOT
BRANCH   3   4
HETATM    4  N   UNL     1     -12.261  13.952  68.539  1.00  0.00    -0.493 N  
HETATM    5  H   UNL     1     -12.528  14.888  68.234  1.00  0.00     0.000 HD 
BRANCH   4   6
HETATM    6  C   UNL     1     -11.895  13.003  67.606  1.00  0.00    -0.351 C  
HETATM    7  O   UNL     1     -12.055  11.808  67.857  1.00  0.00    -0.592 OA 
BRANCH   6   8
HETATM    8  N   UNL     1     -11.333  13.490  66.428  1.00  0.00    -0.308 N  
BRANCH   8   9
HETATM    9  C   UNL     1     -10.532  12.720  65.465  1.00  0.00    -0.287 C  
HETATM   10 CL   UNL     1     -12.271  12.892  63.347  1.00  0.00    -0.613 Cl 
HETATM   11  C   UNL     1     -11.381  11.878  64.515  1.00  0.00    -0.316 C  
ENDBRANCH   8   9
BRANCH   8  12
HETATM   12  N   UNL     1     -11.565  14.859  66.182  1.00  0.00    -0.284 NA 
HETATM   13  H   UNL     1     -12.459  15.146  66.580  1.00  0.00     0.000 HD 
HETATM   14  H   UNL     1     -10.816  16.528  66.403  1.00  0.00     0.000 HD 
HETATM   15  O   UNL     1     -10.660  15.607  66.569  1.00  0.00    -0.301 OA 
ENDBRANCH   8  12
ENDBRANCH   6   8
ENDBRANCH   4   6
ENDBRANCH   3   4
TORSDOF 5
ENDMDL
MODEL       62
REMARK 921   NORMALIZED FREE ENERGY PREDICTED BY IDOCK:   -3.80 KCAL/MOL
REMARK 922        TOTAL FREE ENERGY PREDICTED BY IDOCK:   -4.99 KCAL/MOL
REMARK 923 INTER-LIGAND FREE ENERGY PREDICTED BY IDOCK:   -4.77 KCAL/MOL
REMARK 924 INTRA-LIGAND FREE ENERGY PREDICTED BY IDOCK:   -0.22 KCAL/MOL
REMARK 927      BINDING AFFINITY PREDICTED BY RF-SCORE:    0.00 PKD
ROOT
HETATM    1 CL   UNL     1     -13.464  13.160  72.069  1.00  0.00    -0.590 Cl 
HETATM    2  C   UNL     1     -12.572  14.701  71.985  1.00  0.00    -0.334 C  
HETATM    3  C   UNL     1     -12.863  15.446  70.688  1.00  0.00    -0.430 C  
ENDROOT
BRANCH   3   4
HETATM    4  N   UNL     1     -12.542  14.673  69.495  1.00  0.00    -0.575 N  
HETATM    5  H   UNL     1     -12.902  13.724  69.393  1.00  0.00     0.000 HD 
BRANCH   4   6
HETATM    6  C   UNL     1     -11.754  15.219  68.502  1.00  0.00    -0.332 C  
HETATM    7  O   UNL     1     -11.223  16.317  68.680  1.00  0.00    -0.341 OA 
BRANCH   6   8
HETATM    8  N   UNL     1     -11.640  14.471  67.333  1.00  0.00    -0.370 N  
BRANCH   8   9
HETATM    9  C   UNL     1     -10.389  14.133  66.637  1.00  0.00    -0.277 C  
HETATM   10 CL   UNL     1     -10.792  11.421  66.492  1.00  0.00    -0.329 Cl 
HETATM   11  C   UNL     1      -9.805  12.790  67.069  1.00  0.00    -0.231 C  
ENDBRANCH   8   9
BRANCH   8  12
HETATM   12  N   UNL     1     -12.863  14.028  66.790  1.00  0.00    -0.283 NA 
HETATM   13  H   UNL     1     -13.641  14.549  67.194  1.00  0.00     0.000 HD 
HETATM   14  H   UNL     1     -13.739  13.765  65.190  1.00  0.00     0.000 HD 
HETATM   15  O   UNL     1     -12.915  14.064  65.556  1.00  0.00    -0.681 OA 
ENDBRANCH   8  12
ENDBRANCH   6   8
ENDBRANCH   4   6
ENDBRANCH   3   4
TORSDOF 5
ENDMDL
MODEL       63
REMARK 921   NORMALIZED FREE ENERGY PREDICTED BY IDOCK:   -3.79 KCAL/MOL
REMARK 922        TOTAL FREE ENERGY PREDICTED BY IDOCK:   -4.98 KCAL/MOL
REMARK 923 INTER-LIGAND FREE ENERGY PREDICTED BY IDOCK:   -4.79 KCAL/MOL
REMARK 924 INTRA-LIGAND FREE ENERGY PREDICTED BY IDOCK:   -0.19 KCAL/MOL
REMARK 927      BINDING AFFINITY PREDICTED BY RF-SCORE:    0.00 PKD
ROOT
HETATM    1 CL   UNL     1     -12.150  16.125  73.123  1.00  0.00    -0.607 Cl 
HETATM    2  C   UNL     1     -13.877  15.802  72.818  1.00  0.00    -0.523 C  
HETATM    3  C   UNL     1     -14.067  14.619  71.875  1.00  0.00    -0.516 C  
ENDROOT
BRANCH   3   4
HETATM    4  N   UNL     1     -13.406  14.796  70.588  1.00  0.00    -0.593 N  
HETATM    5  H   UNL     1     -13.701  15.548  69.966  1.00  0.00     0.000 HD 
BRANCH   4   6
HETATM    6  C   UNL     1     -12.384  13.950  70.208  1.00  0.00    -0.345 C  
HETATM    7  O   UNL     1     -12.319  12.817  70.689  1.00  0.00    -0.360 OA 
BRANCH   6   8
HETATM    8  N   UNL     1     -11.465  14.472  69.301  1.00  0.00    -0.271 N  
BRANCH   8   9
HETATM    9  C   UNL     1     -11.567  15.765  68.609  1.00  0.00    -0.386 C  
HETATM   10 CL   UNL     1      -8.953  16.541  68.927  1.00  0.00    -0.249 Cl 
HETATM   11  C   UNL     1     -10.685  16.849  69.225  1.00  0.00    -0.288 C  
ENDBRANCH   8   9
BRANCH   8  12
HETATM   12  N   UNL     1     -10.354  13.645  69.040  1.00  0.00    -0.421 NA 
HETATM   13  H   UNL     1     -10.321  12.872  69.705  1.00  0.00     0.000 HD 
HETATM   14  H   UNL     1      -9.548  12.663  67.705  1.00  0.00     0.000 HD 
HETATM   15  O   UNL     1     -10.297  13.219  67.881  1.00  0.00    -0.228 OA 
ENDBRANCH   8  12
ENDBRANCH   6   8
ENDBRANCH   4   6
ENDBRANCH   3   4
TORSDOF 5
ENDMDL
MODEL       64
REMARK 921   NORMALIZED FREE ENERGY PREDICTED BY IDOCK:   -3.78 KCAL/MOL
REMARK 922        TOTAL FREE ENERGY PREDICTED BY IDOCK:   -4.96 KCAL/MOL
REMARK 923 INTER-LIGAND FREE ENERGY PREDICTED BY IDOCK:   -4.54 KCAL/MOL
REMARK 924 INTRA-LIGAND FREE ENERGY PREDICTED BY IDOCK:   -0.42 KCAL/MOL
REMARK 927      BINDING AFFINITY PREDICTED BY RF-SCORE:    0.00 PKD
ROOT
HETATM    1 CL   UNL     1      -7.412  13.243  68.146  1.00  0.00    -0.115 Cl 
HETATM    2  C   UNL     1      -8.843  13.976  67.377  1.00  0.00    -0.206 C  
HETATM    3  C   UNL     1      -9.956  14.225  68.388  1.00  0.00    -0.240 C  
ENDROOT
BRANCH   3   4
HETATM    4  N   UNL     1     -10.385  13.018  69.082  1.00  0.00    -0.430 N  
HETATM    5  H   UNL     1      -9.717  12.267  69.254  1.00  0.00     0.000 HD 
BRANCH   4   6
HETATM    6  C   UNL     1     -11.691  12.886  69.507  1.00  0.00    -0.323 C  
HETATM    7  O   UNL     1     -12.405  13.885  69.604  1.00  0.00    -0.328 OA 
BRANCH   6   8
HETATM    8  N   UNL     1     -12.102  11.593  69.826  1.00  0.00    -0.303 N  
BRANCH   8   9
HETATM    9  C   UNL     1     -12.444  11.097  71.167  1.00  0.00    -0.393 C  
HETATM   10 CL   UNL     1     -10.444   9.228  71.370  1.00  0.00    -0.411 Cl 
HETATM   11  C   UNL     1     -12.188   9.601  71.338  1.00  0.00    -0.385 C  
ENDBRANCH   8   9
BRANCH   8  12
HETATM   12  N   UNL     1     -12.167  10.704  68.733  1.00  0.00    -0.808 NA 
HETATM   13  H   UNL     1     -13.009  10.132  68.790  1.00  0.00     0.000 HD 
HETATM   14  H   UNL     1     -12.134  10.652  66.892  1.00  0.00     0.000 HD 
HETATM   15  O   UNL     1     -12.090  11.250  67.627  1.00  0.00    -0.600 OA 
ENDBRANCH   8  12
ENDBRANCH   6   8
ENDBRANCH   4   6
ENDBRANCH   3   4
TORSDOF 5
ENDMDL
MODEL       65
REMARK 921   NORMALIZED FREE ENERGY PREDICTED BY IDOCK:   -3.78 KCAL/MOL
REMARK 922        TOTAL FREE ENERGY PREDICTED BY IDOCK:   -4.96 KCAL/MOL
REMARK 923 INTER-LIGAND FREE ENERGY PREDICTED BY IDOCK:   -4.60 KCAL/MOL
REMARK 924 INTRA-LIGAND FREE ENERGY PREDICTED BY IDOCK:   -0.36 KCAL/MOL
REMARK 927      BINDING AFFINITY PREDICTED BY RF-SCORE:    0.00 PKD
ROOT
HETATM    1 CL   UNL     1     -11.068  15.661  70.505  1.00  0.00    -0.347 Cl 
HETATM    2  C   UNL     1     -10.450  14.942  68.995  1.00  0.00    -0.247 C  
HETATM    3  C   UNL     1     -11.188  13.656  68.645  1.00  0.00    -0.277 C  
ENDROOT
BRANCH   3   4
HETATM    4  N   UNL     1     -11.112  12.644  69.691  1.00  0.00    -0.467 N  
HETATM    5  H   UNL     1     -10.480  12.777  70.481  1.00  0.00     0.000 HD 
BRANCH   4   6
HETATM    6  C   UNL     1     -11.891  11.507  69.619  1.00  0.00    -0.354 C  
HETATM    7  O   UNL     1     -12.371  11.165  68.537  1.00  0.00    -0.561 OA 
BRANCH   6   8
HETATM    8  N   UNL     1     -12.097  10.831  70.819  1.00  0.00    -0.344 N  
BRANCH   8   9
HETATM    9  C   UNL     1     -11.427   9.593  71.245  1.00  0.00    -0.392 C  
HETATM   10 CL   UNL     1     -13.688   8.086  71.632  1.00  0.00    -0.403 Cl 
HETATM   11  C   UNL     1     -12.208   8.820  72.305  1.00  0.00    -0.358 C  
ENDBRANCH   8   9
BRANCH   8  12
HETATM   12  N   UNL     1     -13.058  11.413  71.671  1.00  0.00    -0.450 NA 
HETATM   13  H   UNL     1     -12.944  11.068  72.624  1.00  0.00     0.000 HD 
HETATM   14  H   UNL     1     -13.716  13.041  72.231  1.00  0.00     0.000 HD 
HETATM   15  O   UNL     1     -13.068  12.649  71.657  1.00  0.00    -0.402 OA 
ENDBRANCH   8  12
ENDBRANCH   6   8
ENDBRANCH   4   6
ENDBRANCH   3   4
TORSDOF 5
ENDMDL
MODEL       66
REMARK 921   NORMALIZED FREE ENERGY PREDICTED BY IDOCK:   -3.76 KCAL/MOL
REMARK 922        TOTAL FREE ENERGY PREDICTED BY IDOCK:   -4.95 KCAL/MOL
REMARK 923 INTER-LIGAND FREE ENERGY PREDICTED BY IDOCK:   -4.45 KCAL/MOL
REMARK 924 INTRA-LIGAND FREE ENERGY PREDICTED BY IDOCK:   -0.49 KCAL/MOL
REMARK 927      BINDING AFFINITY PREDICTED BY RF-SCORE:    0.00 PKD
ROOT
HETATM    1 CL   UNL     1     -12.549   7.194  71.066  1.00  0.00    -0.378 Cl 
HETATM    2  C   UNL     1     -12.386   8.666  72.059  1.00  0.00    -0.371 C  
HETATM    3  C   UNL     1     -13.190   9.824  71.479  1.00  0.00    -0.404 C  
ENDROOT
BRANCH   3   4
HETATM    4  N   UNL     1     -12.816  10.158  70.111  1.00  0.00    -0.565 N  
HETATM    5  H   UNL     1     -13.111   9.556  69.343  1.00  0.00     0.000 HD 
BRANCH   4   6
HETATM    6  C   UNL     1     -12.063  11.285  69.850  1.00  0.00    -0.341 C  
HETATM    7  O   UNL     1     -12.116  12.245  70.620  1.00  0.00    -0.363 OA 
BRANCH   6   8
HETATM    8  N   UNL     1     -11.301  11.254  68.685  1.00  0.00    -0.245 N  
BRANCH   8   9
HETATM    9  C   UNL     1     -10.337  12.276  68.250  1.00  0.00    -0.221 C  
HETATM   10 CL   UNL     1     -12.114  13.890  66.918  1.00  0.00    -0.470 Cl 
HETATM   11  C   UNL     1     -10.658  12.860  66.876  1.00  0.00    -0.253 C  
ENDBRANCH   8   9
BRANCH   8  12
HETATM   12  N   UNL     1     -11.515  10.127  67.865  1.00  0.00    -0.636 NA 
HETATM   13  H   UNL     1     -11.482  10.391  66.880  1.00  0.00     0.000 HD 
HETATM   14  H   UNL     1     -10.891   8.425  67.533  1.00  0.00     0.000 HD 
HETATM   15  O   UNL     1     -10.747   9.184  68.085  1.00  0.00    -0.206 OA 
ENDBRANCH   8  12
ENDBRANCH   6   8
ENDBRANCH   4   6
ENDBRANCH   3   4
TORSDOF 5
ENDMDL
MODEL       67
REMARK 921   NORMALIZED FREE ENERGY PREDICTED BY IDOCK:   -3.74 KCAL/MOL
REMARK 922        TOTAL FREE ENERGY PREDICTED BY IDOCK:   -4.92 KCAL/MOL
REMARK 923 INTER-LIGAND FREE ENERGY PREDICTED BY IDOCK:   -4.53 KCAL/MOL
REMARK 924 INTRA-LIGAND FREE ENERGY PREDICTED BY IDOCK:   -0.39 KCAL/MOL
REMARK 927      BINDING AFFINITY PREDICTED BY RF-SCORE:    0.00 PKD
ROOT
HETATM    1 CL   UNL     1     -12.123   7.052  70.932  1.00  0.00    -0.407 Cl 
HETATM    2  C   UNL     1     -12.130   8.165  72.324  1.00  0.00    -0.364 C  
HETATM    3  C   UNL     1     -13.265   9.178  72.226  1.00  0.00    -0.461 C  
ENDROOT
BRANCH   3   4
HETATM    4  N   UNL     1     -13.221   9.977  71.009  1.00  0.00    -0.490 N  
HETATM    5  H   UNL     1     -13.449   9.549  70.112  1.00  0.00     0.000 HD 
BRANCH   4   6
HETATM    6  C   UNL     1     -12.871  11.311  71.064  1.00  0.00    -0.300 C  
HETATM    7  O   UNL     1     -13.318  12.022  71.965  1.00  0.00    -0.495 OA 
BRANCH   6   8
HETATM    8  N   UNL     1     -12.034  11.766  70.047  1.00  0.00    -0.341 N  
BRANCH   8   9
HETATM    9  C   UNL     1     -11.480  10.956  68.952  1.00  0.00    -0.300 C  
HETATM   10 CL   UNL     1      -9.568   9.643  70.422  1.00  0.00    -0.313 Cl 
HETATM   11  C   UNL     1      -9.973  10.735  69.071  1.00  0.00    -0.199 C  
ENDBRANCH   8   9
BRANCH   8  12
HETATM   12  N   UNL     1     -11.700  13.133  70.120  1.00  0.00    -0.527 NA 
HETATM   13  H   UNL     1     -10.699  13.263  69.970  1.00  0.00     0.000 HD 
HETATM   14  H   UNL     1     -12.124  14.779  69.408  1.00  0.00     0.000 HD 
HETATM   15  O   UNL     1     -12.349  13.858  69.358  1.00  0.00    -0.329 OA 
ENDBRANCH   8  12
ENDBRANCH   6   8
ENDBRANCH   4   6
ENDBRANCH   3   4
TORSDOF 5
ENDMDL
MODEL       68
REMARK 921   NORMALIZED FREE ENERGY PREDICTED BY IDOCK:   -3.71 KCAL/MOL
REMARK 922        TOTAL FREE ENERGY PREDICTED BY IDOCK:   -4.88 KCAL/MOL
REMARK 923 INTER-LIGAND FREE ENERGY PREDICTED BY IDOCK:   -4.48 KCAL/MOL
REMARK 924 INTRA-LIGAND FREE ENERGY PREDICTED BY IDOCK:   -0.40 KCAL/MOL
REMARK 927      BINDING AFFINITY PREDICTED BY RF-SCORE:    0.00 PKD
ROOT
HETATM    1 CL   UNL     1     -11.656   6.563  71.470  1.00  0.00    -0.350 Cl 
HETATM    2  C   UNL     1     -11.757   7.968  72.562  1.00  0.00    -0.387 C  
HETATM    3  C   UNL     1     -12.900   8.898  72.173  1.00  0.00    -0.409 C  
ENDROOT
BRANCH   3   4
HETATM    4  N   UNL     1     -12.800   9.394  70.806  1.00  0.00    -0.523 N  
HETATM    5  H   UNL     1     -13.093   8.803  70.029  1.00  0.00     0.000 HD 
BRANCH   4   6
HETATM    6  C   UNL     1     -12.310  10.660  70.559  1.00  0.00    -0.359 C  
HETATM    7  O   UNL     1     -12.601  11.586  71.318  1.00  0.00    -0.383 OA 
BRANCH   6   8
HETATM    8  N   UNL     1     -11.520  10.798  69.419  1.00  0.00    -0.271 N  
BRANCH   8   9
HETATM    9  C   UNL     1     -10.054  10.890  69.385  1.00  0.00    -0.088 C  
HETATM   10 CL   UNL     1      -9.545   8.225  68.963  1.00  0.00    -0.155 Cl 
HETATM   11  C   UNL     1      -9.360   9.671  69.991  1.00  0.00    -0.241 C  
ENDBRANCH   8   9
BRANCH   8  12
HETATM   12  N   UNL     1     -12.236  10.866  68.206  1.00  0.00    -0.735 NA 
HETATM   13  H   UNL     1     -13.181  11.216  68.370  1.00  0.00     0.000 HD 
HETATM   14  H   UNL     1     -12.161  11.571  66.506  1.00  0.00     0.000 HD 
HETATM   15  O   UNL     1     -11.679  11.525  67.323  1.00  0.00    -0.576 OA 
ENDBRANCH   8  12
ENDBRANCH   6   8
ENDBRANCH   4   6
ENDBRANCH   3   4
TORSDOF 5
ENDMDL
MODEL       69
REMARK 921   NORMALIZED FREE ENERGY PREDICTED BY IDOCK:   -3.70 KCAL/MOL
REMARK 922        TOTAL FREE ENERGY PREDICTED BY IDOCK:   -4.87 KCAL/MOL
REMARK 923 INTER-LIGAND FREE ENERGY PREDICTED BY IDOCK:   -4.30 KCAL/MOL
REMARK 924 INTRA-LIGAND FREE ENERGY PREDICTED BY IDOCK:   -0.56 KCAL/MOL
REMARK 927      BINDING AFFINITY PREDICTED BY RF-SCORE:    0.00 PKD
ROOT
HETATM    1 CL   UNL     1     -12.080  13.006  63.211  1.00  0.00    -0.612 Cl 
HETATM    2  C   UNL     1     -10.635  12.889  64.248  1.00  0.00    -0.408 C  
HETATM    3  C   UNL     1     -10.936  13.324  65.678  1.00  0.00    -0.277 C  
ENDROOT
BRANCH   3   4
HETATM    4  N   UNL     1     -11.450  14.684  65.771  1.00  0.00    -0.344 N  
HETATM    5  H   UNL     1     -12.442  14.841  65.950  1.00  0.00     0.000 HD 
BRANCH   4   6
HETATM    6  C   UNL     1     -10.602  15.762  65.617  1.00  0.00    -0.377 C  
HETATM    7  O   UNL     1     -10.713  16.489  64.629  1.00  0.00    -0.713 OA 
BRANCH   6   8
HETATM    8  N   UNL     1      -9.640  15.928  66.611  1.00  0.00    -0.232 N  
BRANCH   8   9
HETATM    9  C   UNL     1      -8.187  16.023  66.406  1.00  0.00    -0.274 C  
HETATM   10 CL   UNL     1      -7.829  18.482  67.573  1.00  0.00    -0.236 Cl 
HETATM   11  C   UNL     1      -7.711  17.447  66.125  1.00  0.00    -0.276 C  
ENDBRANCH   8   9
BRANCH   8  12
HETATM   12  N   UNL     1     -10.149  15.992  67.924  1.00  0.00    -0.238 NA 
HETATM   13  H   UNL     1      -9.457  16.397  68.555  1.00  0.00     0.000 HD 
HETATM   14  H   UNL     1     -11.569  16.631  68.909  1.00  0.00     0.000 HD 
HETATM   15  O   UNL     1     -11.226  16.589  68.025  1.00  0.00    -0.314 OA 
ENDBRANCH   8  12
ENDBRANCH   6   8
ENDBRANCH   4   6
ENDBRANCH   3   4
TORSDOF 5
ENDMDL
MODEL       70
REMARK 921   NORMALIZED FREE ENERGY PREDICTED BY IDOCK:   -3.70 KCAL/MOL
REMARK 922        TOTAL FREE ENERGY PREDICTED BY IDOCK:   -4.86 KCAL/MOL
REMARK 923 INTER-LIGAND FREE ENERGY PREDICTED BY IDOCK:   -4.47 KCAL/MOL
REMARK 924 INTRA-LIGAND FREE ENERGY PREDICTED BY IDOCK:   -0.39 KCAL/MOL
REMARK 927      BINDING AFFINITY PREDICTED BY RF-SCORE:    0.00 PKD
ROOT
HETATM    1 CL   UNL     1     -10.294  19.819  66.408  1.00  0.00    -0.580 Cl 
HETATM    2  C   UNL     1     -10.133  19.404  68.135  1.00  0.00    -0.425 C  
HETATM    3  C   UNL     1      -9.811  17.927  68.327  1.00  0.00    -0.348 C  
ENDROOT
BRANCH   3   4
HETATM    4  N   UNL     1     -10.806  17.039  67.741  1.00  0.00    -0.314 N  
HETATM    5  H   UNL     1     -11.769  17.065  68.076  1.00  0.00     0.000 HD 
BRANCH   4   6
HETATM    6  C   UNL     1     -10.452  16.164  66.735  1.00  0.00    -0.294 C  
HETATM    7  O   UNL     1      -9.984  16.601  65.683  1.00  0.00    -0.519 OA 
BRANCH   6   8
HETATM    8  N   UNL     1     -10.685  14.814  66.990  1.00  0.00    -0.294 N  
BRANCH   8   9
HETATM    9  C   UNL     1     -11.950  14.096  66.777  1.00  0.00    -0.447 C  
HETATM   10 CL   UNL     1     -11.356  13.067  64.301  1.00  0.00    -0.393 Cl 
HETATM   11  C   UNL     1     -12.402  14.094  65.318  1.00  0.00    -0.460 C  
ENDBRANCH   8   9
BRANCH   8  12
HETATM   12  N   UNL     1      -9.581  14.110  67.515  1.00  0.00    -0.219 NA 
HETATM   13  H   UNL     1      -9.897  13.372  68.143  1.00  0.00     0.000 HD 
HETATM   14  H   UNL     1      -8.073  13.179  67.014  1.00  0.00     0.000 HD 
HETATM   15  O   UNL     1      -8.816  13.652  66.660  1.00  0.00    -0.181 OA 
ENDBRANCH   8  12
ENDBRANCH   6   8
ENDBRANCH   4   6
ENDBRANCH   3   4
TORSDOF 5
ENDMDL
MODEL       71
REMARK 921   NORMALIZED FREE ENERGY PREDICTED BY IDOCK:   -3.69 KCAL/MOL
REMARK 922        TOTAL FREE ENERGY PREDICTED BY IDOCK:   -4.85 KCAL/MOL
REMARK 923 INTER-LIGAND FREE ENERGY PREDICTED BY IDOCK:   -4.49 KCAL/MOL
REMARK 924 INTRA-LIGAND FREE ENERGY PREDICTED BY IDOCK:   -0.36 KCAL/MOL
REMARK 927      BINDING AFFINITY PREDICTED BY RF-SCORE:    0.00 PKD
ROOT
HETATM    1 CL   UNL     1     -12.202  14.075  70.662  1.00  0.00    -0.421 Cl 
HETATM    2  C   UNL     1     -11.747  13.300  69.122  1.00  0.00    -0.329 C  
HETATM    3  C   UNL     1     -11.957  11.791  69.172  1.00  0.00    -0.293 C  
ENDROOT
BRANCH   3   4
HETATM    4  N   UNL     1     -11.214  11.140  70.243  1.00  0.00    -0.479 N  
HETATM    5  H   UNL     1     -10.199  11.231  70.284  1.00  0.00     0.000 HD 
BRANCH   4   6
HETATM    6  C   UNL     1     -11.877  10.401  71.202  1.00  0.00    -0.337 C  
HETATM    7  O   UNL     1     -13.002  10.745  71.566  1.00  0.00    -0.407 OA 
BRANCH   6   8
HETATM    8  N   UNL     1     -11.185   9.306  71.714  1.00  0.00    -0.374 N  
BRANCH   8   9
HETATM    9  C   UNL     1     -11.780   8.136  72.377  1.00  0.00    -0.399 C  
HETATM   10 CL   UNL     1     -11.494   6.371  70.294  1.00  0.00    -0.460 Cl 
HETATM   11  C   UNL     1     -12.567   7.240  71.422  1.00  0.00    -0.388 C  
ENDBRANCH   8   9
BRANCH   8  12
HETATM   12  N   UNL     1      -9.783   9.373  71.578  1.00  0.00    -0.237 NA 
HETATM   13  H   UNL     1      -9.472  10.344  71.578  1.00  0.00     0.000 HD 
HETATM   14  H   UNL     1      -8.214   8.763  72.327  1.00  0.00     0.000 HD 
HETATM   15  O   UNL     1      -9.158   8.719  72.420  1.00  0.00    -0.366 OA 
ENDBRANCH   8  12
ENDBRANCH   6   8
ENDBRANCH   4   6
ENDBRANCH   3   4
TORSDOF 5
ENDMDL
MODEL       72
REMARK 921   NORMALIZED FREE ENERGY PREDICTED BY IDOCK:   -3.69 KCAL/MOL
REMARK 922        TOTAL FREE ENERGY PREDICTED BY IDOCK:   -4.85 KCAL/MOL
REMARK 923 INTER-LIGAND FREE ENERGY PREDICTED BY IDOCK:   -4.38 KCAL/MOL
REMARK 924 INTRA-LIGAND FREE ENERGY PREDICTED BY IDOCK:   -0.47 KCAL/MOL
REMARK 927      BINDING AFFINITY PREDICTED BY RF-SCORE:    0.00 PKD
ROOT
HETATM    1 CL   UNL     1     -10.834  14.017  68.302  1.00  0.00    -0.258 Cl 
HETATM    2  C   UNL     1     -11.973  14.275  66.954  1.00  0.00    -0.438 C  
HETATM    3  C   UNL     1     -11.266  14.215  65.605  1.00  0.00    -0.308 C  
ENDROOT
BRANCH   3   4
HETATM    4  N   UNL     1     -10.186  15.185  65.477  1.00  0.00    -0.351 N  
HETATM    5  H   UNL     1      -9.218  14.865  65.444  1.00  0.00     0.000 HD 
BRANCH   4   6
HETATM    6  C   UNL     1     -10.467  16.534  65.399  1.00  0.00    -0.269 C  
HETATM    7  O   UNL     1     -11.181  16.956  64.488  1.00  0.00    -1.057 OA 
BRANCH   6   8
HETATM    8  N   UNL     1      -9.880  17.337  66.374  1.00  0.00    -0.289 N  
BRANCH   8   9
HETATM    9  C   UNL     1      -8.457  17.697  66.461  1.00  0.00    -0.264 C  
HETATM   10 CL   UNL     1      -7.735  15.819  68.330  1.00  0.00    -0.129 Cl 
HETATM   11  C   UNL     1      -7.881  17.536  67.867  1.00  0.00    -0.218 C  
ENDBRANCH   8   9
BRANCH   8  12
HETATM   12  N   UNL     1     -10.766  17.816  67.360  1.00  0.00    -0.328 NA 
HETATM   13  H   UNL     1     -10.486  17.483  68.283  1.00  0.00     0.000 HD 
HETATM   14  H   UNL     1     -11.501  19.367  68.032  1.00  0.00     0.000 HD 
HETATM   15  O   UNL     1     -10.903  19.044  67.368  1.00  0.00    -0.473 OA 
ENDBRANCH   8  12
ENDBRANCH   6   8
ENDBRANCH   4   6
ENDBRANCH   3   4
TORSDOF 5
ENDMDL
MODEL       73
REMARK 921   NORMALIZED FREE ENERGY PREDICTED BY IDOCK:   -3.68 KCAL/MOL
REMARK 922        TOTAL FREE ENERGY PREDICTED BY IDOCK:   -4.84 KCAL/MOL
REMARK 923 INTER-LIGAND FREE ENERGY PREDICTED BY IDOCK:   -4.32 KCAL/MOL
REMARK 924 INTRA-LIGAND FREE ENERGY PREDICTED BY IDOCK:   -0.52 KCAL/MOL
REMARK 927      BINDING AFFINITY PREDICTED BY RF-SCORE:    0.00 PKD
ROOT
HETATM    1 CL   UNL     1     -11.123  10.200  67.371  1.00  0.00    -0.302 Cl 
HETATM    2  C   UNL     1      -9.481  10.372  66.699  1.00  0.00    -0.165 C  
HETATM    3  C   UNL     1      -9.246  11.773  66.146  1.00  0.00    -0.210 C  
ENDROOT
BRANCH   3   4
HETATM    4  N   UNL     1     -10.200  12.152  65.112  1.00  0.00    -0.274 N  
HETATM    5  H   UNL     1     -10.446  11.486  64.380  1.00  0.00     0.000 HD 
BRANCH   4   6
HETATM    6  C   UNL     1     -10.772  13.408  65.117  1.00  0.00    -0.330 C  
HETATM    7  O   UNL     1     -10.244  14.321  64.482  1.00  0.00    -0.304 OA 
BRANCH   6   8
HETATM    8  N   UNL     1     -11.924  13.551  65.888  1.00  0.00    -0.382 N  
BRANCH   8   9
HETATM    9  C   UNL     1     -11.974  13.851  67.327  1.00  0.00    -0.411 C  
HETATM   10 CL   UNL     1     -10.674  16.267  67.226  1.00  0.00    -0.299 Cl 
HETATM   11  C   UNL     1     -10.736  14.590  67.830  1.00  0.00    -0.245 C  
ENDBRANCH   8   9
BRANCH   8  12
HETATM   12  N   UNL     1     -13.133  13.368  65.187  1.00  0.00    -0.684 NA 
HETATM   13  H   UNL     1     -13.546  14.270  64.948  1.00  0.00     0.000 HD 
HETATM   14  H   UNL     1     -13.851  12.534  63.709  1.00  0.00     0.000 HD 
HETATM   15  O   UNL     1     -13.036  12.658  64.181  1.00  0.00    -0.715 OA 
ENDBRANCH   8  12
ENDBRANCH   6   8
ENDBRANCH   4   6
ENDBRANCH   3   4
TORSDOF 5
ENDMDL
MODEL       74
REMARK 921   NORMALIZED FREE ENERGY PREDICTED BY IDOCK:   -3.68 KCAL/MOL
REMARK 922        TOTAL FREE ENERGY PREDICTED BY IDOCK:   -4.84 KCAL/MOL
REMARK 923 INTER-LIGAND FREE ENERGY PREDICTED BY IDOCK:   -4.33 KCAL/MOL
REMARK 924 INTRA-LIGAND FREE ENERGY PREDICTED BY IDOCK:   -0.51 KCAL/MOL
REMARK 927      BINDING AFFINITY PREDICTED BY RF-SCORE:    0.00 PKD
ROOT
HETATM    1 CL   UNL     1     -11.149   6.561  66.947  1.00  0.00    -0.443 Cl 
HETATM    2  C   UNL     1     -10.111   6.300  68.373  1.00  0.00    -0.157 C  
HETATM    3  C   UNL     1     -10.922   5.844  69.580  1.00  0.00    -0.368 C  
ENDROOT
BRANCH   3   4
HETATM    4  N   UNL     1     -11.976   6.778  69.953  1.00  0.00    -0.659 N  
HETATM    5  H   UNL     1     -12.585   7.169  69.235  1.00  0.00     0.000 HD 
BRANCH   4   6
HETATM    6  C   UNL     1     -12.153   7.137  71.274  1.00  0.00    -0.348 C  
HETATM    7  O   UNL     1     -12.371   6.267  72.118  1.00  0.00    -0.315 OA 
BRANCH   6   8
HETATM    8  N   UNL     1     -12.094   8.501  71.549  1.00  0.00    -0.292 N  
BRANCH   8   9
HETATM    9  C   UNL     1     -13.217   9.448  71.488  1.00  0.00    -0.384 C  
HETATM   10 CL   UNL     1     -12.259  10.997  69.434  1.00  0.00    -0.392 Cl 
HETATM   11  C   UNL     1     -12.786  10.870  71.133  1.00  0.00    -0.409 C  
ENDBRANCH   8   9
BRANCH   8  12
HETATM   12  N   UNL     1     -10.815   8.982  71.900  1.00  0.00    -0.362 NA 
HETATM   13  H   UNL     1     -10.540   8.624  72.815  1.00  0.00     0.000 HD 
HETATM   14  H   UNL     1      -9.076   9.073  71.299  1.00  0.00     0.000 HD 
HETATM   15  O   UNL     1      -9.937   8.749  71.063  1.00  0.00    -0.197 OA 
ENDBRANCH   8  12
ENDBRANCH   6   8
ENDBRANCH   4   6
ENDBRANCH   3   4
TORSDOF 5
ENDMDL
MODEL       75
REMARK 921   NORMALIZED FREE ENERGY PREDICTED BY IDOCK:   -3.68 KCAL/MOL
REMARK 922        TOTAL FREE ENERGY PREDICTED BY IDOCK:   -4.84 KCAL/MOL
REMARK 923 INTER-LIGAND FREE ENERGY PREDICTED BY IDOCK:   -4.36 KCAL/MOL
REMARK 924 INTRA-LIGAND FREE ENERGY PREDICTED BY IDOCK:   -0.48 KCAL/MOL
REMARK 927      BINDING AFFINITY PREDICTED BY RF-SCORE:    0.00 PKD
ROOT
HETATM    1 CL   UNL     1     -10.975  11.278  64.133  1.00  0.00    -0.426 Cl 
HETATM    2  C   UNL     1     -11.185  13.037  63.929  1.00  0.00    -0.389 C  
HETATM    3  C   UNL     1     -11.128  13.766  65.266  1.00  0.00    -0.313 C  
ENDROOT
BRANCH   3   4
HETATM    4  N   UNL     1     -12.127  13.299  66.219  1.00  0.00    -0.419 N  
HETATM    5  H   UNL     1     -13.117  13.461  66.037  1.00  0.00     0.000 HD 
BRANCH   4   6
HETATM    6  C   UNL     1     -11.739  12.640  67.368  1.00  0.00    -0.369 C  
HETATM    7  O   UNL     1     -11.845  11.414  67.432  1.00  0.00    -0.609 OA 
BRANCH   6   8
HETATM    8  N   UNL     1     -11.268  13.443  68.404  1.00  0.00    -0.262 N  
BRANCH   8   9
HETATM    9  C   UNL     1     -12.016  14.512  69.082  1.00  0.00    -0.309 C  
HETATM   10 CL   UNL     1     -10.856  16.632  67.780  1.00  0.00    -0.325 Cl 
HETATM   11  C   UNL     1     -11.187  15.775  69.309  1.00  0.00    -0.324 C  
ENDBRANCH   8   9
BRANCH   8  12
HETATM   12  N   UNL     1      -9.939  13.185  68.798  1.00  0.00    -0.426 NA 
HETATM   13  H   UNL     1      -9.887  12.311  69.322  1.00  0.00     0.000 HD 
HETATM   14  H   UNL     1      -8.229  13.007  68.135  1.00  0.00     0.000 HD 
HETATM   15  O   UNL     1      -9.124  13.181  67.869  1.00  0.00    -0.189 OA 
ENDBRANCH   8  12
ENDBRANCH   6   8
ENDBRANCH   4   6
ENDBRANCH   3   4
TORSDOF 5
ENDMDL
MODEL       76
REMARK 921   NORMALIZED FREE ENERGY PREDICTED BY IDOCK:   -3.68 KCAL/MOL
REMARK 922        TOTAL FREE ENERGY PREDICTED BY IDOCK:   -4.83 KCAL/MOL
REMARK 923 INTER-LIGAND FREE ENERGY PREDICTED BY IDOCK:   -4.50 KCAL/MOL
REMARK 924 INTRA-LIGAND FREE ENERGY PREDICTED BY IDOCK:   -0.33 KCAL/MOL
REMARK 927      BINDING AFFINITY PREDICTED BY RF-SCORE:    0.00 PKD
ROOT
HETATM    1 CL   UNL     1     -12.080  15.310  70.095  1.00  0.00    -0.364 Cl 
HETATM    2  C   UNL     1     -10.820  15.396  68.836  1.00  0.00    -0.251 C  
HETATM    3  C   UNL     1     -11.427  15.398  67.438  1.00  0.00    -0.195 C  
ENDROOT
BRANCH   3   4
HETATM    4  N   UNL     1     -12.256  14.230  67.168  1.00  0.00    -0.589 N  
HETATM    5  H   UNL     1     -12.862  13.858  67.899  1.00  0.00     0.000 HD 
BRANCH   4   6
HETATM    6  C   UNL     1     -12.226  13.626  65.927  1.00  0.00    -0.461 C  
HETATM    7  O   UNL     1     -13.125  13.855  65.116  1.00  0.00    -0.773 OA 
BRANCH   6   8
HETATM    8  N   UNL     1     -11.161  12.759  65.696  1.00  0.00    -0.274 N  
BRANCH   8   9
HETATM    9  C   UNL     1     -10.887  11.508  66.418  1.00  0.00    -0.285 C  
HETATM   10 CL   UNL     1      -9.095  12.533  68.229  1.00  0.00    -0.200 Cl 
HETATM   11  C   UNL     1      -9.442  11.395  66.900  1.00  0.00    -0.179 C  
ENDBRANCH   8   9
BRANCH   8  12
HETATM   12  N   UNL     1     -10.277  13.164  64.675  1.00  0.00    -0.543 NA 
HETATM   13  H   UNL     1      -9.309  13.012  64.961  1.00  0.00     0.000 HD 
HETATM   14  H   UNL     1      -9.895  12.911  62.890  1.00  0.00     0.000 HD 
HETATM   15  O   UNL     1     -10.490  12.638  63.578  1.00  0.00    -0.390 OA 
ENDBRANCH   8  12
ENDBRANCH   6   8
ENDBRANCH   4   6
ENDBRANCH   3   4
TORSDOF 5
ENDMDL
MODEL       77
REMARK 921   NORMALIZED FREE ENERGY PREDICTED BY IDOCK:   -3.68 KCAL/MOL
REMARK 922        TOTAL FREE ENERGY PREDICTED BY IDOCK:   -4.83 KCAL/MOL
REMARK 923 INTER-LIGAND FREE ENERGY PREDICTED BY IDOCK:   -4.26 KCAL/MOL
REMARK 924 INTRA-LIGAND FREE ENERGY PREDICTED BY IDOCK:   -0.57 KCAL/MOL
REMARK 927      BINDING AFFINITY PREDICTED BY RF-SCORE:    0.00 PKD
ROOT
HETATM    1 CL   UNL     1     -12.672  10.784  71.010  1.00  0.00    -0.484 Cl 
HETATM    2  C   UNL     1     -11.295   9.653  70.951  1.00  0.00    -0.360 C  
HETATM    3  C   UNL     1     -10.434   9.884  69.715  1.00  0.00    -0.261 C  
ENDROOT
BRANCH   3   4
HETATM    4  N   UNL     1     -11.174   9.760  68.466  1.00  0.00    -0.496 N  
HETATM    5  H   UNL     1     -11.645   8.884  68.239  1.00  0.00     0.000 HD 
BRANCH   4   6
HETATM    6  C   UNL     1     -11.241  10.822  67.587  1.00  0.00    -0.299 C  
HETATM    7  O   UNL     1     -12.016  11.753  67.813  1.00  0.00    -0.586 OA 
BRANCH   6   8
HETATM    8  N   UNL     1     -10.417  10.741  66.467  1.00  0.00    -0.247 N  
BRANCH   8   9
HETATM    9  C   UNL     1      -9.883  11.874  65.698  1.00  0.00    -0.241 C  
HETATM   10 CL   UNL     1     -11.820  11.921  63.752  1.00  0.00    -0.551 Cl 
HETATM   11  C   UNL     1     -10.101  11.735  64.192  1.00  0.00    -0.310 C  
ENDBRANCH   8   9
BRANCH   8  12
HETATM   12  N   UNL     1     -10.102   9.429  66.056  1.00  0.00    -0.283 NA 
HETATM   13  H   UNL     1     -10.068   9.374  65.038  1.00  0.00     0.000 HD 
HETATM   14  H   UNL     1      -8.851   8.094  66.272  1.00  0.00     0.000 HD 
HETATM   15  O   UNL     1      -9.063   8.977  66.548  1.00  0.00    -0.146 OA 
ENDBRANCH   8  12
ENDBRANCH   6   8
ENDBRANCH   4   6
ENDBRANCH   3   4
TORSDOF 5
ENDMDL
MODEL       78
REMARK 921   NORMALIZED FREE ENERGY PREDICTED BY IDOCK:   -3.68 KCAL/MOL
REMARK 922        TOTAL FREE ENERGY PREDICTED BY IDOCK:   -4.83 KCAL/MOL
REMARK 923 INTER-LIGAND FREE ENERGY PREDICTED BY IDOCK:   -4.49 KCAL/MOL
REMARK 924 INTRA-LIGAND FREE ENERGY PREDICTED BY IDOCK:   -0.34 KCAL/MOL
REMARK 927      BINDING AFFINITY PREDICTED BY RF-SCORE:    0.00 PKD
ROOT
HETATM    1 CL   UNL     1     -10.730  11.080  64.272  1.00  0.00    -0.418 Cl 
HETATM    2  C   UNL     1     -12.015  11.881  63.330  1.00  0.00    -0.425 C  
HETATM    3  C   UNL     1     -12.231  13.318  63.789  1.00  0.00    -0.439 C  
ENDROOT
BRANCH   3   4
HETATM    4  N   UNL     1     -12.572  13.427  65.202  1.00  0.00    -0.596 N  
HETATM    5  H   UNL     1     -13.509  13.178  65.518  1.00  0.00     0.000 HD 
BRANCH   4   6
HETATM    6  C   UNL     1     -11.634  13.866  66.113  1.00  0.00    -0.359 C  
HETATM    7  O   UNL     1     -10.592  14.388  65.712  1.00  0.00    -0.295 OA 
BRANCH   6   8
HETATM    8  N   UNL     1     -11.939  13.652  67.455  1.00  0.00    -0.369 N  
BRANCH   8   9
HETATM    9  C   UNL     1     -11.889  12.364  68.162  1.00  0.00    -0.315 C  
HETATM   10 CL   UNL     1      -9.156  12.144  68.296  1.00  0.00    -0.197 Cl 
HETATM   11  C   UNL     1     -10.715  11.487  67.732  1.00  0.00    -0.207 C  
ENDBRANCH   8   9
BRANCH   8  12
HETATM   12  N   UNL     1     -12.344  14.803  68.162  1.00  0.00    -0.572 NA 
HETATM   13  H   UNL     1     -13.352  14.936  68.078  1.00  0.00     0.000 HD 
HETATM   14  H   UNL     1     -12.277  15.592  69.826  1.00  0.00     0.000 HD 
HETATM   15  O   UNL     1     -12.005  14.817  69.350  1.00  0.00    -0.299 OA 
ENDBRANCH   8  12
ENDBRANCH   6   8
ENDBRANCH   4   6
ENDBRANCH   3   4
TORSDOF 5
ENDMDL
MODEL       79
REMARK 921   NORMALIZED FREE ENERGY PREDICTED BY IDOCK:   -3.66 KCAL/MOL
REMARK 922        TOTAL FREE ENERGY PREDICTED BY IDOCK:   -4.81 KCAL/MOL
REMARK 923 INTER-LIGAND FREE ENERGY PREDICTED BY IDOCK:   -4.45 KCAL/MOL
REMARK 924 INTRA-LIGAND FREE ENERGY PREDICTED BY IDOCK:   -0.36 KCAL/MOL
REMARK 927      BINDING AFFINITY PREDICTED BY RF-SCORE:    0.00 PKD
ROOT
HETATM    1 CL   UNL     1     -11.488  12.351  69.702  1.00  0.00    -0.302 Cl 
HETATM    2  C   UNL     1     -10.962  13.729  68.701  1.00  0.00    -0.266 C  
HETATM    3  C   UNL     1     -11.966  14.034  67.596  1.00  0.00    -0.368 C  
ENDROOT
BRANCH   3   4
HETATM    4  N   UNL     1     -12.212  12.901  66.712  1.00  0.00    -0.251 N  
HETATM    5  H   UNL     1     -12.508  12.007  67.104  1.00  0.00     0.000 HD 
BRANCH   4   6
HETATM    6  C   UNL     1     -12.046  13.033  65.349  1.00  0.00    -0.444 C  
HETATM    7  O   UNL     1     -12.953  13.515  64.668  1.00  0.00    -0.660 OA 
BRANCH   6   8
HETATM    8  N   UNL     1     -10.837  12.570  64.833  1.00  0.00    -0.283 N  
BRANCH   8   9
HETATM    9  C   UNL     1     -10.567  11.212  64.339  1.00  0.00    -0.343 C  
HETATM   10 CL   UNL     1     -10.212  10.015  66.784  1.00  0.00    -0.287 Cl 
HETATM   11  C   UNL     1      -9.548  10.455  65.188  1.00  0.00    -0.271 C  
ENDBRANCH   8   9
BRANCH   8  12
HETATM   12  N   UNL     1      -9.797  13.522  64.815  1.00  0.00    -0.608 NA 
HETATM   13  H   UNL     1      -9.132  13.308  64.072  1.00  0.00     0.000 HD 
HETATM   14  H   UNL     1      -9.479  15.334  64.717  1.00  0.00     0.000 HD 
HETATM   15  O   UNL     1     -10.180  14.693  64.729  1.00  0.00    -0.367 OA 
ENDBRANCH   8  12
ENDBRANCH   6   8
ENDBRANCH   4   6
ENDBRANCH   3   4
TORSDOF 5
ENDMDL
MODEL       80
REMARK 921   NORMALIZED FREE ENERGY PREDICTED BY IDOCK:   -3.64 KCAL/MOL
REMARK 922        TOTAL FREE ENERGY PREDICTED BY IDOCK:   -4.79 KCAL/MOL
REMARK 923 INTER-LIGAND FREE ENERGY PREDICTED BY IDOCK:   -4.21 KCAL/MOL
REMARK 924 INTRA-LIGAND FREE ENERGY PREDICTED BY IDOCK:   -0.57 KCAL/MOL
REMARK 927      BINDING AFFINITY PREDICTED BY RF-SCORE:    0.00 PKD
ROOT
HETATM    1 CL   UNL     1     -10.464  19.758  66.506  1.00  0.00    -0.588 Cl 
HETATM    2  C   UNL     1      -9.819  19.034  68.002  1.00  0.00    -0.352 C  
HETATM    3  C   UNL     1      -9.571  17.539  67.839  1.00  0.00    -0.277 C  
ENDROOT
BRANCH   3   4
HETATM    4  N   UNL     1     -10.765  16.795  67.455  1.00  0.00    -0.310 N  
HETATM    5  H   UNL     1     -11.600  16.840  68.038  1.00  0.00     0.000 HD 
BRANCH   4   6
HETATM    6  C   UNL     1     -10.769  16.031  66.306  1.00  0.00    -0.234 C  
HETATM    7  O   UNL     1     -10.526  16.560  65.221  1.00  0.00    -0.590 OA 
BRANCH   6   8
HETATM    8  N   UNL     1     -11.083  14.683  66.471  1.00  0.00    -0.323 N  
BRANCH   8   9
HETATM    9  C   UNL     1     -10.314  13.543  65.951  1.00  0.00    -0.299 C  
HETATM   10 CL   UNL     1      -9.117  12.823  68.315  1.00  0.00    -0.199 Cl 
HETATM   11  C   UNL     1      -8.954  13.377  66.627  1.00  0.00    -0.122 C  
ENDBRANCH   8   9
BRANCH   8  12
HETATM   12  N   UNL     1     -12.266  14.434  67.196  1.00  0.00    -0.584 NA 
HETATM   13  H   UNL     1     -12.775  13.649  66.789  1.00  0.00     0.000 HD 
HETATM   14  H   UNL     1     -12.889  14.087  68.895  1.00  0.00     0.000 HD 
HETATM   15  O   UNL     1     -12.093  14.255  68.407  1.00  0.00    -0.335 OA 
ENDBRANCH   8  12
ENDBRANCH   6   8
ENDBRANCH   4   6
ENDBRANCH   3   4
TORSDOF 5
ENDMDL
MODEL       81
REMARK 921   NORMALIZED FREE ENERGY PREDICTED BY IDOCK:   -3.64 KCAL/MOL
REMARK 922        TOTAL FREE ENERGY PREDICTED BY IDOCK:   -4.79 KCAL/MOL
REMARK 923 INTER-LIGAND FREE ENERGY PREDICTED BY IDOCK:   -4.37 KCAL/MOL
REMARK 924 INTRA-LIGAND FREE ENERGY PREDICTED BY IDOCK:   -0.42 KCAL/MOL
REMARK 927      BINDING AFFINITY PREDICTED BY RF-SCORE:    0.00 PKD
ROOT
HETATM    1 CL   UNL     1     -10.639   8.289  67.072  1.00  0.00    -0.380 Cl 
HETATM    2  C   UNL     1      -9.849   6.947  67.939  1.00  0.00    -0.135 C  
HETATM    3  C   UNL     1     -10.871   5.999  68.555  1.00  0.00    -0.286 C  
ENDROOT
BRANCH   3   4
HETATM    4  N   UNL     1     -11.784   6.659  69.480  1.00  0.00    -0.657 N  
HETATM    5  H   UNL     1     -12.586   7.176  69.119  1.00  0.00     0.000 HD 
BRANCH   4   6
HETATM    6  C   UNL     1     -11.568   6.588  70.841  1.00  0.00    -0.359 C  
HETATM    7  O   UNL     1     -10.874   5.681  71.302  1.00  0.00    -0.255 OA 
BRANCH   6   8
HETATM    8  N   UNL     1     -12.196   7.565  71.611  1.00  0.00    -0.308 N  
BRANCH   8   9
HETATM    9  C   UNL     1     -11.571   8.785  72.142  1.00  0.00    -0.364 C  
HETATM   10 CL   UNL     1     -12.320  10.475  70.112  1.00  0.00    -0.355 Cl 
HETATM   11  C   UNL     1     -11.017   9.701  71.052  1.00  0.00    -0.361 C  
ENDBRANCH   8   9
BRANCH   8  12
HETATM   12  N   UNL     1     -13.553   7.315  71.896  1.00  0.00    -0.541 NA 
HETATM   13  H   UNL     1     -13.718   7.352  72.903  1.00  0.00     0.000 HD 
HETATM   14  H   UNL     1     -15.259   7.885  71.494  1.00  0.00     0.000 HD 
HETATM   15  O   UNL     1     -14.344   8.055  71.302  1.00  0.00    -0.366 OA 
ENDBRANCH   8  12
ENDBRANCH   6   8
ENDBRANCH   4   6
ENDBRANCH   3   4
TORSDOF 5
ENDMDL
MODEL       82
REMARK 921   NORMALIZED FREE ENERGY PREDICTED BY IDOCK:   -3.64 KCAL/MOL
REMARK 922        TOTAL FREE ENERGY PREDICTED BY IDOCK:   -4.78 KCAL/MOL
REMARK 923 INTER-LIGAND FREE ENERGY PREDICTED BY IDOCK:   -4.29 KCAL/MOL
REMARK 924 INTRA-LIGAND FREE ENERGY PREDICTED BY IDOCK:   -0.49 KCAL/MOL
REMARK 927      BINDING AFFINITY PREDICTED BY RF-SCORE:    0.00 PKD
ROOT
HETATM    1 CL   UNL     1     -12.993  10.479  70.727  1.00  0.00    -0.441 Cl 
HETATM    2  C   UNL     1     -11.291  10.469  70.197  1.00  0.00    -0.323 C  
HETATM    3  C   UNL     1     -10.985  11.644  69.275  1.00  0.00    -0.192 C  
ENDROOT
BRANCH   3   4
HETATM    4  N   UNL     1     -11.828  11.679  68.087  1.00  0.00    -0.285 N  
HETATM    5  H   UNL     1     -12.842  11.640  68.183  1.00  0.00     0.000 HD 
BRANCH   4   6
HETATM    6  C   UNL     1     -11.260  11.766  66.832  1.00  0.00    -0.327 C  
HETATM    7  O   UNL     1     -10.324  11.022  66.534  1.00  0.00    -0.229 OA 
BRANCH   6   8
HETATM    8  N   UNL     1     -11.792  12.738  65.987  1.00  0.00    -0.420 N  
BRANCH   8   9
HETATM    9  C   UNL     1     -12.505  12.494  64.725  1.00  0.00    -0.457 C  
HETATM   10 CL   UNL     1     -10.337  11.681  63.249  1.00  0.00    -0.438 Cl 
HETATM   11  C   UNL     1     -11.675  12.837  63.489  1.00  0.00    -0.530 C  
ENDBRANCH   8   9
BRANCH   8  12
HETATM   12  N   UNL     1     -11.593  14.067  66.412  1.00  0.00    -0.352 NA 
HETATM   13  H   UNL     1     -11.679  14.709  65.624  1.00  0.00     0.000 HD 
HETATM   14  H   UNL     1     -12.194  15.317  67.626  1.00  0.00     0.000 HD 
HETATM   15  O   UNL     1     -12.329  14.421  67.340  1.00  0.00    -0.300 OA 
ENDBRANCH   8  12
ENDBRANCH   6   8
ENDBRANCH   4   6
ENDBRANCH   3   4
TORSDOF 5
ENDMDL
MODEL       83
REMARK 921   NORMALIZED FREE ENERGY PREDICTED BY IDOCK:   -3.63 KCAL/MOL
REMARK 922        TOTAL FREE ENERGY PREDICTED BY IDOCK:   -4.77 KCAL/MOL
REMARK 923 INTER-LIGAND FREE ENERGY PREDICTED BY IDOCK:   -4.63 KCAL/MOL
REMARK 924 INTRA-LIGAND FREE ENERGY PREDICTED BY IDOCK:   -0.15 KCAL/MOL
REMARK 927      BINDING AFFINITY PREDICTED BY RF-SCORE:    0.00 PKD
ROOT
HETATM    1 CL   UNL     1      -9.362  14.926  66.236  1.00  0.00    -0.330 Cl 
HETATM    2  C   UNL     1     -10.477  15.754  65.118  1.00  0.00    -0.366 C  
HETATM    3  C   UNL     1     -11.608  14.834  64.672  1.00  0.00    -0.399 C  
ENDROOT
BRANCH   3   4
HETATM    4  N   UNL     1     -11.140  13.616  64.024  1.00  0.00    -0.565 N  
HETATM    5  H   UNL     1     -10.403  13.667  63.320  1.00  0.00     0.000 HD 
BRANCH   4   6
HETATM    6  C   UNL     1     -11.688  12.394  64.357  1.00  0.00    -0.366 C  
HETATM    7  O   UNL     1     -12.846  12.135  64.025  1.00  0.00    -0.651 OA 
BRANCH   6   8
HETATM    8  N   UNL     1     -10.870  11.536  65.087  1.00  0.00    -0.285 N  
BRANCH   8   9
HETATM    9  C   UNL     1     -10.023  10.467  64.537  1.00  0.00    -0.345 C  
HETATM   10 CL   UNL     1     -10.272   8.711  66.633  1.00  0.00    -0.360 Cl 
HETATM   11  C   UNL     1      -9.223   9.724  65.606  1.00  0.00    -0.199 C  
ENDBRANCH   8   9
BRANCH   8  12
HETATM   12  N   UNL     1     -10.896  11.735  66.483  1.00  0.00    -0.269 NA 
HETATM   13  H   UNL     1     -10.006  12.116  66.804  1.00  0.00     0.000 HD 
HETATM   14  H   UNL     1     -11.852  12.568  67.819  1.00  0.00     0.000 HD 
HETATM   15  O   UNL     1     -11.834  12.434  66.879  1.00  0.00    -0.490 OA 
ENDBRANCH   8  12
ENDBRANCH   6   8
ENDBRANCH   4   6
ENDBRANCH   3   4
TORSDOF 5
ENDMDL
MODEL       84
REMARK 921   NORMALIZED FREE ENERGY PREDICTED BY IDOCK:   -3.63 KCAL/MOL
REMARK 922        TOTAL FREE ENERGY PREDICTED BY IDOCK:   -4.77 KCAL/MOL
REMARK 923 INTER-LIGAND FREE ENERGY PREDICTED BY IDOCK:   -4.17 KCAL/MOL
REMARK 924 INTRA-LIGAND FREE ENERGY PREDICTED BY IDOCK:   -0.60 KCAL/MOL
REMARK 927      BINDING AFFINITY PREDICTED BY RF-SCORE:    0.00 PKD
ROOT
HETATM    1 CL   UNL     1     -14.411   7.665  71.574  1.00  0.00    -0.572 Cl 
HETATM    2  C   UNL     1     -13.228   8.718  72.393  1.00  0.00    -0.394 C  
HETATM    3  C   UNL     1     -12.930   9.969  71.575  1.00  0.00    -0.434 C  
ENDROOT
BRANCH   3   4
HETATM    4  N   UNL     1     -12.426   9.677  70.239  1.00  0.00    -0.466 N  
HETATM    5  H   UNL     1     -13.079   9.471  69.483  1.00  0.00     0.000 HD 
BRANCH   4   6
HETATM    6  C   UNL     1     -11.068   9.677  69.992  1.00  0.00    -0.255 C  
HETATM    7  O   UNL     1     -10.493  10.739  69.749  1.00  0.00    -0.198 OA 
BRANCH   6   8
HETATM    8  N   UNL     1     -10.443   8.432  70.012  1.00  0.00    -0.219 N  
BRANCH   8   9
HETATM    9  C   UNL     1      -9.161   8.115  70.658  1.00  0.00    -0.154 C  
HETATM   10 CL   UNL     1     -10.120   7.819  73.214  1.00  0.00    -0.383 Cl 
HETATM   11  C   UNL     1      -9.047   8.675  72.074  1.00  0.00    -0.241 C  
ENDBRANCH   8   9
BRANCH   8  12
HETATM   12  N   UNL     1     -11.131   7.412  69.324  1.00  0.00    -0.443 NA 
HETATM   13  H   UNL     1     -10.526   6.986  68.622  1.00  0.00     0.000 HD 
HETATM   14  H   UNL     1     -12.084   5.858  69.593  1.00  0.00     0.000 HD 
HETATM   15  O   UNL     1     -11.620   6.545  70.056  1.00  0.00    -0.407 OA 
ENDBRANCH   8  12
ENDBRANCH   6   8
ENDBRANCH   4   6
ENDBRANCH   3   4
TORSDOF 5
ENDMDL
MODEL       85
REMARK 921   NORMALIZED FREE ENERGY PREDICTED BY IDOCK:   -3.62 KCAL/MOL
REMARK 922        TOTAL FREE ENERGY PREDICTED BY IDOCK:   -4.77 KCAL/MOL
REMARK 923 INTER-LIGAND FREE ENERGY PREDICTED BY IDOCK:   -4.26 KCAL/MOL
REMARK 924 INTRA-LIGAND FREE ENERGY PREDICTED BY IDOCK:   -0.50 KCAL/MOL
REMARK 927      BINDING AFFINITY PREDICTED BY RF-SCORE:    0.00 PKD
ROOT
HETATM    1 CL   UNL     1      -9.146   9.550  66.283  1.00  0.00    -0.187 Cl 
HETATM    2  C   UNL     1      -8.310  10.703  67.355  1.00  0.00    -0.119 C  
HETATM    3  C   UNL     1      -9.292  11.659  68.023  1.00  0.00    -0.178 C  
ENDROOT
BRANCH   3   4
HETATM    4  N   UNL     1     -10.090  12.422  67.072  1.00  0.00    -0.213 N  
HETATM    5  H   UNL     1      -9.628  12.989  66.362  1.00  0.00     0.000 HD 
BRANCH   4   6
HETATM    6  C   UNL     1     -11.469  12.382  67.130  1.00  0.00    -0.357 C  
HETATM    7  O   UNL     1     -12.034  11.352  67.502  1.00  0.00    -0.626 OA 
BRANCH   6   8
HETATM    8  N   UNL     1     -12.131  13.539  66.724  1.00  0.00    -0.390 N  
BRANCH   8   9
HETATM    9  C   UNL     1     -12.877  13.718  65.470  1.00  0.00    -0.419 C  
HETATM   10 CL   UNL     1     -10.963  12.711  63.778  1.00  0.00    -0.464 Cl 
HETATM   11  C   UNL     1     -11.983  14.083  64.286  1.00  0.00    -0.435 C  
ENDBRANCH   8   9
BRANCH   8  12
HETATM   12  N   UNL     1     -12.039  14.621  67.624  1.00  0.00    -0.584 NA 
HETATM   13  H   UNL     1     -12.326  14.331  68.559  1.00  0.00     0.000 HD 
HETATM   14  H   UNL     1     -10.867  15.889  68.265  1.00  0.00     0.000 HD 
HETATM   15  O   UNL     1     -10.928  15.160  67.660  1.00  0.00    -0.290 OA 
ENDBRANCH   8  12
ENDBRANCH   6   8
ENDBRANCH   4   6
ENDBRANCH   3   4
TORSDOF 5
ENDMDL
MODEL       86
REMARK 921   NORMALIZED FREE ENERGY PREDICTED BY IDOCK:   -3.62 KCAL/MOL
REMARK 922        TOTAL FREE ENERGY PREDICTED BY IDOCK:   -4.77 KCAL/MOL
REMARK 923 INTER-LIGAND FREE ENERGY PREDICTED BY IDOCK:   -4.56 KCAL/MOL
REMARK 924 INTRA-LIGAND FREE ENERGY PREDICTED BY IDOCK:   -0.20 KCAL/MOL
REMARK 927      BINDING AFFINITY PREDICTED BY RF-SCORE:    0.00 PKD
ROOT
HETATM    1 CL   UNL     1     -13.568   9.559  71.252  1.00  0.00    -0.368 Cl 
HETATM    2  C   UNL     1     -13.083  11.095  72.017  1.00  0.00    -0.328 C  
HETATM    3  C   UNL     1     -12.800  12.173  70.978  1.00  0.00    -0.166 C  
ENDROOT
BRANCH   3   4
HETATM    4  N   UNL     1     -11.763  11.797  70.025  1.00  0.00    -0.443 N  
HETATM    5  H   UNL     1     -10.980  11.219  70.329  1.00  0.00     0.000 HD 
BRANCH   4   6
HETATM    6  C   UNL     1     -11.837  12.219  68.713  1.00  0.00    -0.306 C  
HETATM    7  O   UNL     1     -11.989  11.391  67.814  1.00  0.00    -0.637 OA 
BRANCH   6   8
HETATM    8  N   UNL     1     -11.702  13.590  68.505  1.00  0.00    -0.336 N  
BRANCH   8   9
HETATM    9  C   UNL     1     -10.831  14.502  69.261  1.00  0.00    -0.252 C  
HETATM   10 CL   UNL     1     -12.779  15.609  70.848  1.00  0.00    -0.507 Cl 
HETATM   11  C   UNL     1     -11.508  15.824  69.615  1.00  0.00    -0.346 C  
ENDBRANCH   8   9
BRANCH   8  12
HETATM   12  N   UNL     1     -12.505  14.115  67.471  1.00  0.00    -0.492 NA 
HETATM   13  H   UNL     1     -12.954  14.979  67.774  1.00  0.00     0.000 HD 
HETATM   14  H   UNL     1     -12.450  14.642  65.707  1.00  0.00     0.000 HD 
HETATM   15  O   UNL     1     -11.909  14.289  66.403  1.00  0.00    -0.383 OA 
ENDBRANCH   8  12
ENDBRANCH   6   8
ENDBRANCH   4   6
ENDBRANCH   3   4
TORSDOF 5
ENDMDL
MODEL       87
REMARK 921   NORMALIZED FREE ENERGY PREDICTED BY IDOCK:   -3.61 KCAL/MOL
REMARK 922        TOTAL FREE ENERGY PREDICTED BY IDOCK:   -4.74 KCAL/MOL
REMARK 923 INTER-LIGAND FREE ENERGY PREDICTED BY IDOCK:   -4.22 KCAL/MOL
REMARK 924 INTRA-LIGAND FREE ENERGY PREDICTED BY IDOCK:   -0.53 KCAL/MOL
REMARK 927      BINDING AFFINITY PREDICTED BY RF-SCORE:    0.00 PKD
ROOT
HETATM    1 CL   UNL     1     -12.003  15.988  72.055  1.00  0.00    -0.575 Cl 
HETATM    2  C   UNL     1     -13.005  15.024  70.939  1.00  0.00    -0.405 C  
HETATM    3  C   UNL     1     -12.269  14.730  69.637  1.00  0.00    -0.270 C  
ENDROOT
BRANCH   3   4
HETATM    4  N   UNL     1     -11.838  15.932  68.935  1.00  0.00    -0.465 N  
HETATM    5  H   UNL     1     -12.171  16.846  69.242  1.00  0.00     0.000 HD 
BRANCH   4   6
HETATM    6  C   UNL     1     -10.984  15.839  67.855  1.00  0.00    -0.324 C  
HETATM    7  O   UNL     1     -11.236  15.049  66.944  1.00  0.00    -0.333 OA 
BRANCH   6   8
HETATM    8  N   UNL     1      -9.856  16.656  67.897  1.00  0.00    -0.243 N  
BRANCH   8   9
HETATM    9  C   UNL     1      -9.506  17.703  66.927  1.00  0.00    -0.276 C  
HETATM   10 CL   UNL     1     -10.570  19.827  68.304  1.00  0.00    -0.440 Cl 
HETATM   11  C   UNL     1     -10.551  18.813  66.836  1.00  0.00    -0.409 C  
ENDBRANCH   8   9
BRANCH   8  12
HETATM   12  N   UNL     1      -8.987  16.412  68.980  1.00  0.00    -0.254 NA 
HETATM   13  H   UNL     1      -9.308  16.907  69.812  1.00  0.00     0.000 HD 
HETATM   14  H   UNL     1      -8.225  15.051  69.961  1.00  0.00     0.000 HD 
HETATM   15  O   UNL     1      -8.810  15.215  69.232  1.00  0.00    -0.222 OA 
ENDBRANCH   8  12
ENDBRANCH   6   8
ENDBRANCH   4   6
ENDBRANCH   3   4
TORSDOF 5
ENDMDL
MODEL       88
REMARK 921   NORMALIZED FREE ENERGY PREDICTED BY IDOCK:   -3.60 KCAL/MOL
REMARK 922        TOTAL FREE ENERGY PREDICTED BY IDOCK:   -4.74 KCAL/MOL
REMARK 923 INTER-LIGAND FREE ENERGY PREDICTED BY IDOCK:   -4.24 KCAL/MOL
REMARK 924 INTRA-LIGAND FREE ENERGY PREDICTED BY IDOCK:   -0.50 KCAL/MOL
REMARK 927      BINDING AFFINITY PREDICTED BY RF-SCORE:    0.00 PKD
ROOT
HETATM    1 CL   UNL     1     -14.306  15.266  72.072  1.00  0.00    -0.657 Cl 
HETATM    2  C   UNL     1     -13.684  13.596  72.024  1.00  0.00    -0.493 C  
HETATM    3  C   UNL     1     -12.439  13.488  71.151  1.00  0.00    -0.339 C  
ENDROOT
BRANCH   3   4
HETATM    4  N   UNL     1     -12.656  13.929  69.780  1.00  0.00    -0.335 N  
HETATM    5  H   UNL     1     -13.433  13.547  69.241  1.00  0.00     0.000 HD 
BRANCH   4   6
HETATM    6  C   UNL     1     -11.814  14.860  69.206  1.00  0.00    -0.318 C  
HETATM    7  O   UNL     1     -11.911  16.046  69.522  1.00  0.00    -0.319 OA 
BRANCH   6   8
HETATM    8  N   UNL     1     -10.911  14.369  68.265  1.00  0.00    -0.241 N  
BRANCH   8   9
HETATM    9  C   UNL     1      -9.626  14.978  67.895  1.00  0.00    -0.203 C  
HETATM   10 CL   UNL     1     -10.486  16.258  65.623  1.00  0.00    -0.389 Cl 
HETATM   11  C   UNL     1      -9.410  15.057  66.385  1.00  0.00    -0.303 C  
ENDBRANCH   8   9
BRANCH   8  12
HETATM   12  N   UNL     1     -11.314  13.182  67.619  1.00  0.00    -0.281 NA 
HETATM   13  H   UNL     1     -11.600  12.483  68.305  1.00  0.00     0.000 HD 
HETATM   14  H   UNL     1     -12.468  12.539  66.334  1.00  0.00     0.000 HD 
HETATM   15  O   UNL     1     -12.197  13.339  66.769  1.00  0.00    -0.363 OA 
ENDBRANCH   8  12
ENDBRANCH   6   8
ENDBRANCH   4   6
ENDBRANCH   3   4
TORSDOF 5
ENDMDL
MODEL       89
REMARK 921   NORMALIZED FREE ENERGY PREDICTED BY IDOCK:   -3.59 KCAL/MOL
REMARK 922        TOTAL FREE ENERGY PREDICTED BY IDOCK:   -4.72 KCAL/MOL
REMARK 923 INTER-LIGAND FREE ENERGY PREDICTED BY IDOCK:   -4.22 KCAL/MOL
REMARK 924 INTRA-LIGAND FREE ENERGY PREDICTED BY IDOCK:   -0.51 KCAL/MOL
REMARK 927      BINDING AFFINITY PREDICTED BY RF-SCORE:    0.00 PKD
ROOT
HETATM    1 CL   UNL     1     -10.608   8.943  71.553  1.00  0.00    -0.371 Cl 
HETATM    2  C   UNL     1     -12.125   9.870  71.687  1.00  0.00    -0.373 C  
HETATM    3  C   UNL     1     -12.458  10.589  70.385  1.00  0.00    -0.310 C  
ENDROOT
BRANCH   3   4
HETATM    4  N   UNL     1     -11.409  11.500  69.945  1.00  0.00    -0.464 N  
HETATM    5  H   UNL     1     -10.443  11.177  69.898  1.00  0.00     0.000 HD 
BRANCH   4   6
HETATM    6  C   UNL     1     -11.717  12.798  69.590  1.00  0.00    -0.302 C  
HETATM    7  O   UNL     1     -12.352  13.508  70.371  1.00  0.00    -0.338 OA 
BRANCH   6   8
HETATM    8  N   UNL     1     -11.292  13.202  68.327  1.00  0.00    -0.277 N  
BRANCH   8   9
HETATM    9  C   UNL     1     -10.092  13.997  68.028  1.00  0.00    -0.239 C  
HETATM   10 CL   UNL     1     -10.920  16.338  69.199  1.00  0.00    -0.306 Cl 
HETATM   11  C   UNL     1     -10.399  15.464  67.734  1.00  0.00    -0.253 C  
ENDBRANCH   8   9
BRANCH   8  12
HETATM   12  N   UNL     1     -12.129  12.805  67.264  1.00  0.00    -0.417 NA 
HETATM   13  H   UNL     1     -12.044  13.456  66.482  1.00  0.00     0.000 HD 
HETATM   14  H   UNL     1     -12.513  11.377  66.165  1.00  0.00     0.000 HD 
HETATM   15  O   UNL     1     -11.949  11.644  66.881  1.00  0.00    -0.567 OA 
ENDBRANCH   8  12
ENDBRANCH   6   8
ENDBRANCH   4   6
ENDBRANCH   3   4
TORSDOF 5
ENDMDL
MODEL       90
REMARK 921   NORMALIZED FREE ENERGY PREDICTED BY IDOCK:   -3.58 KCAL/MOL
REMARK 922        TOTAL FREE ENERGY PREDICTED BY IDOCK:   -4.70 KCAL/MOL
REMARK 923 INTER-LIGAND FREE ENERGY PREDICTED BY IDOCK:   -4.30 KCAL/MOL
REMARK 924 INTRA-LIGAND FREE ENERGY PREDICTED BY IDOCK:   -0.41 KCAL/MOL
REMARK 927      BINDING AFFINITY PREDICTED BY RF-SCORE:    0.00 PKD
ROOT
HETATM    1 CL   UNL     1     -11.970   6.651  71.931  1.00  0.00    -0.372 Cl 
HETATM    2  C   UNL     1     -10.283   7.188  71.715  1.00  0.00    -0.195 C  
HETATM    3  C   UNL     1     -10.178   8.709  71.697  1.00  0.00    -0.295 C  
ENDROOT
BRANCH   3   4
HETATM    4  N   UNL     1     -10.987   9.330  70.656  1.00  0.00    -0.254 N  
HETATM    5  H   UNL     1     -10.833   9.083  69.679  1.00  0.00     0.000 HD 
BRANCH   4   6
HETATM    6  C   UNL     1     -11.960  10.251  70.986  1.00  0.00    -0.385 C  
HETATM    7  O   UNL     1     -12.636  10.086  72.003  1.00  0.00    -0.372 OA 
BRANCH   6   8
HETATM    8  N   UNL     1     -12.120  11.314  70.100  1.00  0.00    -0.345 N  
BRANCH   8   9
HETATM    9  C   UNL     1     -11.805  12.724  70.370  1.00  0.00    -0.155 C  
HETATM   10 CL   UNL     1     -13.567  13.086  72.445  1.00  0.00    -0.677 Cl 
HETATM   11  C   UNL     1     -13.021  13.539  70.808  1.00  0.00    -0.098 C  
ENDBRANCH   8   9
BRANCH   8  12
HETATM   12  N   UNL     1     -12.652  10.963  68.843  1.00  0.00    -0.604 NA 
HETATM   13  H   UNL     1     -13.344  11.651  68.544  1.00  0.00     0.000 HD 
HETATM   14  H   UNL     1     -12.162  10.555  67.114  1.00  0.00     0.000 HD 
HETATM   15  O   UNL     1     -11.804  10.792  67.960  1.00  0.00    -0.546 OA 
ENDBRANCH   8  12
ENDBRANCH   6   8
ENDBRANCH   4   6
ENDBRANCH   3   4
TORSDOF 5
ENDMDL
MODEL       91
REMARK 921   NORMALIZED FREE ENERGY PREDICTED BY IDOCK:   -3.56 KCAL/MOL
REMARK 922        TOTAL FREE ENERGY PREDICTED BY IDOCK:   -4.68 KCAL/MOL
REMARK 923 INTER-LIGAND FREE ENERGY PREDICTED BY IDOCK:   -4.22 KCAL/MOL
REMARK 924 INTRA-LIGAND FREE ENERGY PREDICTED BY IDOCK:   -0.46 KCAL/MOL
REMARK 927      BINDING AFFINITY PREDICTED BY RF-SCORE:    0.00 PKD
ROOT
HETATM    1 CL   UNL     1      -8.090  17.515  67.018  1.00  0.00    -0.228 Cl 
HETATM    2  C   UNL     1      -9.203  18.755  67.650  1.00  0.00    -0.285 C  
HETATM    3  C   UNL     1     -10.051  18.215  68.796  1.00  0.00    -0.376 C  
ENDROOT
BRANCH   3   4
HETATM    4  N   UNL     1     -10.839  17.045  68.427  1.00  0.00    -0.361 N  
HETATM    5  H   UNL     1     -11.548  17.120  67.698  1.00  0.00     0.000 HD 
BRANCH   4   6
HETATM    6  C   UNL     1     -10.631  15.838  69.062  1.00  0.00    -0.232 C  
HETATM    7  O   UNL     1      -9.537  15.598  69.574  1.00  0.00    -0.261 OA 
BRANCH   6   8
HETATM    8  N   UNL     1     -11.704  14.949  69.049  1.00  0.00    -0.307 N  
BRANCH   8   9
HETATM    9  C   UNL     1     -11.782  13.694  68.287  1.00  0.00    -0.363 C  
HETATM   10 CL   UNL     1     -10.674  14.631  65.956  1.00  0.00    -0.302 Cl 
HETATM   11  C   UNL     1     -12.069  13.909  66.802  1.00  0.00    -0.439 C  
ENDBRANCH   8   9
BRANCH   8  12
HETATM   12  N   UNL     1     -12.804  15.334  69.843  1.00  0.00    -0.635 NA 
HETATM   13  H   UNL     1     -13.416  14.536  70.013  1.00  0.00     0.000 HD 
HETATM   14  H   UNL     1     -13.237  16.136  71.444  1.00  0.00     0.000 HD 
HETATM   15  O   UNL     1     -12.496  15.877  70.910  1.00  0.00    -0.428 OA 
ENDBRANCH   8  12
ENDBRANCH   6   8
ENDBRANCH   4   6
ENDBRANCH   3   4
TORSDOF 5
ENDMDL
MODEL       92
REMARK 921   NORMALIZED FREE ENERGY PREDICTED BY IDOCK:   -3.56 KCAL/MOL
REMARK 922        TOTAL FREE ENERGY PREDICTED BY IDOCK:   -4.68 KCAL/MOL
REMARK 923 INTER-LIGAND FREE ENERGY PREDICTED BY IDOCK:   -4.22 KCAL/MOL
REMARK 924 INTRA-LIGAND FREE ENERGY PREDICTED BY IDOCK:   -0.46 KCAL/MOL
REMARK 927      BINDING AFFINITY PREDICTED BY RF-SCORE:    0.00 PKD
ROOT
HETATM    1 CL   UNL     1      -8.775  15.876  66.547  1.00  0.00    -0.322 Cl 
HETATM    2  C   UNL     1      -9.856  16.959  65.632  1.00  0.00    -0.036 C  
HETATM    3  C   UNL     1     -11.123  16.239  65.185  1.00  0.00    -0.212 C  
ENDROOT
BRANCH   3   4
HETATM    4  N   UNL     1     -10.858  15.065  64.362  1.00  0.00    -0.594 N  
HETATM    5  H   UNL     1     -10.129  15.099  63.650  1.00  0.00     0.000 HD 
BRANCH   4   6
HETATM    6  C   UNL     1     -11.589  13.909  64.543  1.00  0.00    -0.393 C  
HETATM    7  O   UNL     1     -12.668  13.773  63.964  1.00  0.00    -0.669 OA 
BRANCH   6   8
HETATM    8  N   UNL     1     -11.041  12.970  65.414  1.00  0.00    -0.273 N  
BRANCH   8   9
HETATM    9  C   UNL     1     -11.710  12.373  66.580  1.00  0.00    -0.379 C  
HETATM   10 CL   UNL     1     -11.714  14.614  68.167  1.00  0.00    -0.357 Cl 
HETATM   11  C   UNL     1     -11.203  12.924  67.911  1.00  0.00    -0.269 C  
ENDBRANCH   8   9
BRANCH   8  12
HETATM   12  N   UNL     1      -9.714  12.595  65.125  1.00  0.00    -0.478 NA 
HETATM   13  H   UNL     1      -9.113  12.761  65.932  1.00  0.00     0.000 HD 
HETATM   14  H   UNL     1      -8.694  11.180  64.530  1.00  0.00     0.000 HD 
HETATM   15  O   UNL     1      -9.588  11.432  64.725  1.00  0.00    -0.236 OA 
ENDBRANCH   8  12
ENDBRANCH   6   8
ENDBRANCH   4   6
ENDBRANCH   3   4
TORSDOF 5
ENDMDL
MODEL       93
REMARK 921   NORMALIZED FREE ENERGY PREDICTED BY IDOCK:   -3.55 KCAL/MOL
REMARK 922        TOTAL FREE ENERGY PREDICTED BY IDOCK:   -4.67 KCAL/MOL
REMARK 923 INTER-LIGAND FREE ENERGY PREDICTED BY IDOCK:   -4.17 KCAL/MOL
REMARK 924 INTRA-LIGAND FREE ENERGY PREDICTED BY IDOCK:   -0.51 KCAL/MOL
REMARK 927      BINDING AFFINITY PREDICTED BY RF-SCORE:    0.00 PKD
ROOT
HETATM    1 CL   UNL     1     -13.081  10.031  72.034  1.00  0.00    -0.542 Cl 
HETATM    2  C   UNL     1     -12.017   9.189  70.878  1.00  0.00    -0.242 C  
HETATM    3  C   UNL     1     -10.834  10.059  70.470  1.00  0.00    -0.314 C  
ENDROOT
BRANCH   3   4
HETATM    4  N   UNL     1     -11.230  11.330  69.877  1.00  0.00    -0.446 N  
HETATM    5  H   UNL     1     -11.525  12.100  70.477  1.00  0.00     0.000 HD 
BRANCH   4   6
HETATM    6  C   UNL     1     -11.210  11.495  68.507  1.00  0.00    -0.258 C  
HETATM    7  O   UNL     1     -11.846  10.721  67.790  1.00  0.00    -0.538 OA 
BRANCH   6   8
HETATM    8  N   UNL     1     -10.425  12.542  68.030  1.00  0.00    -0.213 N  
BRANCH   8   9
HETATM    9  C   UNL     1     -10.766  13.449  66.924  1.00  0.00    -0.273 C  
HETATM   10 CL   UNL     1     -11.772  15.498  68.449  1.00  0.00    -0.366 Cl 
HETATM   11  C   UNL     1     -12.030  14.267  67.184  1.00  0.00    -0.417 C  
ENDBRANCH   8   9
BRANCH   8  12
HETATM   12  N   UNL     1      -9.188  12.704  68.687  1.00  0.00    -0.401 NA 
HETATM   13  H   UNL     1      -9.335  12.934  69.670  1.00  0.00     0.000 HD 
HETATM   14  H   UNL     1      -7.591  11.848  69.021  1.00  0.00     0.000 HD 
HETATM   15  O   UNL     1      -8.424  11.739  68.579  1.00  0.00    -0.158 OA 
ENDBRANCH   8  12
ENDBRANCH   6   8
ENDBRANCH   4   6
ENDBRANCH   3   4
TORSDOF 5
ENDMDL
MODEL       94
REMARK 921   NORMALIZED FREE ENERGY PREDICTED BY IDOCK:   -3.55 KCAL/MOL
REMARK 922        TOTAL FREE ENERGY PREDICTED BY IDOCK:   -4.67 KCAL/MOL
REMARK 923 INTER-LIGAND FREE ENERGY PREDICTED BY IDOCK:   -4.42 KCAL/MOL
REMARK 924 INTRA-LIGAND FREE ENERGY PREDICTED BY IDOCK:   -0.25 KCAL/MOL
REMARK 927      BINDING AFFINITY PREDICTED BY RF-SCORE:    0.00 PKD
ROOT
HETATM    1 CL   UNL     1      -9.313  15.753  67.778  1.00  0.00    -0.206 Cl 
HETATM    2  C   UNL     1      -9.487  16.269  66.080  1.00  0.00    -0.334 C  
HETATM    3  C   UNL     1     -10.292  15.260  65.269  1.00  0.00    -0.401 C  
ENDROOT
BRANCH   3   4
HETATM    4  N   UNL     1      -9.715  13.922  65.278  1.00  0.00    -0.572 N  
HETATM    5  H   UNL     1      -8.702  13.806  65.283  1.00  0.00     0.000 HD 
BRANCH   4   6
HETATM    6  C   UNL     1     -10.534  12.811  65.279  1.00  0.00    -0.292 C  
HETATM    7  O   UNL     1     -11.174  12.526  66.292  1.00  0.00    -0.286 OA 
BRANCH   6   8
HETATM    8  N   UNL     1     -10.550  12.063  64.103  1.00  0.00    -0.322 N  
BRANCH   8   9
HETATM    9  C   UNL     1      -9.597  11.006  63.734  1.00  0.00    -0.286 C  
HETATM   10 CL   UNL     1     -10.259   9.229  65.720  1.00  0.00    -0.118 Cl 
HETATM   11  C   UNL     1      -9.030  10.260  64.939  1.00  0.00    -0.201 C  
ENDBRANCH   8   9
BRANCH   8  12
HETATM   12  N   UNL     1     -11.584  12.394  63.204  1.00  0.00    -0.709 NA 
HETATM   13  H   UNL     1     -11.425  11.950  62.299  1.00  0.00     0.000 HD 
HETATM   14  H   UNL     1     -13.417  12.359  63.011  1.00  0.00     0.000 HD 
HETATM   15  O   UNL     1     -12.720  12.135  63.617  1.00  0.00    -0.692 OA 
ENDBRANCH   8  12
ENDBRANCH   6   8
ENDBRANCH   4   6
ENDBRANCH   3   4
TORSDOF 5
ENDMDL
MODEL       95
REMARK 921   NORMALIZED FREE ENERGY PREDICTED BY IDOCK:   -3.55 KCAL/MOL
REMARK 922        TOTAL FREE ENERGY PREDICTED BY IDOCK:   -4.67 KCAL/MOL
REMARK 923 INTER-LIGAND FREE ENERGY PREDICTED BY IDOCK:   -4.31 KCAL/MOL
REMARK 924 INTRA-LIGAND FREE ENERGY PREDICTED BY IDOCK:   -0.36 KCAL/MOL
REMARK 927      BINDING AFFINITY PREDICTED BY RF-SCORE:    0.00 PKD
ROOT
HETATM    1 CL   UNL     1      -8.448  12.082  68.114  1.00  0.00    -0.165 Cl 
HETATM    2  C   UNL     1      -7.562  13.611  67.879  1.00  0.00    -0.156 C  
HETATM    3  C   UNL     1      -8.481  14.721  67.382  1.00  0.00    -0.201 C  
ENDROOT
BRANCH   3   4
HETATM    4  N   UNL     1      -9.157  14.393  66.133  1.00  0.00    -0.504 N  
HETATM    5  H   UNL     1      -8.674  13.840  65.425  1.00  0.00     0.000 HD 
BRANCH   4   6
HETATM    6  C   UNL     1     -10.446  14.828  65.904  1.00  0.00    -0.312 C  
HETATM    7  O   UNL     1     -10.634  15.901  65.327  1.00  0.00    -0.394 OA 
BRANCH   6   8
HETATM    8  N   UNL     1     -11.463  14.004  66.381  1.00  0.00    -0.339 N  
BRANCH   8   9
HETATM    9  C   UNL     1     -11.787  12.655  65.894  1.00  0.00    -0.444 C  
HETATM   10 CL   UNL     1     -11.981  13.281  63.228  1.00  0.00    -0.514 Cl 
HETATM   11  C   UNL     1     -12.753  12.658  64.711  1.00  0.00    -0.379 C  
ENDBRANCH   8   9
BRANCH   8  12
HETATM   12  N   UNL     1     -12.240  14.560  67.418  1.00  0.00    -0.597 NA 
HETATM   13  H   UNL     1     -13.017  13.941  67.651  1.00  0.00     0.000 HD 
HETATM   14  H   UNL     1     -12.124  15.226  69.132  1.00  0.00     0.000 HD 
HETATM   15  O   UNL     1     -11.600  14.851  68.434  1.00  0.00    -0.301 OA 
ENDBRANCH   8  12
ENDBRANCH   6   8
ENDBRANCH   4   6
ENDBRANCH   3   4
TORSDOF 5
ENDMDL
MODEL       96
REMARK 921   NORMALIZED FREE ENERGY PREDICTED BY IDOCK:   -3.54 KCAL/MOL
REMARK 922        TOTAL FREE ENERGY PREDICTED BY IDOCK:   -4.65 KCAL/MOL
REMARK 923 INTER-LIGAND FREE ENERGY PREDICTED BY IDOCK:   -4.63 KCAL/MOL
REMARK 924 INTRA-LIGAND FREE ENERGY PREDICTED BY IDOCK:   -0.02 KCAL/MOL
REMARK 927      BINDING AFFINITY PREDICTED BY RF-SCORE:    0.00 PKD
ROOT
HETATM    1 CL   UNL     1     -10.830  19.658  66.595  1.00  0.00    -0.542 Cl 
HETATM    2  C   UNL     1      -9.661  19.881  67.923  1.00  0.00    -0.389 C  
HETATM    3  C   UNL     1      -9.295  18.552  68.575  1.00  0.00    -0.338 C  
ENDROOT
BRANCH   3   4
HETATM    4  N   UNL     1     -10.447  17.832  69.102  1.00  0.00    -0.414 N  
HETATM    5  H   UNL     1     -11.314  18.333  69.294  1.00  0.00     0.000 HD 
BRANCH   4   6
HETATM    6  C   UNL     1     -10.369  16.476  69.344  1.00  0.00    -0.298 C  
HETATM    7  O   UNL     1      -9.281  15.904  69.265  1.00  0.00    -0.238 OA 
BRANCH   6   8
HETATM    8  N   UNL     1     -11.572  15.839  69.641  1.00  0.00    -0.342 N  
BRANCH   8   9
HETATM    9  C   UNL     1     -12.244  15.819  70.948  1.00  0.00    -0.413 C  
HETATM   10 CL   UNL     1     -12.528  13.096  71.156  1.00  0.00    -0.429 Cl 
HETATM   11  C   UNL     1     -13.286  14.709  71.073  1.00  0.00    -0.374 C  
ENDBRANCH   8   9
BRANCH   8  12
HETATM   12  N   UNL     1     -12.159  15.146  68.562  1.00  0.00    -0.581 NA 
HETATM   13  H   UNL     1     -12.423  15.798  67.823  1.00  0.00     0.000 HD 
HETATM   14  H   UNL     1     -11.860  13.766  67.379  1.00  0.00     0.000 HD 
HETATM   15  O   UNL     1     -11.465  14.232  68.105  1.00  0.00    -0.276 OA 
ENDBRANCH   8  12
ENDBRANCH   6   8
ENDBRANCH   4   6
ENDBRANCH   3   4
TORSDOF 5
ENDMDL
MODEL       97
REMARK 921   NORMALIZED FREE ENERGY PREDICTED BY IDOCK:   -3.54 KCAL/MOL
REMARK 922        TOTAL FREE ENERGY PREDICTED BY IDOCK:   -4.65 KCAL/MOL
REMARK 923 INTER-LIGAND FREE ENERGY PREDICTED BY IDOCK:   -4.26 KCAL/MOL
REMARK 924 INTRA-LIGAND FREE ENERGY PREDICTED BY IDOCK:   -0.39 KCAL/MOL
REMARK 927      BINDING AFFINITY PREDICTED BY RF-SCORE:    0.00 PKD
ROOT
HETATM    1 CL   UNL     1      -7.490  12.853  67.590  1.00  0.00    -0.135 Cl 
HETATM    2  C   UNL     1      -8.866  11.861  68.139  1.00  0.00    -0.178 C  
HETATM    3  C   UNL     1      -9.512  11.111  66.980  1.00  0.00    -0.177 C  
ENDROOT
BRANCH   3   4
HETATM    4  N   UNL     1      -9.983  11.989  65.916  1.00  0.00    -0.231 N  
HETATM    5  H   UNL     1      -9.394  12.161  65.102  1.00  0.00     0.000 HD 
BRANCH   4   6
HETATM    6  C   UNL     1     -11.223  12.588  66.006  1.00  0.00    -0.315 C  
HETATM    7  O   UNL     1     -12.095  12.083  66.715  1.00  0.00    -0.613 OA 
BRANCH   6   8
HETATM    8  N   UNL     1     -11.401  13.739  65.241  1.00  0.00    -0.299 N  
BRANCH   8   9
HETATM    9  C   UNL     1     -10.415  14.812  65.045  1.00  0.00    -0.416 C  
HETATM   10 CL   UNL     1     -10.007  15.401  67.696  1.00  0.00    -0.225 Cl 
HETATM   11  C   UNL     1     -10.533  15.933  66.077  1.00  0.00    -0.345 C  
ENDBRANCH   8   9
BRANCH   8  12
HETATM   12  N   UNL     1     -12.665  13.854  64.627  1.00  0.00    -0.673 NA 
HETATM   13  H   UNL     1     -12.866  14.830  64.406  1.00  0.00     0.000 HD 
HETATM   14  H   UNL     1     -13.663  13.222  63.213  1.00  0.00     0.000 HD 
HETATM   15  O   UNL     1     -12.811  13.145  63.626  1.00  0.00    -0.656 OA 
ENDBRANCH   8  12
ENDBRANCH   6   8
ENDBRANCH   4   6
ENDBRANCH   3   4
TORSDOF 5
ENDMDL
MODEL       98
REMARK 921   NORMALIZED FREE ENERGY PREDICTED BY IDOCK:   -3.53 KCAL/MOL
REMARK 922        TOTAL FREE ENERGY PREDICTED BY IDOCK:   -4.64 KCAL/MOL
REMARK 923 INTER-LIGAND FREE ENERGY PREDICTED BY IDOCK:   -4.07 KCAL/MOL
REMARK 924 INTRA-LIGAND FREE ENERGY PREDICTED BY IDOCK:   -0.57 KCAL/MOL
REMARK 927      BINDING AFFINITY PREDICTED BY RF-SCORE:    0.00 PKD
ROOT
HETATM    1 CL   UNL     1     -12.280  16.037  72.508  1.00  0.00    -0.566 Cl 
HETATM    2  C   UNL     1     -12.695  15.425  70.886  1.00  0.00    -0.461 C  
HETATM    3  C   UNL     1     -11.474  14.849  70.177  1.00  0.00    -0.279 C  
ENDROOT
BRANCH   3   4
HETATM    4  N   UNL     1     -10.385  15.806  70.034  1.00  0.00    -0.303 N  
HETATM    5  H   UNL     1     -10.275  16.555  70.718  1.00  0.00     0.000 HD 
BRANCH   4   6
HETATM    6  C   UNL     1      -9.502  15.704  68.979  1.00  0.00    -0.243 C  
HETATM    7  O   UNL     1      -8.362  15.281  69.176  1.00  0.00    -0.200 OA 
BRANCH   6   8
HETATM    8  N   UNL     1      -9.980  16.126  67.740  1.00  0.00    -0.234 N  
BRANCH   8   9
HETATM    9  C   UNL     1      -9.826  15.416  66.462  1.00  0.00    -0.272 C  
HETATM   10 CL   UNL     1     -12.258  14.141  66.475  1.00  0.00    -0.484 Cl 
HETATM   11  C   UNL     1     -10.477  14.034  66.460  1.00  0.00    -0.281 C  
ENDBRANCH   8   9
BRANCH   8  12
HETATM   12  N   UNL     1     -10.655  17.364  67.755  1.00  0.00    -0.376 NA 
HETATM   13  H   UNL     1     -11.649  17.224  67.942  1.00  0.00     0.000 HD 
HETATM   14  H   UNL     1     -10.636  19.027  68.547  1.00  0.00     0.000 HD 
HETATM   15  O   UNL     1     -10.181  18.194  68.538  1.00  0.00    -0.376 OA 
ENDBRANCH   8  12
ENDBRANCH   6   8
ENDBRANCH   4   6
ENDBRANCH   3   4
TORSDOF 5
ENDMDL
MODEL       99
REMARK 921   NORMALIZED FREE ENERGY PREDICTED BY IDOCK:   -3.52 KCAL/MOL
REMARK 922        TOTAL FREE ENERGY PREDICTED BY IDOCK:   -4.63 KCAL/MOL
REMARK 923 INTER-LIGAND FREE ENERGY PREDICTED BY IDOCK:   -4.19 KCAL/MOL
REMARK 924 INTRA-LIGAND FREE ENERGY PREDICTED BY IDOCK:   -0.45 KCAL/MOL
REMARK 927      BINDING AFFINITY PREDICTED BY RF-SCORE:    0.00 PKD
ROOT
HETATM    1 CL   UNL     1     -14.394   7.152  71.654  1.00  0.00    -0.557 Cl 
HETATM    2  C   UNL     1     -13.638   8.765  71.712  1.00  0.00    -0.410 C  
HETATM    3  C   UNL     1     -12.133   8.671  71.932  1.00  0.00    -0.356 C  
ENDROOT
BRANCH   3   4
HETATM    4  N   UNL     1     -11.772   7.959  73.151  1.00  0.00    -0.489 N  
HETATM    5  H   UNL     1     -12.403   7.973  73.952  1.00  0.00     0.000 HD 
BRANCH   4   6
HETATM    6  C   UNL     1     -10.580   7.267  73.227  1.00  0.00    -0.382 C  
HETATM    7  O   UNL     1      -9.597   7.800  73.742  1.00  0.00    -0.288 OA 
BRANCH   6   8
HETATM    8  N   UNL     1     -10.581   5.989  72.672  1.00  0.00    -0.208 N  
BRANCH   8   9
HETATM    9  C   UNL     1      -9.670   5.495  71.629  1.00  0.00    -0.161 C  
HETATM   10 CL   UNL     1     -11.252   6.100  69.468  1.00  0.00    -0.487 Cl 
HETATM   11  C   UNL     1     -10.399   4.872  70.440  1.00  0.00    -0.178 C  
ENDBRANCH   8   9
BRANCH   8  12
HETATM   12  N   UNL     1     -11.574   5.124  73.176  1.00  0.00    -0.496 NA 
HETATM   13  H   UNL     1     -12.040   4.634  72.412  1.00  0.00     0.000 HD 
HETATM   14  H   UNL     1     -11.836   3.736  74.360  1.00  0.00     0.000 HD 
HETATM   15  O   UNL     1     -11.167   4.318  74.020  1.00  0.00    -0.177 OA 
ENDBRANCH   8  12
ENDBRANCH   6   8
ENDBRANCH   4   6
ENDBRANCH   3   4
TORSDOF 5
ENDMDL
MODEL      100
REMARK 921   NORMALIZED FREE ENERGY PREDICTED BY IDOCK:   -3.52 KCAL/MOL
REMARK 922        TOTAL FREE ENERGY PREDICTED BY IDOCK:   -4.63 KCAL/MOL
REMARK 923 INTER-LIGAND FREE ENERGY PREDICTED BY IDOCK:   -4.45 KCAL/MOL
REMARK 924 INTRA-LIGAND FREE ENERGY PREDICTED BY IDOCK:   -0.19 KCAL/MOL
REMARK 927      BINDING AFFINITY PREDICTED BY RF-SCORE:    0.00 PKD
ROOT
HETATM    1 CL   UNL     1     -10.711   7.968  72.104  1.00  0.00    -0.313 Cl 
HETATM    2  C   UNL     1     -10.664   8.300  70.353  1.00  0.00    -0.232 C  
HETATM    3  C   UNL     1     -10.305   9.754  70.069  1.00  0.00    -0.263 C  
ENDROOT
BRANCH   3   4
HETATM    4  N   UNL     1     -11.221  10.705  70.685  1.00  0.00    -0.416 N  
HETATM    5  H   UNL     1     -11.261  10.786  71.701  1.00  0.00     0.000 HD 
BRANCH   4   6
HETATM    6  C   UNL     1     -12.034  11.498  69.901  1.00  0.00    -0.351 C  
HETATM    7  O   UNL     1     -12.390  11.097  68.792  1.00  0.00    -0.539 OA 
BRANCH   6   8
HETATM    8  N   UNL     1     -12.375  12.739  70.434  1.00  0.00    -0.292 N  
BRANCH   8   9
HETATM    9  C   UNL     1     -12.185  14.045  69.786  1.00  0.00    -0.341 C  
HETATM   10 CL   UNL     1     -11.526  15.463  72.042  1.00  0.00    -0.518 Cl 
HETATM   11  C   UNL     1     -12.624  15.219  70.658  1.00  0.00    -0.417 C  
ENDBRANCH   8   9
BRANCH   8  12
HETATM   12  N   UNL     1     -12.939  12.695  71.726  1.00  0.00    -0.354 NA 
HETATM   13  H   UNL     1     -13.585  13.473  71.858  1.00  0.00     0.000 HD 
HETATM   14  H   UNL     1     -13.870  11.595  72.874  1.00  0.00     0.000 HD 
HETATM   15  O   UNL     1     -13.491  11.625  72.004  1.00  0.00    -0.411 OA 
ENDBRANCH   8  12
ENDBRANCH   6   8
ENDBRANCH   4   6
ENDBRANCH   3   4
TORSDOF 5
ENDMDL
MODEL      101
REMARK 921   NORMALIZED FREE ENERGY PREDICTED BY IDOCK:   -3.52 KCAL/MOL
REMARK 922        TOTAL FREE ENERGY PREDICTED BY IDOCK:   -4.63 KCAL/MOL
REMARK 923 INTER-LIGAND FREE ENERGY PREDICTED BY IDOCK:   -4.07 KCAL/MOL
REMARK 924 INTRA-LIGAND FREE ENERGY PREDICTED BY IDOCK:   -0.57 KCAL/MOL
REMARK 927      BINDING AFFINITY PREDICTED BY RF-SCORE:    0.00 PKD
ROOT
HETATM    1 CL   UNL     1      -8.539  15.470  66.724  1.00  0.00    -0.284 Cl 
HETATM    2  C   UNL     1      -7.641  14.160  67.532  1.00  0.00    -0.184 C  
HETATM    3  C   UNL     1      -8.301  12.805  67.304  1.00  0.00    -0.187 C  
ENDROOT
BRANCH   3   4
HETATM    4  N   UNL     1      -9.684  12.753  67.761  1.00  0.00    -0.201 N  
HETATM    5  H   UNL     1      -9.911  13.011  68.721  1.00  0.00     0.000 HD 
BRANCH   4   6
HETATM    6  C   UNL     1     -10.687  12.357  66.900  1.00  0.00    -0.240 C  
HETATM    7  O   UNL     1     -11.074  11.188  66.912  1.00  0.00    -0.289 OA 
BRANCH   6   8
HETATM    8  N   UNL     1     -11.179  13.339  66.043  1.00  0.00    -0.294 N  
BRANCH   8   9
HETATM    9  C   UNL     1     -10.719  13.603  64.671  1.00  0.00    -0.421 C  
HETATM   10 CL   UNL     1     -12.460  11.912  63.387  1.00  0.00    -0.669 Cl 
HETATM   11  C   UNL     1     -10.780  12.371  63.770  1.00  0.00    -0.451 C  
ENDBRANCH   8   9
BRANCH   8  12
HETATM   12  N   UNL     1     -12.202  14.143  66.585  1.00  0.00    -0.483 NA 
HETATM   13  H   UNL     1     -13.117  13.798  66.295  1.00  0.00     0.000 HD 
HETATM   14  H   UNL     1     -12.846  14.806  68.180  1.00  0.00     0.000 HD 
HETATM   15  O   UNL     1     -12.157  14.264  67.814  1.00  0.00    -0.363 OA 
ENDBRANCH   8  12
ENDBRANCH   6   8
ENDBRANCH   4   6
ENDBRANCH   3   4
TORSDOF 5
ENDMDL
MODEL      102
REMARK 921   NORMALIZED FREE ENERGY PREDICTED BY IDOCK:   -3.51 KCAL/MOL
REMARK 922        TOTAL FREE ENERGY PREDICTED BY IDOCK:   -4.62 KCAL/MOL
REMARK 923 INTER-LIGAND FREE ENERGY PREDICTED BY IDOCK:   -4.39 KCAL/MOL
REMARK 924 INTRA-LIGAND FREE ENERGY PREDICTED BY IDOCK:   -0.24 KCAL/MOL
REMARK 927      BINDING AFFINITY PREDICTED BY RF-SCORE:    0.00 PKD
ROOT
HETATM    1 CL   UNL     1      -8.824  17.560  66.340  1.00  0.00    -0.283 Cl 
HETATM    2  C   UNL     1     -10.332  17.526  67.289  1.00  0.00    -0.337 C  
HETATM    3  C   UNL     1     -10.468  16.229  68.079  1.00  0.00    -0.293 C  
ENDROOT
BRANCH   3   4
HETATM    4  N   UNL     1     -10.435  15.038  67.240  1.00  0.00    -0.261 N  
HETATM    5  H   UNL     1      -9.729  14.950  66.510  1.00  0.00     0.000 HD 
BRANCH   4   6
HETATM    6  C   UNL     1     -11.357  14.028  67.429  1.00  0.00    -0.329 C  
HETATM    7  O   UNL     1     -12.223  14.147  68.297  1.00  0.00    -0.317 OA 
BRANCH   6   8
HETATM    8  N   UNL     1     -11.211  12.908  66.612  1.00  0.00    -0.292 N  
BRANCH   8   9
HETATM    9  C   UNL     1     -10.221  12.740  65.538  1.00  0.00    -0.279 C  
HETATM   10 CL   UNL     1     -11.971  12.867  63.426  1.00  0.00    -0.624 Cl 
HETATM   11  C   UNL     1     -10.754  11.944  64.348  1.00  0.00    -0.323 C  
ENDBRANCH   8   9
BRANCH   8  12
HETATM   12  N   UNL     1     -12.129  11.868  66.863  1.00  0.00    -0.505 NA 
HETATM   13  H   UNL     1     -12.484  11.488  65.985  1.00  0.00     0.000 HD 
HETATM   14  H   UNL     1     -12.307  10.261  67.748  1.00  0.00     0.000 HD 
HETATM   15  O   UNL     1     -11.689  10.962  67.579  1.00  0.00    -0.543 OA 
ENDBRANCH   8  12
ENDBRANCH   6   8
ENDBRANCH   4   6
ENDBRANCH   3   4
TORSDOF 5
ENDMDL
MODEL      103
REMARK 921   NORMALIZED FREE ENERGY PREDICTED BY IDOCK:   -3.51 KCAL/MOL
REMARK 922        TOTAL FREE ENERGY PREDICTED BY IDOCK:   -4.62 KCAL/MOL
REMARK 923 INTER-LIGAND FREE ENERGY PREDICTED BY IDOCK:   -4.11 KCAL/MOL
REMARK 924 INTRA-LIGAND FREE ENERGY PREDICTED BY IDOCK:   -0.50 KCAL/MOL
REMARK 927      BINDING AFFINITY PREDICTED BY RF-SCORE:    0.00 PKD
ROOT
HETATM    1 CL   UNL     1     -13.175  10.997  71.921  1.00  0.00    -0.568 Cl 
HETATM    2  C   UNL     1     -13.447   9.247  72.122  1.00  0.00    -0.473 C  
HETATM    3  C   UNL     1     -12.201   8.443  71.773  1.00  0.00    -0.330 C  
ENDROOT
BRANCH   3   4
HETATM    4  N   UNL     1     -11.728   8.673  70.414  1.00  0.00    -0.472 N  
HETATM    5  H   UNL     1     -12.272   8.330  69.623  1.00  0.00     0.000 HD 
BRANCH   4   6
HETATM    6  C   UNL     1     -10.548   9.353  70.193  1.00  0.00    -0.240 C  
HETATM    7  O   UNL     1      -9.686   9.380  71.073  1.00  0.00    -0.275 OA 
BRANCH   6   8
HETATM    8  N   UNL     1     -10.434   9.996  68.963  1.00  0.00    -0.202 N  
BRANCH   8   9
HETATM    9  C   UNL     1      -9.672  11.224  68.691  1.00  0.00    -0.195 C  
HETATM   10 CL   UNL     1     -11.695  13.010  69.198  1.00  0.00    -0.358 Cl 
HETATM   11  C   UNL     1     -10.515  12.325  68.050  1.00  0.00    -0.218 C  
ENDBRANCH   8   9
BRANCH   8  12
HETATM   12  N   UNL     1     -11.145   9.387  67.908  1.00  0.00    -0.503 NA 
HETATM   13  H   UNL     1     -11.370  10.074  67.188  1.00  0.00     0.000 HD 
HETATM   14  H   UNL     1     -11.057   8.000  66.699  1.00  0.00     0.000 HD 
HETATM   15  O   UNL     1     -10.578   8.409  67.409  1.00  0.00    -0.281 OA 
ENDBRANCH   8  12
ENDBRANCH   6   8
ENDBRANCH   4   6
ENDBRANCH   3   4
TORSDOF 5
ENDMDL
MODEL      104
REMARK 921   NORMALIZED FREE ENERGY PREDICTED BY IDOCK:   -3.51 KCAL/MOL
REMARK 922        TOTAL FREE ENERGY PREDICTED BY IDOCK:   -4.62 KCAL/MOL
REMARK 923 INTER-LIGAND FREE ENERGY PREDICTED BY IDOCK:   -4.03 KCAL/MOL
REMARK 924 INTRA-LIGAND FREE ENERGY PREDICTED BY IDOCK:   -0.58 KCAL/MOL
REMARK 927      BINDING AFFINITY PREDICTED BY RF-SCORE:    0.00 PKD
ROOT
HETATM    1 CL   UNL     1     -10.854  19.275  67.259  1.00  0.00    -0.586 Cl 
HETATM    2  C   UNL     1      -9.796  19.569  68.664  1.00  0.00    -0.445 C  
HETATM    3  C   UNL     1      -8.363  19.132  68.385  1.00  0.00    -0.349 C  
ENDROOT
BRANCH   3   4
HETATM    4  N   UNL     1      -8.250  17.725  68.020  1.00  0.00    -0.241 N  
HETATM    5  H   UNL     1      -8.263  17.010  68.747  1.00  0.00     0.000 HD 
BRANCH   4   6
HETATM    6  C   UNL     1      -8.124  17.357  66.696  1.00  0.00    -0.259 C  
HETATM    7  O   UNL     1      -7.710  18.174  65.873  1.00  0.00    -0.485 OA 
BRANCH   6   8
HETATM    8  N   UNL     1      -8.512  16.056  66.385  1.00  0.00    -0.315 N  
BRANCH   8   9
HETATM    9  C   UNL     1      -9.797  15.651  65.794  1.00  0.00    -0.351 C  
HETATM   10 CL   UNL     1     -11.295  15.779  68.092  1.00  0.00    -0.353 Cl 
HETATM   11  C   UNL     1     -10.654  14.810  66.738  1.00  0.00    -0.302 C  
ENDBRANCH   8   9
BRANCH   8  12
HETATM   12  N   UNL     1      -7.562  15.062  66.696  1.00  0.00    -0.230 NA 
HETATM   13  H   UNL     1      -6.693  15.229  66.187  1.00  0.00     0.000 HD 
HETATM   14  H   UNL     1      -6.696  14.264  68.113  1.00  0.00     0.000 HD 
HETATM   15  O   UNL     1      -7.336  14.933  67.904  1.00  0.00    -0.118 OA 
ENDBRANCH   8  12
ENDBRANCH   6   8
ENDBRANCH   4   6
ENDBRANCH   3   4
TORSDOF 5
ENDMDL
MODEL      105
REMARK 921   NORMALIZED FREE ENERGY PREDICTED BY IDOCK:   -3.50 KCAL/MOL
REMARK 922        TOTAL FREE ENERGY PREDICTED BY IDOCK:   -4.61 KCAL/MOL
REMARK 923 INTER-LIGAND FREE ENERGY PREDICTED BY IDOCK:   -4.59 KCAL/MOL
REMARK 924 INTRA-LIGAND FREE ENERGY PREDICTED BY IDOCK:   -0.02 KCAL/MOL
REMARK 927      BINDING AFFINITY PREDICTED BY RF-SCORE:    0.00 PKD
ROOT
HETATM    1 CL   UNL     1     -12.276  12.646  63.331  1.00  0.00    -0.636 Cl 
HETATM    2  C   UNL     1     -12.339  12.613  65.113  1.00  0.00    -0.484 C  
HETATM    3  C   UNL     1     -12.510  14.012  65.693  1.00  0.00    -0.504 C  
ENDROOT
BRANCH   3   4
HETATM    4  N   UNL     1     -11.454  14.934  65.295  1.00  0.00    -0.349 N  
HETATM    5  H   UNL     1     -11.551  15.477  64.437  1.00  0.00     0.000 HD 
BRANCH   4   6
HETATM    6  C   UNL     1     -10.323  15.075  66.073  1.00  0.00    -0.312 C  
HETATM    7  O   UNL     1      -9.502  14.158  66.128  1.00  0.00    -0.272 OA 
BRANCH   6   8
HETATM    8  N   UNL     1     -10.210  16.273  66.775  1.00  0.00    -0.274 N  
BRANCH   8   9
HETATM    9  C   UNL     1      -9.371  17.422  66.404  1.00  0.00    -0.252 C  
HETATM   10 CL   UNL     1     -10.997  19.387  67.421  1.00  0.00    -0.552 Cl 
HETATM   11  C   UNL     1     -10.180  18.656  66.013  1.00  0.00    -0.353 C  
ENDBRANCH   8   9
BRANCH   8  12
HETATM   12  N   UNL     1     -10.979  16.343  67.955  1.00  0.00    -0.346 NA 
HETATM   13  H   UNL     1     -11.596  15.534  68.027  1.00  0.00     0.000 HD 
HETATM   14  H   UNL     1     -10.832  16.521  69.783  1.00  0.00     0.000 HD 
HETATM   15  O   UNL     1     -10.314  16.473  68.989  1.00  0.00    -0.257 OA 
ENDBRANCH   8  12
ENDBRANCH   6   8
ENDBRANCH   4   6
ENDBRANCH   3   4
TORSDOF 5
ENDMDL
MODEL      106
REMARK 921   NORMALIZED FREE ENERGY PREDICTED BY IDOCK:   -3.49 KCAL/MOL
REMARK 922        TOTAL FREE ENERGY PREDICTED BY IDOCK:   -4.59 KCAL/MOL
REMARK 923 INTER-LIGAND FREE ENERGY PREDICTED BY IDOCK:   -4.15 KCAL/MOL
REMARK 924 INTRA-LIGAND FREE ENERGY PREDICTED BY IDOCK:   -0.44 KCAL/MOL
REMARK 927      BINDING AFFINITY PREDICTED BY RF-SCORE:    0.00 PKD
ROOT
HETATM    1 CL   UNL     1     -10.339   5.009  69.953  1.00  0.00    -0.344 Cl 
HETATM    2  C   UNL     1     -10.933   5.730  71.472  1.00  0.00    -0.239 C  
HETATM    3  C   UNL     1     -12.011   6.775  71.211  1.00  0.00    -0.365 C  
ENDROOT
BRANCH   3   4
HETATM    4  N   UNL     1     -11.566   7.857  70.342  1.00  0.00    -0.458 N  
HETATM    5  H   UNL     1     -11.486   7.700  69.337  1.00  0.00     0.000 HD 
BRANCH   4   6
HETATM    6  C   UNL     1     -11.253   9.092  70.871  1.00  0.00    -0.295 C  
HETATM    7  O   UNL     1     -10.316   9.196  71.664  1.00  0.00    -0.334 OA 
BRANCH   6   8
HETATM    8  N   UNL     1     -12.066  10.151  70.471  1.00  0.00    -0.293 N  
BRANCH   8   9
HETATM    9  C   UNL     1     -11.610  11.433  69.915  1.00  0.00    -0.323 C  
HETATM   10 CL   UNL     1     -11.107  10.549  67.365  1.00  0.00    -0.355 Cl 
HETATM   11  C   UNL     1     -10.501  11.278  68.876  1.00  0.00    -0.206 C  
ENDBRANCH   8   9
BRANCH   8  12
HETATM   12  N   UNL     1     -13.448   9.938  70.649  1.00  0.00    -0.572 NA 
HETATM   13  H   UNL     1     -13.809   9.319  69.922  1.00  0.00     0.000 HD 
HETATM   14  H   UNL     1     -14.690   9.374  71.888  1.00  0.00     0.000 HD 
HETATM   15  O   UNL     1     -13.759   9.517  71.768  1.00  0.00    -0.363 OA 
ENDBRANCH   8  12
ENDBRANCH   6   8
ENDBRANCH   4   6
ENDBRANCH   3   4
TORSDOF 5
ENDMDL
MODEL      107
REMARK 921   NORMALIZED FREE ENERGY PREDICTED BY IDOCK:   -3.48 KCAL/MOL
REMARK 922        TOTAL FREE ENERGY PREDICTED BY IDOCK:   -4.58 KCAL/MOL
REMARK 923 INTER-LIGAND FREE ENERGY PREDICTED BY IDOCK:   -4.07 KCAL/MOL
REMARK 924 INTRA-LIGAND FREE ENERGY PREDICTED BY IDOCK:   -0.52 KCAL/MOL
REMARK 927      BINDING AFFINITY PREDICTED BY RF-SCORE:    0.00 PKD
ROOT
HETATM    1 CL   UNL     1     -10.619  10.601  69.343  1.00  0.00    -0.254 Cl 
HETATM    2  C   UNL     1     -11.451  12.060  68.747  1.00  0.00    -0.300 C  
HETATM    3  C   UNL     1     -11.907  11.894  67.302  1.00  0.00    -0.148 C  
ENDROOT
BRANCH   3   4
HETATM    4  N   UNL     1     -10.816  11.590  66.385  1.00  0.00    -0.278 N  
HETATM    5  H   UNL     1     -10.485  10.630  66.290  1.00  0.00     0.000 HD 
BRANCH   4   6
HETATM    6  C   UNL     1     -10.227  12.595  65.644  1.00  0.00    -0.273 C  
HETATM    7  O   UNL     1      -9.429  13.362  66.184  1.00  0.00    -0.237 OA 
BRANCH   6   8
HETATM    8  N   UNL     1     -10.617  12.679  64.310  1.00  0.00    -0.359 N  
BRANCH   8   9
HETATM    9  C   UNL     1     -11.859  13.281  63.804  1.00  0.00    -0.467 C  
HETATM   10 CL   UNL     1     -11.288  15.880  64.480  1.00  0.00    -0.403 Cl 
HETATM   11  C   UNL     1     -12.347  14.455  64.652  1.00  0.00    -0.418 C  
ENDBRANCH   8   9
BRANCH   8  12
HETATM   12  N   UNL     1      -9.714  12.106  63.391  1.00  0.00    -0.645 NA 
HETATM   13  H   UNL     1      -8.783  12.506  63.510  1.00  0.00     0.000 HD 
HETATM   14  H   UNL     1      -9.054  10.486  62.811  1.00  0.00     0.000 HD 
HETATM   15  O   UNL     1      -9.662  10.872  63.430  1.00  0.00    -0.286 OA 
ENDBRANCH   8  12
ENDBRANCH   6   8
ENDBRANCH   4   6
ENDBRANCH   3   4
TORSDOF 5
ENDMDL
MODEL      108
REMARK 921   NORMALIZED FREE ENERGY PREDICTED BY IDOCK:   -3.48 KCAL/MOL
REMARK 922        TOTAL FREE ENERGY PREDICTED BY IDOCK:   -4.58 KCAL/MOL
REMARK 923 INTER-LIGAND FREE ENERGY PREDICTED BY IDOCK:   -4.16 KCAL/MOL
REMARK 924 INTRA-LIGAND FREE ENERGY PREDICTED BY IDOCK:   -0.41 KCAL/MOL
REMARK 927      BINDING AFFINITY PREDICTED BY RF-SCORE:    0.00 PKD
ROOT
HETATM    1 CL   UNL     1     -10.784  19.634  67.278  1.00  0.00    -0.597 Cl 
HETATM    2  C   UNL     1      -9.481  18.608  67.932  1.00  0.00    -0.303 C  
HETATM    3  C   UNL     1      -9.683  17.143  67.561  1.00  0.00    -0.256 C  
ENDROOT
BRANCH   3   4
HETATM    4  N   UNL     1     -10.957  16.603  68.018  1.00  0.00    -0.343 N  
HETATM    5  H   UNL     1     -11.820  16.872  67.548  1.00  0.00     0.000 HD 
BRANCH   4   6
HETATM    6  C   UNL     1     -10.999  15.728  69.085  1.00  0.00    -0.265 C  
HETATM    7  O   UNL     1     -10.405  16.009  70.128  1.00  0.00    -0.253 OA 
BRANCH   6   8
HETATM    8  N   UNL     1     -11.713  14.550  68.881  1.00  0.00    -0.302 N  
BRANCH   8   9
HETATM    9  C   UNL     1     -11.912  13.474  69.863  1.00  0.00    -0.348 C  
HETATM   10 CL   UNL     1     -10.248  11.626  68.700  1.00  0.00    -0.218 Cl 
HETATM   11  C   UNL     1     -11.886  12.079  69.241  1.00  0.00    -0.318 C  
ENDBRANCH   8   9
BRANCH   8  12
HETATM   12  N   UNL     1     -12.267  14.408  67.592  1.00  0.00    -0.623 NA 
HETATM   13  H   UNL     1     -12.825  15.228  67.352  1.00  0.00     0.000 HD 
HETATM   14  H   UNL     1     -11.814  14.077  65.837  1.00  0.00     0.000 HD 
HETATM   15  O   UNL     1     -11.440  14.173  66.705  1.00  0.00    -0.337 OA 
ENDBRANCH   8  12
ENDBRANCH   6   8
ENDBRANCH   4   6
ENDBRANCH   3   4
TORSDOF 5
ENDMDL
MODEL      109
REMARK 921   NORMALIZED FREE ENERGY PREDICTED BY IDOCK:   -3.48 KCAL/MOL
REMARK 922        TOTAL FREE ENERGY PREDICTED BY IDOCK:   -4.58 KCAL/MOL
REMARK 923 INTER-LIGAND FREE ENERGY PREDICTED BY IDOCK:   -4.37 KCAL/MOL
REMARK 924 INTRA-LIGAND FREE ENERGY PREDICTED BY IDOCK:   -0.20 KCAL/MOL
REMARK 927      BINDING AFFINITY PREDICTED BY RF-SCORE:    0.00 PKD
ROOT
HETATM    1 CL   UNL     1      -9.288  14.981  65.906  1.00  0.00    -0.312 Cl 
HETATM    2  C   UNL     1     -10.899  15.653  65.542  1.00  0.00    -0.346 C  
HETATM    3  C   UNL     1     -11.872  14.565  65.100  1.00  0.00    -0.374 C  
ENDROOT
BRANCH   3   4
HETATM    4  N   UNL     1     -11.416  13.826  63.930  1.00  0.00    -0.613 N  
HETATM    5  H   UNL     1     -10.991  14.324  63.148  1.00  0.00     0.000 HD 
BRANCH   4   6
HETATM    6  C   UNL     1     -11.556  12.454  63.875  1.00  0.00    -0.441 C  
HETATM    7  O   UNL     1     -12.633  11.965  63.529  1.00  0.00    -0.553 OA 
BRANCH   6   8
HETATM    8  N   UNL     1     -10.440  11.710  64.252  1.00  0.00    -0.303 N  
BRANCH   8   9
HETATM    9  C   UNL     1     -10.381  10.727  65.344  1.00  0.00    -0.247 C  
HETATM   10 CL   UNL     1      -8.706  12.140  66.997  1.00  0.00    -0.185 Cl 
HETATM   11  C   UNL     1      -9.018  10.673  66.031  1.00  0.00    -0.172 C  
ENDBRANCH   8   9
BRANCH   8  12
HETATM   12  N   UNL     1      -9.275  11.966  63.501  1.00  0.00    -0.552 NA 
HETATM   13  H   UNL     1      -8.443  11.731  64.043  1.00  0.00     0.000 HD 
HETATM   14  H   UNL     1      -8.460  11.578  61.894  1.00  0.00     0.000 HD 
HETATM   15  O   UNL     1      -9.245  11.405  62.400  1.00  0.00    -0.276 OA 
ENDBRANCH   8  12
ENDBRANCH   6   8
ENDBRANCH   4   6
ENDBRANCH   3   4
TORSDOF 5
ENDMDL
MODEL      110
REMARK 921   NORMALIZED FREE ENERGY PREDICTED BY IDOCK:   -3.47 KCAL/MOL
REMARK 922        TOTAL FREE ENERGY PREDICTED BY IDOCK:   -4.57 KCAL/MOL
REMARK 923 INTER-LIGAND FREE ENERGY PREDICTED BY IDOCK:   -4.08 KCAL/MOL
REMARK 924 INTRA-LIGAND FREE ENERGY PREDICTED BY IDOCK:   -0.49 KCAL/MOL
REMARK 927      BINDING AFFINITY PREDICTED BY RF-SCORE:    0.00 PKD
ROOT
HETATM    1 CL   UNL     1     -10.784  18.462  67.176  1.00  0.00    -0.406 Cl 
HETATM    2  C   UNL     1      -9.196  17.891  66.599  1.00  0.00    -0.278 C  
HETATM    3  C   UNL     1      -9.188  16.382  66.386  1.00  0.00    -0.302 C  
ENDROOT
BRANCH   3   4
HETATM    4  N   UNL     1      -9.529  15.629  67.586  1.00  0.00    -0.210 N  
HETATM    5  H   UNL     1      -9.615  16.111  68.480  1.00  0.00     0.000 HD 
BRANCH   4   6
HETATM    6  C   UNL     1      -9.736  14.266  67.517  1.00  0.00    -0.223 C  
HETATM    7  O   UNL     1      -8.803  13.495  67.748  1.00  0.00    -0.175 OA 
BRANCH   6   8
HETATM    8  N   UNL     1     -11.019  13.861  67.156  1.00  0.00    -0.287 N  
BRANCH   8   9
HETATM    9  C   UNL     1     -11.359  12.878  66.117  1.00  0.00    -0.317 C  
HETATM   10 CL   UNL     1     -12.260  14.658  64.231  1.00  0.00    -0.500 Cl 
HETATM   11  C   UNL     1     -12.588  13.267  65.299  1.00  0.00    -0.470 C  
ENDBRANCH   8   9
BRANCH   8  12
HETATM   12  N   UNL     1     -12.062  14.488  67.868  1.00  0.00    -0.596 NA 
HETATM   13  H   UNL     1     -12.962  14.080  67.614  1.00  0.00     0.000 HD 
HETATM   14  H   UNL     1     -12.619  14.905  69.574  1.00  0.00     0.000 HD 
HETATM   15  O   UNL     1     -11.917  14.482  69.095  1.00  0.00    -0.313 OA 
ENDBRANCH   8  12
ENDBRANCH   6   8
ENDBRANCH   4   6
ENDBRANCH   3   4
TORSDOF 5
ENDMDL
MODEL      111
REMARK 921   NORMALIZED FREE ENERGY PREDICTED BY IDOCK:   -3.45 KCAL/MOL
REMARK 922        TOTAL FREE ENERGY PREDICTED BY IDOCK:   -4.54 KCAL/MOL
REMARK 923 INTER-LIGAND FREE ENERGY PREDICTED BY IDOCK:   -4.29 KCAL/MOL
REMARK 924 INTRA-LIGAND FREE ENERGY PREDICTED BY IDOCK:   -0.26 KCAL/MOL
REMARK 927      BINDING AFFINITY PREDICTED BY RF-SCORE:    0.00 PKD
ROOT
HETATM    1 CL   UNL     1     -12.894  15.905  73.284  1.00  0.00    -0.605 Cl 
HETATM    2  C   UNL     1     -13.807  15.296  71.879  1.00  0.00    -0.520 C  
HETATM    3  C   UNL     1     -13.095  14.124  71.214  1.00  0.00    -0.350 C  
ENDROOT
BRANCH   3   4
HETATM    4  N   UNL     1     -11.745  14.448  70.769  1.00  0.00    -0.452 N  
HETATM    5  H   UNL     1     -10.947  14.213  71.359  1.00  0.00     0.000 HD 
BRANCH   4   6
HETATM    6  C   UNL     1     -11.542  15.071  69.555  1.00  0.00    -0.311 C  
HETATM    7  O   UNL     1     -12.242  16.034  69.239  1.00  0.00    -0.226 OA 
BRANCH   6   8
HETATM    8  N   UNL     1     -10.547  14.525  68.747  1.00  0.00    -0.242 N  
BRANCH   8   9
HETATM    9  C   UNL     1     -10.706  14.076  67.356  1.00  0.00    -0.283 C  
HETATM   10 CL   UNL     1      -9.137  16.002  66.185  1.00  0.00    -0.373 Cl 
HETATM   11  C   UNL     1     -10.736  15.227  66.353  1.00  0.00    -0.318 C  
ENDBRANCH   8   9
BRANCH   8  12
HETATM   12  N   UNL     1      -9.286  14.394  69.366  1.00  0.00    -0.384 NA 
HETATM   13  H   UNL     1      -8.639  13.900  68.753  1.00  0.00     0.000 HD 
HETATM   14  H   UNL     1      -7.943  15.373  70.162  1.00  0.00     0.000 HD 
HETATM   15  O   UNL     1      -8.792  15.462  69.745  1.00  0.00    -0.225 OA 
ENDBRANCH   8  12
ENDBRANCH   6   8
ENDBRANCH   4   6
ENDBRANCH   3   4
TORSDOF 5
ENDMDL
MODEL      112
REMARK 921   NORMALIZED FREE ENERGY PREDICTED BY IDOCK:   -3.42 KCAL/MOL
REMARK 922        TOTAL FREE ENERGY PREDICTED BY IDOCK:   -4.51 KCAL/MOL
REMARK 923 INTER-LIGAND FREE ENERGY PREDICTED BY IDOCK:   -3.98 KCAL/MOL
REMARK 924 INTRA-LIGAND FREE ENERGY PREDICTED BY IDOCK:   -0.52 KCAL/MOL
REMARK 927      BINDING AFFINITY PREDICTED BY RF-SCORE:    0.00 PKD
ROOT
HETATM    1 CL   UNL     1      -8.880   8.282  69.426  1.00  0.00    -0.145 Cl 
HETATM    2  C   UNL     1      -9.722   8.815  70.904  1.00  0.00    -0.222 C  
HETATM    3  C   UNL     1     -10.850   9.790  70.584  1.00  0.00    -0.329 C  
ENDROOT
BRANCH   3   4
HETATM    4  N   UNL     1     -10.400  10.976  69.867  1.00  0.00    -0.389 N  
HETATM    5  H   UNL     1      -9.536  11.440  70.146  1.00  0.00     0.000 HD 
BRANCH   4   6
HETATM    6  C   UNL     1     -11.139  11.475  68.814  1.00  0.00    -0.233 C  
HETATM    7  O   UNL     1     -11.880  10.723  68.179  1.00  0.00    -0.533 OA 
BRANCH   6   8
HETATM    8  N   UNL     1     -10.960  12.826  68.529  1.00  0.00    -0.247 N  
BRANCH   8   9
HETATM    9  C   UNL     1     -12.009  13.774  68.122  1.00  0.00    -0.358 C  
HETATM   10 CL   UNL     1     -12.333  12.855  65.555  1.00  0.00    -0.529 Cl 
HETATM   11  C   UNL     1     -11.906  14.191  66.656  1.00  0.00    -0.424 C  
ENDBRANCH   8   9
BRANCH   8  12
HETATM   12  N   UNL     1      -9.632  13.286  68.638  1.00  0.00    -0.404 NA 
HETATM   13  H   UNL     1      -9.274  13.117  69.578  1.00  0.00     0.000 HD 
HETATM   14  H   UNL     1      -7.966  13.129  67.866  1.00  0.00     0.000 HD 
HETATM   15  O   UNL     1      -8.861  12.819  67.792  1.00  0.00    -0.167 OA 
ENDBRANCH   8  12
ENDBRANCH   6   8
ENDBRANCH   4   6
ENDBRANCH   3   4
TORSDOF 5
ENDMDL
MODEL      113
REMARK 921   NORMALIZED FREE ENERGY PREDICTED BY IDOCK:   -3.42 KCAL/MOL
REMARK 922        TOTAL FREE ENERGY PREDICTED BY IDOCK:   -4.50 KCAL/MOL
REMARK 923 INTER-LIGAND FREE ENERGY PREDICTED BY IDOCK:   -4.40 KCAL/MOL
REMARK 924 INTRA-LIGAND FREE ENERGY PREDICTED BY IDOCK:   -0.10 KCAL/MOL
REMARK 927      BINDING AFFINITY PREDICTED BY RF-SCORE:    0.00 PKD
ROOT
HETATM    1 CL   UNL     1      -8.303   9.533  65.688  1.00  0.00    -0.124 Cl 
HETATM    2  C   UNL     1      -9.682  10.091  66.670  1.00  0.00    -0.194 C  
HETATM    3  C   UNL     1     -10.531  11.107  65.915  1.00  0.00    -0.253 C  
ENDROOT
BRANCH   3   4
HETATM    4  N   UNL     1      -9.780  12.279  65.482  1.00  0.00    -0.373 N  
HETATM    5  H   UNL     1      -8.870  12.479  65.895  1.00  0.00     0.000 HD 
BRANCH   4   6
HETATM    6  C   UNL     1     -10.296  13.119  64.517  1.00  0.00    -0.368 C  
HETATM    7  O   UNL     1     -10.511  12.686  63.383  1.00  0.00    -0.338 OA 
BRANCH   6   8
HETATM    8  N   UNL     1     -10.514  14.438  64.908  1.00  0.00    -0.434 N  
BRANCH   8   9
HETATM    9  C   UNL     1      -9.837  15.140  66.009  1.00  0.00    -0.320 C  
HETATM   10 CL   UNL     1     -11.200  13.948  68.074  1.00  0.00    -0.281 Cl 
HETATM   11  C   UNL     1     -10.759  15.434  67.191  1.00  0.00    -0.314 C  
ENDBRANCH   8   9
BRANCH   8  12
HETATM   12  N   UNL     1     -11.494  15.124  64.163  1.00  0.00    -0.671 NA 
HETATM   13  H   UNL     1     -11.160  15.303  63.216  1.00  0.00     0.000 HD 
HETATM   14  H   UNL     1     -13.256  15.028  63.632  1.00  0.00     0.000 HD 
HETATM   15  O   UNL     1     -12.596  14.565  64.134  1.00  0.00    -0.730 OA 
ENDBRANCH   8  12
ENDBRANCH   6   8
ENDBRANCH   4   6
ENDBRANCH   3   4
TORSDOF 5
ENDMDL
MODEL      114
REMARK 921   NORMALIZED FREE ENERGY PREDICTED BY IDOCK:   -3.39 KCAL/MOL
REMARK 922        TOTAL FREE ENERGY PREDICTED BY IDOCK:   -4.47 KCAL/MOL
REMARK 923 INTER-LIGAND FREE ENERGY PREDICTED BY IDOCK:   -3.81 KCAL/MOL
REMARK 924 INTRA-LIGAND FREE ENERGY PREDICTED BY IDOCK:   -0.66 KCAL/MOL
REMARK 927      BINDING AFFINITY PREDICTED BY RF-SCORE:    0.00 PKD
ROOT
HETATM    1 CL   UNL     1     -14.387   7.550  71.530  1.00  0.00    -0.592 Cl 
HETATM    2  C   UNL     1     -13.974   9.017  72.454  1.00  0.00    -0.448 C  
HETATM    3  C   UNL     1     -12.733   9.701  71.894  1.00  0.00    -0.411 C  
ENDROOT
BRANCH   3   4
HETATM    4  N   UNL     1     -11.559   8.837  71.872  1.00  0.00    -0.338 N  
HETATM    5  H   UNL     1     -11.146   8.519  72.748  1.00  0.00     0.000 HD 
BRANCH   4   6
HETATM    6  C   UNL     1     -11.004   8.447  70.670  1.00  0.00    -0.243 C  
HETATM    7  O   UNL     1     -11.232   7.319  70.230  1.00  0.00    -0.270 OA 
BRANCH   6   8
HETATM    8  N   UNL     1     -10.184   9.383  70.044  1.00  0.00    -0.212 N  
BRANCH   8   9
HETATM    9  C   UNL     1     -10.308   9.857  68.658  1.00  0.00    -0.195 C  
HETATM   10 CL   UNL     1     -11.736  12.140  69.195  1.00  0.00    -0.361 Cl 
HETATM   11  C   UNL     1     -11.637  10.557  68.378  1.00  0.00    -0.128 C  
ENDBRANCH   8   9
BRANCH   8  12
HETATM   12  N   UNL     1      -9.139   9.887  70.846  1.00  0.00    -0.278 NA 
HETATM   13  H   UNL     1      -9.458  10.698  71.377  1.00  0.00     0.000 HD 
HETATM   14  H   UNL     1      -7.923   9.391  72.138  1.00  0.00     0.000 HD 
HETATM   15  O   UNL     1      -8.627   9.051  71.599  1.00  0.00    -0.333 OA 
ENDBRANCH   8  12
ENDBRANCH   6   8
ENDBRANCH   4   6
ENDBRANCH   3   4
TORSDOF 5
ENDMDL
MODEL      115
REMARK 921   NORMALIZED FREE ENERGY PREDICTED BY IDOCK:   -3.39 KCAL/MOL
REMARK 922        TOTAL FREE ENERGY PREDICTED BY IDOCK:   -4.46 KCAL/MOL
REMARK 923 INTER-LIGAND FREE ENERGY PREDICTED BY IDOCK:   -3.89 KCAL/MOL
REMARK 924 INTRA-LIGAND FREE ENERGY PREDICTED BY IDOCK:   -0.57 KCAL/MOL
REMARK 927      BINDING AFFINITY PREDICTED BY RF-SCORE:    0.00 PKD
ROOT
HETATM    1 CL   UNL     1     -10.735   7.154  66.966  1.00  0.00    -0.424 Cl 
HETATM    2  C   UNL     1      -9.147   7.493  66.229  1.00  0.00    -0.157 C  
HETATM    3  C   UNL     1      -8.891   8.991  66.116  1.00  0.00    -0.164 C  
ENDROOT
BRANCH   3   4
HETATM    4  N   UNL     1      -9.908   9.693  65.342  1.00  0.00    -0.397 N  
HETATM    5  H   UNL     1     -10.222   9.309  64.451  1.00  0.00     0.000 HD 
BRANCH   4   6
HETATM    6  C   UNL     1     -10.446  10.874  65.810  1.00  0.00    -0.210 C  
HETATM    7  O   UNL     1     -11.328  10.844  66.670  1.00  0.00    -0.238 OA 
BRANCH   6   8
HETATM    8  N   UNL     1      -9.951  12.041  65.233  1.00  0.00    -0.254 N  
BRANCH   8   9
HETATM    9  C   UNL     1      -9.944  13.377  65.846  1.00  0.00    -0.277 C  
HETATM   10 CL   UNL     1     -12.643  13.852  65.684  1.00  0.00    -0.544 Cl 
HETATM   11  C   UNL     1     -10.980  14.322  65.242  1.00  0.00    -0.343 C  
ENDBRANCH   8   9
BRANCH   8  12
HETATM   12  N   UNL     1      -9.430  11.886  63.932  1.00  0.00    -0.515 NA 
HETATM   13  H   UNL     1      -8.609  11.281  63.947  1.00  0.00     0.000 HD 
HETATM   14  H   UNL     1      -9.899  11.376  62.224  1.00  0.00     0.000 HD 
HETATM   15  O   UNL     1     -10.250  11.480  63.100  1.00  0.00    -0.364 OA 
ENDBRANCH   8  12
ENDBRANCH   6   8
ENDBRANCH   4   6
ENDBRANCH   3   4
TORSDOF 5
ENDMDL
MODEL      116
REMARK 921   NORMALIZED FREE ENERGY PREDICTED BY IDOCK:   -3.38 KCAL/MOL
REMARK 922        TOTAL FREE ENERGY PREDICTED BY IDOCK:   -4.46 KCAL/MOL
REMARK 923 INTER-LIGAND FREE ENERGY PREDICTED BY IDOCK:   -4.09 KCAL/MOL
REMARK 924 INTRA-LIGAND FREE ENERGY PREDICTED BY IDOCK:   -0.37 KCAL/MOL
REMARK 927      BINDING AFFINITY PREDICTED BY RF-SCORE:    0.00 PKD
ROOT
HETATM    1 CL   UNL     1     -10.092  19.939  66.407  1.00  0.00    -0.573 Cl 
HETATM    2  C   UNL     1      -9.963  19.751  68.175  1.00  0.00    -0.440 C  
HETATM    3  C   UNL     1      -9.831  18.286  68.575  1.00  0.00    -0.381 C  
ENDROOT
BRANCH   3   4
HETATM    4  N   UNL     1     -10.939  17.460  68.112  1.00  0.00    -0.265 N  
HETATM    5  H   UNL     1     -11.876  17.858  68.047  1.00  0.00     0.000 HD 
BRANCH   4   6
HETATM    6  C   UNL     1     -10.726  16.142  67.761  1.00  0.00    -0.325 C  
HETATM    7  O   UNL     1     -11.617  15.311  67.944  1.00  0.00    -0.339 OA 
BRANCH   6   8
HETATM    8  N   UNL     1      -9.471  15.845  67.235  1.00  0.00    -0.211 N  
BRANCH   8   9
HETATM    9  C   UNL     1      -8.366  15.185  67.946  1.00  0.00    -0.149 C  
HETATM   10 CL   UNL     1      -8.681  12.691  66.842  1.00  0.00    -0.199 Cl 
HETATM   11  C   UNL     1      -8.661  13.727  68.294  1.00  0.00    -0.179 C  
ENDBRANCH   8   9
BRANCH   8  12
HETATM   12  N   UNL     1      -9.277  16.246  65.898  1.00  0.00    -0.445 NA 
HETATM   13  H   UNL     1      -8.665  15.589  65.414  1.00  0.00     0.000 HD 
HETATM   14  H   UNL     1     -10.192  16.682  64.359  1.00  0.00     0.000 HD 
HETATM   15  O   UNL     1     -10.322  16.412  65.260  1.00  0.00    -0.581 OA 
ENDBRANCH   8  12
ENDBRANCH   6   8
ENDBRANCH   4   6
ENDBRANCH   3   4
TORSDOF 5
ENDMDL
MODEL      117
REMARK 921   NORMALIZED FREE ENERGY PREDICTED BY IDOCK:   -3.37 KCAL/MOL
REMARK 922        TOTAL FREE ENERGY PREDICTED BY IDOCK:   -4.44 KCAL/MOL
REMARK 923 INTER-LIGAND FREE ENERGY PREDICTED BY IDOCK:   -4.01 KCAL/MOL
REMARK 924 INTRA-LIGAND FREE ENERGY PREDICTED BY IDOCK:   -0.43 KCAL/MOL
REMARK 927      BINDING AFFINITY PREDICTED BY RF-SCORE:    0.00 PKD
ROOT
HETATM    1 CL   UNL     1     -12.087  14.684  64.538  1.00  0.00    -0.492 Cl 
HETATM    2  C   UNL     1     -11.250  13.200  64.014  1.00  0.00    -0.379 C  
HETATM    3  C   UNL     1     -11.724  11.983  64.800  1.00  0.00    -0.275 C  
ENDROOT
BRANCH   3   4
HETATM    4  N   UNL     1     -11.542  12.121  66.240  1.00  0.00    -0.378 N  
HETATM    5  H   UNL     1     -12.249  12.599  66.797  1.00  0.00     0.000 HD 
BRANCH   4   6
HETATM    6  C   UNL     1     -10.417  11.607  66.852  1.00  0.00    -0.227 C  
HETATM    7  O   UNL     1      -9.300  11.978  66.486  1.00  0.00    -0.212 OA 
BRANCH   6   8
HETATM    8  N   UNL     1     -10.642  10.661  67.849  1.00  0.00    -0.210 N  
BRANCH   8   9
HETATM    9  C   UNL     1      -9.632   9.783  68.458  1.00  0.00    -0.149 C  
HETATM   10 CL   UNL     1     -10.346   7.473  67.157  1.00  0.00    -0.353 Cl 
HETATM   11  C   UNL     1     -10.134   8.359  68.690  1.00  0.00    -0.193 C  
ENDBRANCH   8   9
BRANCH   8  12
HETATM   12  N   UNL     1     -11.982  10.556  68.276  1.00  0.00    -0.784 NA 
HETATM   13  H   UNL     1     -12.134   9.670  68.759  1.00  0.00     0.000 HD 
HETATM   14  H   UNL     1     -13.272  11.430  69.260  1.00  0.00     0.000 HD 
HETATM   15  O   UNL     1     -12.369  11.500  68.973  1.00  0.00    -0.360 OA 
ENDBRANCH   8  12
ENDBRANCH   6   8
ENDBRANCH   4   6
ENDBRANCH   3   4
TORSDOF 5
ENDMDL
MODEL      118
REMARK 921   NORMALIZED FREE ENERGY PREDICTED BY IDOCK:   -3.37 KCAL/MOL
REMARK 922        TOTAL FREE ENERGY PREDICTED BY IDOCK:   -4.44 KCAL/MOL
REMARK 923 INTER-LIGAND FREE ENERGY PREDICTED BY IDOCK:   -3.94 KCAL/MOL
REMARK 924 INTRA-LIGAND FREE ENERGY PREDICTED BY IDOCK:   -0.49 KCAL/MOL
REMARK 927      BINDING AFFINITY PREDICTED BY RF-SCORE:    0.00 PKD
ROOT
HETATM    1 CL   UNL     1     -11.171   7.622  72.902  1.00  0.00    -0.431 Cl 
HETATM    2  C   UNL     1     -11.495   6.814  71.346  1.00  0.00    -0.292 C  
HETATM    3  C   UNL     1     -11.036   7.665  70.167  1.00  0.00    -0.246 C  
ENDROOT
BRANCH   3   4
HETATM    4  N   UNL     1     -11.658   8.982  70.130  1.00  0.00    -0.464 N  
HETATM    5  H   UNL     1     -12.669   9.069  70.233  1.00  0.00     0.000 HD 
BRANCH   4   6
HETATM    6  C   UNL     1     -10.885  10.112  69.956  1.00  0.00    -0.307 C  
HETATM    7  O   UNL     1      -9.661  10.039  70.077  1.00  0.00    -0.235 OA 
BRANCH   6   8
HETATM    8  N   UNL     1     -11.578  11.288  69.674  1.00  0.00    -0.299 N  
BRANCH   8   9
HETATM    9  C   UNL     1     -11.752  11.895  68.346  1.00  0.00    -0.326 C  
HETATM   10 CL   UNL     1      -9.379  13.274  68.278  1.00  0.00    -0.215 Cl 
HETATM   11  C   UNL     1     -11.162  13.300  68.246  1.00  0.00    -0.277 C  
ENDBRANCH   8   9
BRANCH   8  12
HETATM   12  N   UNL     1     -12.136  11.932  70.797  1.00  0.00    -0.437 NA 
HETATM   13  H   UNL     1     -12.611  12.790  70.515  1.00  0.00     0.000 HD 
HETATM   14  H   UNL     1     -13.266  11.655  72.226  1.00  0.00     0.000 HD 
HETATM   15  O   UNL     1     -12.891  11.221  71.469  1.00  0.00    -0.416 OA 
ENDBRANCH   8  12
ENDBRANCH   6   8
ENDBRANCH   4   6
ENDBRANCH   3   4
TORSDOF 5
ENDMDL
MODEL      119
REMARK 921   NORMALIZED FREE ENERGY PREDICTED BY IDOCK:   -3.37 KCAL/MOL
REMARK 922        TOTAL FREE ENERGY PREDICTED BY IDOCK:   -4.44 KCAL/MOL
REMARK 923 INTER-LIGAND FREE ENERGY PREDICTED BY IDOCK:   -3.93 KCAL/MOL
REMARK 924 INTRA-LIGAND FREE ENERGY PREDICTED BY IDOCK:   -0.51 KCAL/MOL
REMARK 927      BINDING AFFINITY PREDICTED BY RF-SCORE:    0.00 PKD
ROOT
HETATM    1 CL   UNL     1     -11.823  15.394  69.023  1.00  0.00    -0.366 Cl 
HETATM    2  C   UNL     1     -10.852  15.224  67.537  1.00  0.00    -0.304 C  
HETATM    3  C   UNL     1     -11.545  14.331  66.515  1.00  0.00    -0.378 C  
ENDROOT
BRANCH   3   4
HETATM    4  N   UNL     1     -11.837  12.996  67.020  1.00  0.00    -0.381 N  
HETATM    5  H   UNL     1     -12.671  12.838  67.585  1.00  0.00     0.000 HD 
BRANCH   4   6
HETATM    6  C   UNL     1     -10.990  11.944  66.737  1.00  0.00    -0.292 C  
HETATM    7  O   UNL     1     -10.148  12.062  65.845  1.00  0.00    -0.224 OA 
BRANCH   6   8
HETATM    8  N   UNL     1     -11.180  10.787  67.490  1.00  0.00    -0.311 N  
BRANCH   8   9
HETATM    9  C   UNL     1     -10.515   9.493  67.277  1.00  0.00    -0.262 C  
HETATM   10 CL   UNL     1      -9.189   9.380  69.678  1.00  0.00    -0.178 Cl 
HETATM   11  C   UNL     1      -9.121   9.423  67.896  1.00  0.00    -0.129 C  
ENDBRANCH   8   9
BRANCH   8  12
HETATM   12  N   UNL     1     -12.116  10.908  68.537  1.00  0.00    -0.812 NA 
HETATM   13  H   UNL     1     -12.377   9.987  68.889  1.00  0.00     0.000 HD 
HETATM   14  H   UNL     1     -12.382  11.719  70.170  1.00  0.00     0.000 HD 
HETATM   15  O   UNL     1     -11.751  11.637  69.466  1.00  0.00    -0.289 OA 
ENDBRANCH   8  12
ENDBRANCH   6   8
ENDBRANCH   4   6
ENDBRANCH   3   4
TORSDOF 5
ENDMDL
MODEL      120
REMARK 921   NORMALIZED FREE ENERGY PREDICTED BY IDOCK:   -3.37 KCAL/MOL
REMARK 922        TOTAL FREE ENERGY PREDICTED BY IDOCK:   -4.43 KCAL/MOL
REMARK 923 INTER-LIGAND FREE ENERGY PREDICTED BY IDOCK:   -4.00 KCAL/MOL
REMARK 924 INTRA-LIGAND FREE ENERGY PREDICTED BY IDOCK:   -0.44 KCAL/MOL
REMARK 927      BINDING AFFINITY PREDICTED BY RF-SCORE:    0.00 PKD
ROOT
HETATM    1 CL   UNL     1     -13.416  12.733  71.865  1.00  0.00    -0.513 Cl 
HETATM    2  C   UNL     1     -12.127  11.948  70.916  1.00  0.00    -0.134 C  
HETATM    3  C   UNL     1     -12.695  10.925  69.939  1.00  0.00    -0.045 C  
ENDROOT
BRANCH   3   4
HETATM    4  N   UNL     1     -13.477   9.881  70.589  1.00  0.00    -0.572 N  
HETATM    5  H   UNL     1     -14.432   9.698  70.282  1.00  0.00     0.000 HD 
BRANCH   4   6
HETATM    6  C   UNL     1     -12.931   9.140  71.617  1.00  0.00    -0.365 C  
HETATM    7  O   UNL     1     -13.501   9.098  72.708  1.00  0.00    -0.424 OA 
BRANCH   6   8
HETATM    8  N   UNL     1     -11.726   8.499  71.335  1.00  0.00    -0.283 N  
BRANCH   8   9
HETATM    9  C   UNL     1     -10.422   8.794  71.945  1.00  0.00    -0.353 C  
HETATM   10 CL   UNL     1      -9.239   9.897  69.726  1.00  0.00    -0.245 Cl 
HETATM   11  C   UNL     1      -9.253   8.625  70.977  1.00  0.00    -0.203 C  
ENDBRANCH   8   9
BRANCH   8  12
HETATM   12  N   UNL     1     -11.807   7.488  70.355  1.00  0.00    -0.501 NA 
HETATM   13  H   UNL     1     -11.022   7.557  69.707  1.00  0.00     0.000 HD 
HETATM   14  H   UNL     1     -11.947   5.662  70.151  1.00  0.00     0.000 HD 
HETATM   15  O   UNL     1     -11.892   6.343  70.811  1.00  0.00    -0.361 OA 
ENDBRANCH   8  12
ENDBRANCH   6   8
ENDBRANCH   4   6
ENDBRANCH   3   4
TORSDOF 5
ENDMDL
MODEL      121
REMARK 921   NORMALIZED FREE ENERGY PREDICTED BY IDOCK:   -3.37 KCAL/MOL
REMARK 922        TOTAL FREE ENERGY PREDICTED BY IDOCK:   -4.43 KCAL/MOL
REMARK 923 INTER-LIGAND FREE ENERGY PREDICTED BY IDOCK:   -3.88 KCAL/MOL
REMARK 924 INTRA-LIGAND FREE ENERGY PREDICTED BY IDOCK:   -0.55 KCAL/MOL
REMARK 927      BINDING AFFINITY PREDICTED BY RF-SCORE:    0.00 PKD
ROOT
HETATM    1 CL   UNL     1     -11.485   8.502  72.178  1.00  0.00    -0.426 Cl 
HETATM    2  C   UNL     1     -10.653   8.191  70.632  1.00  0.00    -0.215 C  
HETATM    3  C   UNL     1     -10.518   9.463  69.804  1.00  0.00    -0.226 C  
ENDROOT
BRANCH   3   4
HETATM    4  N   UNL     1     -11.797  10.098  69.509  1.00  0.00    -0.477 N  
HETATM    5  H   UNL     1     -12.486   9.609  68.939  1.00  0.00     0.000 HD 
BRANCH   4   6
HETATM    6  C   UNL     1     -12.078  11.357  69.998  1.00  0.00    -0.340 C  
HETATM    7  O   UNL     1     -12.635  11.477  71.090  1.00  0.00    -0.389 OA 
BRANCH   6   8
HETATM    8  N   UNL     1     -11.722  12.425  69.176  1.00  0.00    -0.309 N  
BRANCH   8   9
HETATM    9  C   UNL     1     -11.083  13.676  69.608  1.00  0.00    -0.008 C  
HETATM   10 CL   UNL     1     -13.277  14.786  70.830  1.00  0.00    -0.421 Cl 
HETATM   11  C   UNL     1     -12.024  14.878  69.564  1.00  0.00    -0.310 C  
ENDBRANCH   8   9
BRANCH   8  12
HETATM   12  N   UNL     1     -12.035  12.254  67.812  1.00  0.00    -0.498 NA 
HETATM   13  H   UNL     1     -12.604  13.032  67.478  1.00  0.00     0.000 HD 
HETATM   14  H   UNL     1     -11.263  11.977  66.162  1.00  0.00     0.000 HD 
HETATM   15  O   UNL     1     -11.052  12.093  67.081  1.00  0.00    -0.259 OA 
ENDBRANCH   8  12
ENDBRANCH   6   8
ENDBRANCH   4   6
ENDBRANCH   3   4
TORSDOF 5
ENDMDL
MODEL      122
REMARK 921   NORMALIZED FREE ENERGY PREDICTED BY IDOCK:   -3.36 KCAL/MOL
REMARK 922        TOTAL FREE ENERGY PREDICTED BY IDOCK:   -4.43 KCAL/MOL
REMARK 923 INTER-LIGAND FREE ENERGY PREDICTED BY IDOCK:   -3.92 KCAL/MOL
REMARK 924 INTRA-LIGAND FREE ENERGY PREDICTED BY IDOCK:   -0.51 KCAL/MOL
REMARK 927      BINDING AFFINITY PREDICTED BY RF-SCORE:    0.00 PKD
ROOT
HETATM    1 CL   UNL     1      -5.914  16.188  69.519  1.00  0.00    -0.152 Cl 
HETATM    2  C   UNL     1      -7.046  15.054  68.736  1.00  0.00    -0.114 C  
HETATM    3  C   UNL     1      -7.489  15.560  67.368  1.00  0.00    -0.204 C  
ENDROOT
BRANCH   3   4
HETATM    4  N   UNL     1      -8.124  16.871  67.417  1.00  0.00    -0.171 N  
HETATM    5  H   UNL     1      -8.072  17.429  68.269  1.00  0.00     0.000 HD 
BRANCH   4   6
HETATM    6  C   UNL     1      -8.796  17.361  66.315  1.00  0.00    -0.203 C  
HETATM    7  O   UNL     1      -9.415  16.586  65.585  1.00  0.00    -0.497 OA 
BRANCH   6   8
HETATM    8  N   UNL     1      -8.694  18.733  66.099  1.00  0.00    -0.219 N  
BRANCH   8   9
HETATM    9  C   UNL     1      -9.779  19.716  66.236  1.00  0.00    -0.423 C  
HETATM   10 CL   UNL     1      -9.956  19.661  68.975  1.00  0.00    -0.520 Cl 
HETATM   11  C   UNL     1     -10.731  19.404  67.389  1.00  0.00    -0.479 C  
ENDBRANCH   8   9
BRANCH   8  12
HETATM   12  N   UNL     1      -7.418  19.178  65.696  1.00  0.00    -0.465 NA 
HETATM   13  H   UNL     1      -6.899  19.539  66.496  1.00  0.00     0.000 HD 
HETATM   14  H   UNL     1      -5.890  18.629  64.824  1.00  0.00     0.000 HD 
HETATM   15  O   UNL     1      -6.750  18.330  65.095  1.00  0.00    -0.469 OA 
ENDBRANCH   8  12
ENDBRANCH   6   8
ENDBRANCH   4   6
ENDBRANCH   3   4
TORSDOF 5
ENDMDL
MODEL      123
REMARK 921   NORMALIZED FREE ENERGY PREDICTED BY IDOCK:   -3.36 KCAL/MOL
REMARK 922        TOTAL FREE ENERGY PREDICTED BY IDOCK:   -4.43 KCAL/MOL
REMARK 923 INTER-LIGAND FREE ENERGY PREDICTED BY IDOCK:   -4.01 KCAL/MOL
REMARK 924 INTRA-LIGAND FREE ENERGY PREDICTED BY IDOCK:   -0.42 KCAL/MOL
REMARK 927      BINDING AFFINITY PREDICTED BY RF-SCORE:    0.00 PKD
ROOT
HETATM    1 CL   UNL     1     -10.884  14.389  68.934  1.00  0.00    -0.256 Cl 
HETATM    2  C   UNL     1     -11.082  14.843  67.221  1.00  0.00    -0.336 C  
HETATM    3  C   UNL     1      -9.779  14.683  66.446  1.00  0.00    -0.295 C  
ENDROOT
BRANCH   3   4
HETATM    4  N   UNL     1      -8.680  15.466  66.998  1.00  0.00    -0.211 N  
HETATM    5  H   UNL     1      -7.922  14.997  67.493  1.00  0.00     0.000 HD 
BRANCH   4   6
HETATM    6  C   UNL     1      -8.662  16.838  66.853  1.00  0.00    -0.216 C  
HETATM    7  O   UNL     1      -8.495  17.332  65.737  1.00  0.00    -0.532 OA 
BRANCH   6   8
HETATM    8  N   UNL     1      -8.812  17.578  68.024  1.00  0.00    -0.251 N  
BRANCH   8   9
HETATM    9  C   UNL     1     -10.066  18.154  68.531  1.00  0.00    -0.400 C  
HETATM   10 CL   UNL     1     -10.333  20.128  66.641  1.00  0.00    -0.554 Cl 
HETATM   11  C   UNL     1     -10.146  19.670  68.355  1.00  0.00    -0.449 C  
ENDBRANCH   8   9
BRANCH   8  12
HETATM   12  N   UNL     1      -7.624  17.782  68.755  1.00  0.00    -0.276 NA 
HETATM   13  H   UNL     1      -7.115  16.904  68.859  1.00  0.00     0.000 HD 
HETATM   14  H   UNL     1      -6.085  18.794  68.783  1.00  0.00     0.000 HD 
HETATM   15  O   UNL     1      -6.885  18.657  68.291  1.00  0.00    -0.230 OA 
ENDBRANCH   8  12
ENDBRANCH   6   8
ENDBRANCH   4   6
ENDBRANCH   3   4
TORSDOF 5
ENDMDL
MODEL      124
REMARK 921   NORMALIZED FREE ENERGY PREDICTED BY IDOCK:   -3.36 KCAL/MOL
REMARK 922        TOTAL FREE ENERGY PREDICTED BY IDOCK:   -4.42 KCAL/MOL
REMARK 923 INTER-LIGAND FREE ENERGY PREDICTED BY IDOCK:   -3.90 KCAL/MOL
REMARK 924 INTRA-LIGAND FREE ENERGY PREDICTED BY IDOCK:   -0.53 KCAL/MOL
REMARK 927      BINDING AFFINITY PREDICTED BY RF-SCORE:    0.00 PKD
ROOT
HETATM    1 CL   UNL     1      -8.090  16.326  67.953  1.00  0.00    -0.148 Cl 
HETATM    2  C   UNL     1      -8.211  16.594  66.195  1.00  0.00    -0.260 C  
HETATM    3  C   UNL     1      -9.576  16.180  65.658  1.00  0.00    -0.150 C  
ENDROOT
BRANCH   3   4
HETATM    4  N   UNL     1      -9.902  14.785  65.926  1.00  0.00    -0.320 N  
HETATM    5  H   UNL     1      -9.314  14.045  65.544  1.00  0.00     0.000 HD 
BRANCH   4   6
HETATM    6  C   UNL     1     -11.003  14.462  66.693  1.00  0.00    -0.318 C  
HETATM    7  O   UNL     1     -11.377  15.233  67.578  1.00  0.00    -0.331 OA 
BRANCH   6   8
HETATM    8  N   UNL     1     -11.606  13.238  66.410  1.00  0.00    -0.331 N  
BRANCH   8   9
HETATM    9  C   UNL     1     -11.176  11.924  66.910  1.00  0.00    -0.325 C  
HETATM   10 CL   UNL     1     -11.949  12.272  69.522  1.00  0.00    -0.354 Cl 
HETATM   11  C   UNL     1     -10.646  11.968  68.342  1.00  0.00    -0.217 C  
ENDBRANCH   8   9
BRANCH   8  12
HETATM   12  N   UNL     1     -12.719  13.310  65.549  1.00  0.00    -0.497 NA 
HETATM   13  H   UNL     1     -13.580  13.118  66.063  1.00  0.00     0.000 HD 
HETATM   14  H   UNL     1     -13.565  14.422  64.347  1.00  0.00     0.000 HD 
HETATM   15  O   UNL     1     -12.815  14.374  64.928  1.00  0.00    -0.645 OA 
ENDBRANCH   8  12
ENDBRANCH   6   8
ENDBRANCH   4   6
ENDBRANCH   3   4
TORSDOF 5
ENDMDL
MODEL      125
REMARK 921   NORMALIZED FREE ENERGY PREDICTED BY IDOCK:   -3.36 KCAL/MOL
REMARK 922        TOTAL FREE ENERGY PREDICTED BY IDOCK:   -4.42 KCAL/MOL
REMARK 923 INTER-LIGAND FREE ENERGY PREDICTED BY IDOCK:   -3.91 KCAL/MOL
REMARK 924 INTRA-LIGAND FREE ENERGY PREDICTED BY IDOCK:   -0.51 KCAL/MOL
REMARK 927      BINDING AFFINITY PREDICTED BY RF-SCORE:    0.00 PKD
ROOT
HETATM    1 CL   UNL     1     -10.203  10.809  64.485  1.00  0.00    -0.415 Cl 
HETATM    2  C   UNL     1     -10.851  12.276  63.707  1.00  0.00    -0.442 C  
HETATM    3  C   UNL     1     -10.665  13.506  64.588  1.00  0.00    -0.416 C  
ENDROOT
BRANCH   3   4
HETATM    4  N   UNL     1     -11.289  13.376  65.898  1.00  0.00    -0.305 N  
HETATM    5  H   UNL     1     -12.019  12.679  66.046  1.00  0.00     0.000 HD 
BRANCH   4   6
HETATM    6  C   UNL     1     -10.898  14.192  66.940  1.00  0.00    -0.296 C  
HETATM    7  O   UNL     1     -10.565  15.356  66.711  1.00  0.00    -0.298 OA 
BRANCH   6   8
HETATM    8  N   UNL     1     -10.886  13.606  68.203  1.00  0.00    -0.240 N  
BRANCH   8   9
HETATM    9  C   UNL     1     -12.026  13.512  69.127  1.00  0.00    -0.333 C  
HETATM   10 CL   UNL     1     -11.700  15.956  70.336  1.00  0.00    -0.361 Cl 
HETATM   11  C   UNL     1     -11.763  14.178  70.476  1.00  0.00    -0.216 C  
ENDBRANCH   8   9
BRANCH   8  12
HETATM   12  N   UNL     1      -9.640  13.079  68.602  1.00  0.00    -0.407 NA 
HETATM   13  H   UNL     1      -9.717  12.639  69.518  1.00  0.00     0.000 HD 
HETATM   14  H   UNL     1      -8.294  11.944  68.056  1.00  0.00     0.000 HD 
HETATM   15  O   UNL     1      -9.134  12.299  67.788  1.00  0.00    -0.176 OA 
ENDBRANCH   8  12
ENDBRANCH   6   8
ENDBRANCH   4   6
ENDBRANCH   3   4
TORSDOF 5
ENDMDL
MODEL      126
REMARK 921   NORMALIZED FREE ENERGY PREDICTED BY IDOCK:   -3.35 KCAL/MOL
REMARK 922        TOTAL FREE ENERGY PREDICTED BY IDOCK:   -4.42 KCAL/MOL
REMARK 923 INTER-LIGAND FREE ENERGY PREDICTED BY IDOCK:   -3.97 KCAL/MOL
REMARK 924 INTRA-LIGAND FREE ENERGY PREDICTED BY IDOCK:   -0.45 KCAL/MOL
REMARK 927      BINDING AFFINITY PREDICTED BY RF-SCORE:    0.00 PKD
ROOT
HETATM    1 CL   UNL     1     -11.259   3.485  73.473  1.00  0.00    -0.318 Cl 
HETATM    2  C   UNL     1      -9.863   4.510  73.896  1.00  0.00    -0.146 C  
HETATM    3  C   UNL     1     -10.305   5.894  74.357  1.00  0.00    -0.251 C  
ENDROOT
BRANCH   3   4
HETATM    4  N   UNL     1     -11.103   6.604  73.366  1.00  0.00    -0.495 N  
HETATM    5  H   UNL     1     -12.019   6.243  73.098  1.00  0.00     0.000 HD 
BRANCH   4   6
HETATM    6  C   UNL     1     -10.625   7.762  72.786  1.00  0.00    -0.341 C  
HETATM    7  O   UNL     1      -9.572   8.257  73.192  1.00  0.00    -0.255 OA 
BRANCH   6   8
HETATM    8  N   UNL     1     -11.412   8.309  71.775  1.00  0.00    -0.275 N  
BRANCH   8   9
HETATM    9  C   UNL     1     -11.106   9.516  70.993  1.00  0.00    -0.363 C  
HETATM   10 CL   UNL     1     -13.060  11.126  72.055  1.00  0.00    -0.554 Cl 
HETATM   11  C   UNL     1     -12.347  10.327  70.628  1.00  0.00    -0.325 C  
ENDBRANCH   8   9
BRANCH   8  12
HETATM   12  N   UNL     1     -12.613   7.617  71.519  1.00  0.00    -0.333 NA 
HETATM   13  H   UNL     1     -13.313   8.251  71.131  1.00  0.00     0.000 HD 
HETATM   14  H   UNL     1     -13.294   6.156  70.625  1.00  0.00     0.000 HD 
HETATM   15  O   UNL     1     -12.485   6.622  70.797  1.00  0.00    -0.314 OA 
ENDBRANCH   8  12
ENDBRANCH   6   8
ENDBRANCH   4   6
ENDBRANCH   3   4
TORSDOF 5
ENDMDL
MODEL      127
REMARK 921   NORMALIZED FREE ENERGY PREDICTED BY IDOCK:   -3.35 KCAL/MOL
REMARK 922        TOTAL FREE ENERGY PREDICTED BY IDOCK:   -4.41 KCAL/MOL
REMARK 923 INTER-LIGAND FREE ENERGY PREDICTED BY IDOCK:   -4.21 KCAL/MOL
REMARK 924 INTRA-LIGAND FREE ENERGY PREDICTED BY IDOCK:   -0.20 KCAL/MOL
REMARK 927      BINDING AFFINITY PREDICTED BY RF-SCORE:    0.00 PKD
ROOT
HETATM    1 CL   UNL     1     -12.617  10.542  71.359  1.00  0.00    -0.510 Cl 
HETATM    2  C   UNL     1     -13.399   9.126  72.109  1.00  0.00    -0.463 C  
HETATM    3  C   UNL     1     -12.595   7.853  71.874  1.00  0.00    -0.319 C  
ENDROOT
BRANCH   3   4
HETATM    4  N   UNL     1     -12.382   7.557  70.463  1.00  0.00    -0.527 N  
HETATM    5  H   UNL     1     -13.049   7.894  69.768  1.00  0.00     0.000 HD 
BRANCH   4   6
HETATM    6  C   UNL     1     -11.284   6.824  70.062  1.00  0.00    -0.328 C  
HETATM    7  O   UNL     1     -11.045   5.741  70.600  1.00  0.00    -0.278 OA 
BRANCH   6   8
HETATM    8  N   UNL     1     -10.495   7.399  69.069  1.00  0.00    -0.211 N  
BRANCH   8   9
HETATM    9  C   UNL     1      -9.112   7.874  69.224  1.00  0.00    -0.148 C  
HETATM   10 CL   UNL     1      -9.345   8.793  71.801  1.00  0.00    -0.346 Cl 
HETATM   11  C   UNL     1      -9.001   9.131  70.084  1.00  0.00    -0.198 C  
ENDBRANCH   8   9
BRANCH   8  12
HETATM   12  N   UNL     1     -11.125   7.534  67.815  1.00  0.00    -0.495 NA 
HETATM   13  H   UNL     1     -10.663   8.255  67.260  1.00  0.00     0.000 HD 
HETATM   14  H   UNL     1     -11.636   6.574  66.327  1.00  0.00     0.000 HD 
HETATM   15  O   UNL     1     -11.211   6.483  67.172  1.00  0.00    -0.388 OA 
ENDBRANCH   8  12
ENDBRANCH   6   8
ENDBRANCH   4   6
ENDBRANCH   3   4
TORSDOF 5
ENDMDL
MODEL      128
REMARK 921   NORMALIZED FREE ENERGY PREDICTED BY IDOCK:   -3.35 KCAL/MOL
REMARK 922        TOTAL FREE ENERGY PREDICTED BY IDOCK:   -4.41 KCAL/MOL
REMARK 923 INTER-LIGAND FREE ENERGY PREDICTED BY IDOCK:   -3.95 KCAL/MOL
REMARK 924 INTRA-LIGAND FREE ENERGY PREDICTED BY IDOCK:   -0.46 KCAL/MOL
REMARK 927      BINDING AFFINITY PREDICTED BY RF-SCORE:    0.00 PKD
ROOT
HETATM    1 CL   UNL     1     -11.821  15.324  71.922  1.00  0.00    -0.450 Cl 
HETATM    2  C   UNL     1     -11.641  15.811  70.217  1.00  0.00    -0.365 C  
HETATM    3  C   UNL     1     -11.874  14.637  69.272  1.00  0.00    -0.321 C  
ENDROOT
BRANCH   3   4
HETATM    4  N   UNL     1     -10.981  13.513  69.519  1.00  0.00    -0.452 N  
HETATM    5  H   UNL     1     -10.780  13.224  70.476  1.00  0.00     0.000 HD 
BRANCH   4   6
HETATM    6  C   UNL     1     -10.404  12.837  68.462  1.00  0.00    -0.221 C  
HETATM    7  O   UNL     1      -9.183  12.882  68.303  1.00  0.00    -0.204 OA 
BRANCH   6   8
HETATM    8  N   UNL     1     -11.282  12.157  67.621  1.00  0.00    -0.266 N  
BRANCH   8   9
HETATM    9  C   UNL     1     -11.581  12.497  66.222  1.00  0.00    -0.394 C  
HETATM   10 CL   UNL     1     -10.575  10.209  65.084  1.00  0.00     0.014 Cl 
HETATM   11  C   UNL     1     -10.527  11.986  65.241  1.00  0.00    -0.284 C  
ENDBRANCH   8   9
BRANCH   8  12
HETATM   12  N   UNL     1     -11.936  11.056  68.209  1.00  0.00    -0.757 NA 
HETATM   13  H   UNL     1     -11.959  10.268  67.562  1.00  0.00     0.000 HD 
HETATM   14  H   UNL     1     -11.906   9.965  69.694  1.00  0.00     0.000 HD 
HETATM   15  O   UNL     1     -11.465  10.706  69.297  1.00  0.00    -0.252 OA 
ENDBRANCH   8  12
ENDBRANCH   6   8
ENDBRANCH   4   6
ENDBRANCH   3   4
TORSDOF 5
ENDMDL
MODEL      129
REMARK 921   NORMALIZED FREE ENERGY PREDICTED BY IDOCK:   -3.34 KCAL/MOL
REMARK 922        TOTAL FREE ENERGY PREDICTED BY IDOCK:   -4.40 KCAL/MOL
REMARK 923 INTER-LIGAND FREE ENERGY PREDICTED BY IDOCK:   -3.97 KCAL/MOL
REMARK 924 INTRA-LIGAND FREE ENERGY PREDICTED BY IDOCK:   -0.43 KCAL/MOL
REMARK 927      BINDING AFFINITY PREDICTED BY RF-SCORE:    0.00 PKD
ROOT
HETATM    1 CL   UNL     1     -11.546  15.907  64.356  1.00  0.00    -0.340 Cl 
HETATM    2  C   UNL     1     -12.222  14.259  64.276  1.00  0.00    -0.423 C  
HETATM    3  C   UNL     1     -12.916  13.875  65.578  1.00  0.00    -0.332 C  
ENDROOT
BRANCH   3   4
HETATM    4  N   UNL     1     -12.041  13.948  66.741  1.00  0.00    -0.439 N  
HETATM    5  H   UNL     1     -11.890  14.843  67.206  1.00  0.00     0.000 HD 
BRANCH   4   6
HETATM    6  C   UNL     1     -11.417  12.813  67.216  1.00  0.00    -0.337 C  
HETATM    7  O   UNL     1     -11.791  12.309  68.275  1.00  0.00    -0.331 OA 
BRANCH   6   8
HETATM    8  N   UNL     1     -10.362  12.329  66.445  1.00  0.00    -0.222 N  
BRANCH   8   9
HETATM    9  C   UNL     1     -10.284  11.003  65.816  1.00  0.00    -0.260 C  
HETATM   10 CL   UNL     1      -9.833  11.861  63.246  1.00  0.00    -0.409 Cl 
HETATM   11  C   UNL     1     -10.862  10.973  64.402  1.00  0.00    -0.192 C  
ENDBRANCH   8   9
BRANCH   8  12
HETATM   12  N   UNL     1      -9.281  13.222  66.291  1.00  0.00    -0.461 NA 
HETATM   13  H   UNL     1      -9.153  13.459  65.308  1.00  0.00     0.000 HD 
HETATM   14  H   UNL     1      -8.638  14.848  66.872  1.00  0.00     0.000 HD 
HETATM   15  O   UNL     1      -9.366  14.247  66.976  1.00  0.00    -0.221 OA 
ENDBRANCH   8  12
ENDBRANCH   6   8
ENDBRANCH   4   6
ENDBRANCH   3   4
TORSDOF 5
ENDMDL
MODEL      130
REMARK 921   NORMALIZED FREE ENERGY PREDICTED BY IDOCK:   -3.33 KCAL/MOL
REMARK 922        TOTAL FREE ENERGY PREDICTED BY IDOCK:   -4.39 KCAL/MOL
REMARK 923 INTER-LIGAND FREE ENERGY PREDICTED BY IDOCK:   -3.90 KCAL/MOL
REMARK 924 INTRA-LIGAND FREE ENERGY PREDICTED BY IDOCK:   -0.49 KCAL/MOL
REMARK 927      BINDING AFFINITY PREDICTED BY RF-SCORE:    0.00 PKD
ROOT
HETATM    1 CL   UNL     1     -11.380   4.688  73.207  1.00  0.00    -0.407 Cl 
HETATM    2  C   UNL     1     -10.212   5.980  72.827  1.00  0.00    -0.188 C  
HETATM    3  C   UNL     1     -10.665   7.325  73.382  1.00  0.00    -0.369 C  
ENDROOT
BRANCH   3   4
HETATM    4  N   UNL     1     -11.973   7.740  72.892  1.00  0.00    -0.609 N  
HETATM    5  H   UNL     1     -12.716   7.963  73.554  1.00  0.00     0.000 HD 
BRANCH   4   6
HETATM    6  C   UNL     1     -12.212   7.831  71.536  1.00  0.00    -0.318 C  
HETATM    7  O   UNL     1     -12.949   7.009  70.990  1.00  0.00    -0.326 OA 
BRANCH   6   8
HETATM    8  N   UNL     1     -11.558   8.865  70.869  1.00  0.00    -0.283 N  
BRANCH   8   9
HETATM    9  C   UNL     1     -10.630   8.719  69.738  1.00  0.00    -0.224 C  
HETATM   10 CL   UNL     1      -8.302   9.077  71.148  1.00  0.00    -0.225 Cl 
HETATM   11  C   UNL     1      -9.400   9.617  69.851  1.00  0.00    -0.228 C  
ENDBRANCH   8   9
BRANCH   8  12
HETATM   12  N   UNL     1     -11.828  10.157  71.367  1.00  0.00    -0.359 NA 
HETATM   13  H   UNL     1     -11.006  10.753  71.273  1.00  0.00     0.000 HD 
HETATM   14  H   UNL     1     -12.998  11.570  71.199  1.00  0.00     0.000 HD 
HETATM   15  O   UNL     1     -12.816  10.701  70.863  1.00  0.00    -0.363 OA 
ENDBRANCH   8  12
ENDBRANCH   6   8
ENDBRANCH   4   6
ENDBRANCH   3   4
TORSDOF 5
ENDMDL
MODEL      131
REMARK 921   NORMALIZED FREE ENERGY PREDICTED BY IDOCK:   -3.33 KCAL/MOL
REMARK 922        TOTAL FREE ENERGY PREDICTED BY IDOCK:   -4.38 KCAL/MOL
REMARK 923 INTER-LIGAND FREE ENERGY PREDICTED BY IDOCK:   -3.87 KCAL/MOL
REMARK 924 INTRA-LIGAND FREE ENERGY PREDICTED BY IDOCK:   -0.52 KCAL/MOL
REMARK 927      BINDING AFFINITY PREDICTED BY RF-SCORE:    0.00 PKD
ROOT
HETATM    1 CL   UNL     1     -11.119  14.034  69.271  1.00  0.00    -0.280 Cl 
HETATM    2  C   UNL     1     -10.994  15.538  70.221  1.00  0.00    -0.334 C  
HETATM    3  C   UNL     1     -10.721  16.743  69.328  1.00  0.00    -0.324 C  
ENDROOT
BRANCH   3   4
HETATM    4  N   UNL     1      -9.508  16.608  68.533  1.00  0.00    -0.231 N  
HETATM    5  H   UNL     1      -9.149  15.680  68.307  1.00  0.00     0.000 HD 
BRANCH   4   6
HETATM    6  C   UNL     1      -8.841  17.730  68.085  1.00  0.00    -0.267 C  
HETATM    7  O   UNL     1      -8.675  18.685  68.845  1.00  0.00    -0.281 OA 
BRANCH   6   8
HETATM    8  N   UNL     1      -8.417  17.700  66.758  1.00  0.00    -0.241 N  
BRANCH   8   9
HETATM    9  C   UNL     1      -7.057  17.977  66.274  1.00  0.00    -0.272 C  
HETATM   10 CL   UNL     1      -7.130  20.706  66.573  1.00  0.00    -0.299 Cl 
HETATM   11  C   UNL     1      -6.950  19.291  65.501  1.00  0.00    -0.232 C  
ENDBRANCH   8   9
BRANCH   8  12
HETATM   12  N   UNL     1      -9.423  17.383  65.822  1.00  0.00    -0.519 NA 
HETATM   13  H   UNL     1      -9.739  16.422  65.950  1.00  0.00     0.000 HD 
HETATM   14  H   UNL     1     -11.062  17.945  65.195  1.00  0.00     0.000 HD 
HETATM   15  O   UNL     1     -10.385  18.158  65.826  1.00  0.00    -0.586 OA 
ENDBRANCH   8  12
ENDBRANCH   6   8
ENDBRANCH   4   6
ENDBRANCH   3   4
TORSDOF 5
ENDMDL
MODEL      132
REMARK 921   NORMALIZED FREE ENERGY PREDICTED BY IDOCK:   -3.33 KCAL/MOL
REMARK 922        TOTAL FREE ENERGY PREDICTED BY IDOCK:   -4.38 KCAL/MOL
REMARK 923 INTER-LIGAND FREE ENERGY PREDICTED BY IDOCK:   -3.89 KCAL/MOL
REMARK 924 INTRA-LIGAND FREE ENERGY PREDICTED BY IDOCK:   -0.50 KCAL/MOL
REMARK 927      BINDING AFFINITY PREDICTED BY RF-SCORE:    0.00 PKD
ROOT
HETATM    1 CL   UNL     1     -12.282  14.686  64.423  1.00  0.00    -0.511 Cl 
HETATM    2  C   UNL     1     -12.159  13.277  63.338  1.00  0.00    -0.439 C  
HETATM    3  C   UNL     1     -12.119  11.969  64.121  1.00  0.00    -0.362 C  
ENDROOT
BRANCH   3   4
HETATM    4  N   UNL     1     -11.020  11.902  65.075  1.00  0.00    -0.306 N  
HETATM    5  H   UNL     1     -10.057  11.937  64.743  1.00  0.00     0.000 HD 
BRANCH   4   6
HETATM    6  C   UNL     1     -11.277  11.792  66.426  1.00  0.00    -0.323 C  
HETATM    7  O   UNL     1     -12.233  12.395  66.917  1.00  0.00    -0.527 OA 
BRANCH   6   8
HETATM    8  N   UNL     1     -10.390  11.002  67.154  1.00  0.00    -0.210 N  
BRANCH   8   9
HETATM    9  C   UNL     1     -10.710   9.739  67.837  1.00  0.00    -0.258 C  
HETATM   10 CL   UNL     1     -12.283  10.804  69.820  1.00  0.00    -0.384 Cl 
HETATM   11  C   UNL     1     -10.825   9.888  69.352  1.00  0.00    -0.237 C  
ENDBRANCH   8   9
BRANCH   8  12
HETATM   12  N   UNL     1      -9.074  11.503  67.231  1.00  0.00    -0.162 NA 
HETATM   13  H   UNL     1      -8.647  11.245  68.120  1.00  0.00     0.000 HD 
HETATM   14  H   UNL     1      -7.461  11.509  66.341  1.00  0.00     0.000 HD 
HETATM   15  O   UNL     1      -8.347  11.170  66.289  1.00  0.00    -0.168 OA 
ENDBRANCH   8  12
ENDBRANCH   6   8
ENDBRANCH   4   6
ENDBRANCH   3   4
TORSDOF 5
ENDMDL
MODEL      133
REMARK 921   NORMALIZED FREE ENERGY PREDICTED BY IDOCK:   -3.32 KCAL/MOL
REMARK 922        TOTAL FREE ENERGY PREDICTED BY IDOCK:   -4.37 KCAL/MOL
REMARK 923 INTER-LIGAND FREE ENERGY PREDICTED BY IDOCK:   -3.80 KCAL/MOL
REMARK 924 INTRA-LIGAND FREE ENERGY PREDICTED BY IDOCK:   -0.57 KCAL/MOL
REMARK 927      BINDING AFFINITY PREDICTED BY RF-SCORE:    0.00 PKD
ROOT
HETATM    1 CL   UNL     1      -9.765  10.352  69.595  1.00  0.00    -0.202 Cl 
HETATM    2  C   UNL     1     -11.536  10.523  69.475  1.00  0.00    -0.272 C  
HETATM    3  C   UNL     1     -12.167  10.776  70.839  1.00  0.00    -0.384 C  
ENDROOT
BRANCH   3   4
HETATM    4  N   UNL     1     -11.879   9.729  71.811  1.00  0.00    -0.347 N  
HETATM    5  H   UNL     1     -11.146   9.870  72.506  1.00  0.00     0.000 HD 
BRANCH   4   6
HETATM    6  C   UNL     1     -12.593   8.548  71.794  1.00  0.00    -0.346 C  
HETATM    7  O   UNL     1     -13.787   8.562  71.490  1.00  0.00    -0.364 OA 
BRANCH   6   8
HETATM    8  N   UNL     1     -11.888   7.403  72.159  1.00  0.00    -0.289 N  
BRANCH   8   9
HETATM    9  C   UNL     1     -11.634   6.232  71.308  1.00  0.00    -0.274 C  
HETATM   10 CL   UNL     1      -9.139   6.971  70.431  1.00  0.00    -0.156 Cl 
HETATM   11  C   UNL     1     -10.834   6.565  70.050  1.00  0.00    -0.287 C  
ENDBRANCH   8   9
BRANCH   8  12
HETATM   12  N   UNL     1     -11.402   7.402  73.483  1.00  0.00    -0.558 NA 
HETATM   13  H   UNL     1     -11.783   6.610  74.001  1.00  0.00     0.000 HD 
HETATM   14  H   UNL     1      -9.843   7.425  74.465  1.00  0.00     0.000 HD 
HETATM   15  O   UNL     1     -10.170   7.425  73.573  1.00  0.00    -0.320 OA 
ENDBRANCH   8  12
ENDBRANCH   6   8
ENDBRANCH   4   6
ENDBRANCH   3   4
TORSDOF 5
ENDMDL
MODEL      134
REMARK 921   NORMALIZED FREE ENERGY PREDICTED BY IDOCK:   -3.31 KCAL/MOL
REMARK 922        TOTAL FREE ENERGY PREDICTED BY IDOCK:   -4.36 KCAL/MOL
REMARK 923 INTER-LIGAND FREE ENERGY PREDICTED BY IDOCK:   -4.06 KCAL/MOL
REMARK 924 INTRA-LIGAND FREE ENERGY PREDICTED BY IDOCK:   -0.30 KCAL/MOL
REMARK 927      BINDING AFFINITY PREDICTED BY RF-SCORE:    0.00 PKD
ROOT
HETATM    1 CL   UNL     1     -10.515   7.344  67.265  1.00  0.00    -0.354 Cl 
HETATM    2  C   UNL     1      -8.923   7.970  66.761  1.00  0.00    -0.144 C  
HETATM    3  C   UNL     1      -8.961   9.476  66.531  1.00  0.00    -0.148 C  
ENDROOT
BRANCH   3   4
HETATM    4  N   UNL     1      -9.943   9.883  65.534  1.00  0.00    -0.312 N  
HETATM    5  H   UNL     1     -10.558   9.186  65.114  1.00  0.00     0.000 HD 
BRANCH   4   6
HETATM    6  C   UNL     1     -10.043  11.206  65.154  1.00  0.00    -0.281 C  
HETATM    7  O   UNL     1      -9.300  12.045  65.665  1.00  0.00    -0.190 OA 
BRANCH   6   8
HETATM    8  N   UNL     1     -11.026  11.497  64.210  1.00  0.00    -0.347 N  
BRANCH   8   9
HETATM    9  C   UNL     1     -12.337  12.104  64.482  1.00  0.00    -0.307 C  
HETATM   10 CL   UNL     1     -11.493  14.714  64.617  1.00  0.00    -0.398 Cl 
HETATM   11  C   UNL     1     -12.259  13.313  65.413  1.00  0.00    -0.456 C  
ENDBRANCH   8   9
BRANCH   8  12
HETATM   12  N   UNL     1     -10.698  11.147  62.884  1.00  0.00    -0.804 NA 
HETATM   13  H   UNL     1     -11.166  11.770  62.226  1.00  0.00     0.000 HD 
HETATM   14  H   UNL     1      -9.265  10.870  61.760  1.00  0.00     0.000 HD 
HETATM   15  O   UNL     1      -9.485  11.107  62.653  1.00  0.00    -0.322 OA 
ENDBRANCH   8  12
ENDBRANCH   6   8
ENDBRANCH   4   6
ENDBRANCH   3   4
TORSDOF 5
ENDMDL
MODEL      135
REMARK 921   NORMALIZED FREE ENERGY PREDICTED BY IDOCK:   -3.31 KCAL/MOL
REMARK 922        TOTAL FREE ENERGY PREDICTED BY IDOCK:   -4.35 KCAL/MOL
REMARK 923 INTER-LIGAND FREE ENERGY PREDICTED BY IDOCK:   -3.86 KCAL/MOL
REMARK 924 INTRA-LIGAND FREE ENERGY PREDICTED BY IDOCK:   -0.49 KCAL/MOL
REMARK 927      BINDING AFFINITY PREDICTED BY RF-SCORE:    0.00 PKD
ROOT
HETATM    1 CL   UNL     1     -10.217   8.510  68.994  1.00  0.00    -0.211 Cl 
HETATM    2  C   UNL     1      -8.809   8.537  67.901  1.00  0.00    -0.137 C  
HETATM    3  C   UNL     1      -8.870   9.717  66.938  1.00  0.00    -0.138 C  
ENDROOT
BRANCH   3   4
HETATM    4  N   UNL     1     -10.077   9.733  66.122  1.00  0.00    -0.260 N  
HETATM    5  H   UNL     1     -10.722   8.943  66.153  1.00  0.00     0.000 HD 
BRANCH   4   6
HETATM    6  C   UNL     1     -10.352  10.811  65.305  1.00  0.00    -0.258 C  
HETATM    7  O   UNL     1     -10.144  10.727  64.094  1.00  0.00    -0.315 OA 
BRANCH   6   8
HETATM    8  N   UNL     1     -10.833  11.952  65.942  1.00  0.00    -0.287 N  
BRANCH   8   9
HETATM    9  C   UNL     1     -10.219  13.288  65.912  1.00  0.00    -0.293 C  
HETATM   10 CL   UNL     1     -12.273  14.588  64.635  1.00  0.00    -0.480 Cl 
HETATM   11  C   UNL     1     -10.563  14.079  64.651  1.00  0.00    -0.395 C  
ENDBRANCH   8   9
BRANCH   8  12
HETATM   12  N   UNL     1     -12.014  11.762  66.689  1.00  0.00    -0.499 NA 
HETATM   13  H   UNL     1     -12.637  11.111  66.210  1.00  0.00     0.000 HD 
HETATM   14  H   UNL     1     -12.622  11.272  68.358  1.00  0.00     0.000 HD 
HETATM   15  O   UNL     1     -11.826  11.400  67.855  1.00  0.00    -0.588 OA 
ENDBRANCH   8  12
ENDBRANCH   6   8
ENDBRANCH   4   6
ENDBRANCH   3   4
TORSDOF 5
ENDMDL
MODEL      136
REMARK 921   NORMALIZED FREE ENERGY PREDICTED BY IDOCK:   -3.29 KCAL/MOL
REMARK 922        TOTAL FREE ENERGY PREDICTED BY IDOCK:   -4.34 KCAL/MOL
REMARK 923 INTER-LIGAND FREE ENERGY PREDICTED BY IDOCK:   -3.71 KCAL/MOL
REMARK 924 INTRA-LIGAND FREE ENERGY PREDICTED BY IDOCK:   -0.63 KCAL/MOL
REMARK 927      BINDING AFFINITY PREDICTED BY RF-SCORE:    0.00 PKD
ROOT
HETATM    1 CL   UNL     1     -14.345   7.602  71.539  1.00  0.00    -0.572 Cl 
HETATM    2  C   UNL     1     -13.010   8.496  72.313  1.00  0.00    -0.341 C  
HETATM    3  C   UNL     1     -12.654   9.755  71.533  1.00  0.00    -0.398 C  
ENDROOT
BRANCH   3   4
HETATM    4  N   UNL     1     -12.278   9.489  70.150  1.00  0.00    -0.445 N  
HETATM    5  H   UNL     1     -13.001   9.340  69.447  1.00  0.00     0.000 HD 
BRANCH   4   6
HETATM    6  C   UNL     1     -10.947   9.438  69.787  1.00  0.00    -0.215 C  
HETATM    7  O   UNL     1     -10.327  10.484  69.593  1.00  0.00    -0.231 OA 
BRANCH   6   8
HETATM    8  N   UNL     1     -10.403   8.163  69.641  1.00  0.00    -0.217 N  
BRANCH   8   9
HETATM    9  C   UNL     1      -9.037   7.757  70.000  1.00  0.00    -0.150 C  
HETATM   10 CL   UNL     1      -7.754   8.930  67.875  1.00  0.00    -0.100 Cl 
HETATM   11  C   UNL     1      -8.162   7.452  68.785  1.00  0.00    -0.129 C  
ENDBRANCH   8   9
BRANCH   8  12
HETATM   12  N   UNL     1     -11.274   7.207  69.079  1.00  0.00    -0.476 NA 
HETATM   13  H   UNL     1     -10.848   6.777  68.258  1.00  0.00     0.000 HD 
HETATM   14  H   UNL     1     -12.244   5.696  69.492  1.00  0.00     0.000 HD 
HETATM   15  O   UNL     1     -11.657   6.340  69.871  1.00  0.00    -0.435 OA 
ENDBRANCH   8  12
ENDBRANCH   6   8
ENDBRANCH   4   6
ENDBRANCH   3   4
TORSDOF 5
ENDMDL
MODEL      137
REMARK 921   NORMALIZED FREE ENERGY PREDICTED BY IDOCK:   -3.29 KCAL/MOL
REMARK 922        TOTAL FREE ENERGY PREDICTED BY IDOCK:   -4.34 KCAL/MOL
REMARK 923 INTER-LIGAND FREE ENERGY PREDICTED BY IDOCK:   -3.84 KCAL/MOL
REMARK 924 INTRA-LIGAND FREE ENERGY PREDICTED BY IDOCK:   -0.50 KCAL/MOL
REMARK 927      BINDING AFFINITY PREDICTED BY RF-SCORE:    0.00 PKD
ROOT
HETATM    1 CL   UNL     1     -13.364   9.812  72.093  1.00  0.00    -0.538 Cl 
HETATM    2  C   UNL     1     -14.294   8.308  71.865  1.00  0.00    -0.476 C  
HETATM    3  C   UNL     1     -13.377   7.114  71.629  1.00  0.00    -0.331 C  
ENDROOT
BRANCH   3   4
HETATM    4  N   UNL     1     -12.498   7.280  70.479  1.00  0.00    -0.589 N  
HETATM    5  H   UNL     1     -12.816   7.813  69.670  1.00  0.00     0.000 HD 
BRANCH   4   6
HETATM    6  C   UNL     1     -11.237   6.719  70.479  1.00  0.00    -0.320 C  
HETATM    7  O   UNL     1     -11.047   5.647  71.056  1.00  0.00    -0.233 OA 
BRANCH   6   8
HETATM    8  N   UNL     1     -10.245   7.447  69.828  1.00  0.00    -0.204 N  
BRANCH   8   9
HETATM    9  C   UNL     1      -9.652   7.130  68.520  1.00  0.00    -0.139 C  
HETATM   10 CL   UNL     1     -10.665   9.280  67.146  1.00  0.00    -0.288 Cl 
HETATM   11  C   UNL     1     -10.549   7.511  67.345  1.00  0.00    -0.294 C  
ENDBRANCH   8   9
BRANCH   8  12
HETATM   12  N   UNL     1      -9.782   8.580  70.529  1.00  0.00    -0.173 NA 
HETATM   13  H   UNL     1      -8.809   8.772  70.293  1.00  0.00     0.000 HD 
HETATM   14  H   UNL     1     -10.161  10.355  70.846  1.00  0.00     0.000 HD 
HETATM   15  O   UNL     1     -10.473   9.592  70.373  1.00  0.00    -0.253 OA 
ENDBRANCH   8  12
ENDBRANCH   6   8
ENDBRANCH   4   6
ENDBRANCH   3   4
TORSDOF 5
ENDMDL
MODEL      138
REMARK 921   NORMALIZED FREE ENERGY PREDICTED BY IDOCK:   -3.29 KCAL/MOL
REMARK 922        TOTAL FREE ENERGY PREDICTED BY IDOCK:   -4.33 KCAL/MOL
REMARK 923 INTER-LIGAND FREE ENERGY PREDICTED BY IDOCK:   -3.84 KCAL/MOL
REMARK 924 INTRA-LIGAND FREE ENERGY PREDICTED BY IDOCK:   -0.49 KCAL/MOL
REMARK 927      BINDING AFFINITY PREDICTED BY RF-SCORE:    0.00 PKD
ROOT
HETATM    1 CL   UNL     1     -12.472  14.826  70.279  1.00  0.00    -0.393 Cl 
HETATM    2  C   UNL     1     -10.978  15.271  69.414  1.00  0.00    -0.271 C  
HETATM    3  C   UNL     1     -10.562  14.190  68.423  1.00  0.00    -0.259 C  
ENDROOT
BRANCH   3   4
HETATM    4  N   UNL     1     -10.354  12.888  69.044  1.00  0.00    -0.436 N  
HETATM    5  H   UNL     1     -10.604  12.747  70.023  1.00  0.00     0.000 HD 
BRANCH   4   6
HETATM    6  C   UNL     1      -9.820  11.846  68.314  1.00  0.00    -0.199 C  
HETATM    7  O   UNL     1      -8.726  11.983  67.766  1.00  0.00    -0.147 OA 
BRANCH   6   8
HETATM    8  N   UNL     1     -10.601  10.695  68.233  1.00  0.00    -0.180 N  
BRANCH   8   9
HETATM    9  C   UNL     1     -10.117   9.309  68.316  1.00  0.00    -0.185 C  
HETATM   10 CL   UNL     1      -9.362   9.044  65.690  1.00  0.00    -0.302 Cl 
HETATM   11  C   UNL     1     -10.384   8.502  67.048  1.00  0.00    -0.309 C  
ENDBRANCH   8   9
BRANCH   8  12
HETATM   12  N   UNL     1     -11.978  10.925  68.037  1.00  0.00    -0.777 NA 
HETATM   13  H   UNL     1     -12.376  10.207  67.431  1.00  0.00     0.000 HD 
HETATM   14  H   UNL     1     -13.560  11.175  68.948  1.00  0.00     0.000 HD 
HETATM   15  O   UNL     1     -12.633  11.020  69.081  1.00  0.00    -0.378 OA 
ENDBRANCH   8  12
ENDBRANCH   6   8
ENDBRANCH   4   6
ENDBRANCH   3   4
TORSDOF 5
ENDMDL
MODEL      139
REMARK 921   NORMALIZED FREE ENERGY PREDICTED BY IDOCK:   -3.28 KCAL/MOL
REMARK 922        TOTAL FREE ENERGY PREDICTED BY IDOCK:   -4.32 KCAL/MOL
REMARK 923 INTER-LIGAND FREE ENERGY PREDICTED BY IDOCK:   -4.19 KCAL/MOL
REMARK 924 INTRA-LIGAND FREE ENERGY PREDICTED BY IDOCK:   -0.13 KCAL/MOL
REMARK 927      BINDING AFFINITY PREDICTED BY RF-SCORE:    0.00 PKD
ROOT
HETATM    1 CL   UNL     1     -10.571  19.401  66.087  1.00  0.00    -0.570 Cl 
HETATM    2  C   UNL     1     -10.530  18.820  67.772  1.00  0.00    -0.420 C  
HETATM    3  C   UNL     1      -9.946  17.415  67.865  1.00  0.00    -0.301 C  
ENDROOT
BRANCH   3   4
HETATM    4  N   UNL     1     -10.671  16.435  67.066  1.00  0.00    -0.268 N  
HETATM    5  H   UNL     1     -10.793  16.587  66.065  1.00  0.00     0.000 HD 
BRANCH   4   6
HETATM    6  C   UNL     1     -11.193  15.303  67.658  1.00  0.00    -0.320 C  
HETATM    7  O   UNL     1     -12.134  14.714  67.123  1.00  0.00    -0.362 OA 
BRANCH   6   8
HETATM    8  N   UNL     1     -10.611  14.921  68.864  1.00  0.00    -0.239 N  
BRANCH   8   9
HETATM    9  C   UNL     1     -10.800  15.577  70.166  1.00  0.00    -0.331 C  
HETATM   10 CL   UNL     1     -12.961  14.099  70.993  1.00  0.00    -0.406 Cl 
HETATM   11  C   UNL     1     -12.268  15.689  70.576  1.00  0.00    -0.399 C  
ENDBRANCH   8   9
BRANCH   8  12
HETATM   12  N   UNL     1      -9.755  13.804  68.782  1.00  0.00    -0.400 NA 
HETATM   13  H   UNL     1     -10.291  12.938  68.853  1.00  0.00     0.000 HD 
HETATM   14  H   UNL     1      -8.459  13.033  67.723  1.00  0.00     0.000 HD 
HETATM   15  O   UNL     1      -9.036  13.786  67.778  1.00  0.00    -0.175 OA 
ENDBRANCH   8  12
ENDBRANCH   6   8
ENDBRANCH   4   6
ENDBRANCH   3   4
TORSDOF 5
ENDMDL
MODEL      140
REMARK 921   NORMALIZED FREE ENERGY PREDICTED BY IDOCK:   -3.28 KCAL/MOL
REMARK 922        TOTAL FREE ENERGY PREDICTED BY IDOCK:   -4.32 KCAL/MOL
REMARK 923 INTER-LIGAND FREE ENERGY PREDICTED BY IDOCK:   -3.69 KCAL/MOL
REMARK 924 INTRA-LIGAND FREE ENERGY PREDICTED BY IDOCK:   -0.63 KCAL/MOL
REMARK 927      BINDING AFFINITY PREDICTED BY RF-SCORE:    0.00 PKD
ROOT
HETATM    1 CL   UNL     1      -6.581  13.504  68.643  1.00  0.00    -0.090 Cl 
HETATM    2  C   UNL     1      -7.205  12.251  67.537  1.00  0.00    -0.139 C  
HETATM    3  C   UNL     1      -8.550  12.649  66.942  1.00  0.00    -0.151 C  
ENDROOT
BRANCH   3   4
HETATM    4  N   UNL     1      -9.571  12.912  67.949  1.00  0.00    -0.208 N  
HETATM    5  H   UNL     1      -9.493  12.487  68.873  1.00  0.00     0.000 HD 
BRANCH   4   6
HETATM    6  C   UNL     1     -10.642  13.732  67.658  1.00  0.00    -0.242 C  
HETATM    7  O   UNL     1     -10.582  14.932  67.931  1.00  0.00    -0.248 OA 
BRANCH   6   8
HETATM    8  N   UNL     1     -11.749  13.111  67.085  1.00  0.00    -0.360 N  
BRANCH   8   9
HETATM    9  C   UNL     1     -12.516  13.598  65.929  1.00  0.00    -0.452 C  
HETATM   10 CL   UNL     1     -11.046  12.344  63.978  1.00  0.00    -0.409 Cl 
HETATM   11  C   UNL     1     -11.649  13.860  64.699  1.00  0.00    -0.385 C  
ENDBRANCH   8   9
BRANCH   8  12
HETATM   12  N   UNL     1     -12.147  11.912  67.711  1.00  0.00    -0.527 NA 
HETATM   13  H   UNL     1     -13.164  11.833  67.714  1.00  0.00     0.000 HD 
HETATM   14  H   UNL     1     -11.904  10.086  67.654  1.00  0.00     0.000 HD 
HETATM   15  O   UNL     1     -11.636  10.893  67.232  1.00  0.00    -0.475 OA 
ENDBRANCH   8  12
ENDBRANCH   6   8
ENDBRANCH   4   6
ENDBRANCH   3   4
TORSDOF 5
ENDMDL
MODEL      141
REMARK 921   NORMALIZED FREE ENERGY PREDICTED BY IDOCK:   -3.27 KCAL/MOL
REMARK 922        TOTAL FREE ENERGY PREDICTED BY IDOCK:   -4.31 KCAL/MOL
REMARK 923 INTER-LIGAND FREE ENERGY PREDICTED BY IDOCK:   -4.02 KCAL/MOL
REMARK 924 INTRA-LIGAND FREE ENERGY PREDICTED BY IDOCK:   -0.29 KCAL/MOL
REMARK 927      BINDING AFFINITY PREDICTED BY RF-SCORE:    0.00 PKD
ROOT
HETATM    1 CL   UNL     1     -10.896   7.312  66.913  1.00  0.00    -0.384 Cl 
HETATM    2  C   UNL     1      -9.516   8.116  67.704  1.00  0.00    -0.145 C  
HETATM    3  C   UNL     1      -9.861   9.542  68.118  1.00  0.00    -0.155 C  
ENDROOT
BRANCH   3   4
HETATM    4  N   UNL     1     -10.293  10.377  67.004  1.00  0.00    -0.228 N  
HETATM    5  H   UNL     1      -9.883  10.242  66.080  1.00  0.00     0.000 HD 
BRANCH   4   6
HETATM    6  C   UNL     1     -11.253  11.350  67.193  1.00  0.00    -0.296 C  
HETATM    7  O   UNL     1     -12.060  11.238  68.118  1.00  0.00    -0.635 OA 
BRANCH   6   8
HETATM    8  N   UNL     1     -11.248  12.400  66.278  1.00  0.00    -0.300 N  
BRANCH   8   9
HETATM    9  C   UNL     1     -12.091  12.511  65.079  1.00  0.00    -0.446 C  
HETATM   10 CL   UNL     1     -10.536  10.980  63.413  1.00  0.00    -0.388 Cl 
HETATM   11  C   UNL     1     -11.288  12.555  63.781  1.00  0.00    -0.466 C  
ENDBRANCH   8   9
BRANCH   8  12
HETATM   12  N   UNL     1     -10.320  13.425  66.557  1.00  0.00    -0.279 NA 
HETATM   13  H   UNL     1      -9.558  13.408  65.879  1.00  0.00     0.000 HD 
HETATM   14  H   UNL     1     -10.190  15.245  66.810  1.00  0.00     0.000 HD 
HETATM   15  O   UNL     1     -10.815  14.555  66.622  1.00  0.00    -0.300 OA 
ENDBRANCH   8  12
ENDBRANCH   6   8
ENDBRANCH   4   6
ENDBRANCH   3   4
TORSDOF 5
ENDMDL
MODEL      142
REMARK 921   NORMALIZED FREE ENERGY PREDICTED BY IDOCK:   -3.27 KCAL/MOL
REMARK 922        TOTAL FREE ENERGY PREDICTED BY IDOCK:   -4.31 KCAL/MOL
REMARK 923 INTER-LIGAND FREE ENERGY PREDICTED BY IDOCK:   -3.64 KCAL/MOL
REMARK 924 INTRA-LIGAND FREE ENERGY PREDICTED BY IDOCK:   -0.67 KCAL/MOL
REMARK 927      BINDING AFFINITY PREDICTED BY RF-SCORE:    0.00 PKD
ROOT
HETATM    1 CL   UNL     1      -9.292   8.896  69.517  1.00  0.00    -0.152 Cl 
HETATM    2  C   UNL     1     -10.472  10.088  70.123  1.00  0.00    -0.284 C  
HETATM    3  C   UNL     1     -11.455   9.454  71.100  1.00  0.00    -0.352 C  
ENDROOT
BRANCH   3   4
HETATM    4  N   UNL     1     -12.195   8.336  70.530  1.00  0.00    -0.469 N  
HETATM    5  H   UNL     1     -12.480   8.362  69.551  1.00  0.00     0.000 HD 
BRANCH   4   6
HETATM    6  C   UNL     1     -12.511   7.240  71.307  1.00  0.00    -0.366 C  
HETATM    7  O   UNL     1     -13.683   7.039  71.630  1.00  0.00    -0.351 OA 
BRANCH   6   8
HETATM    8  N   UNL     1     -11.440   6.440  71.699  1.00  0.00    -0.291 N  
BRANCH   8   9
HETATM    9  C   UNL     1     -11.036   6.146  73.082  1.00  0.00    -0.231 C  
HETATM   10 CL   UNL     1      -9.114   8.095  73.307  1.00  0.00    -0.337 Cl 
HETATM   11  C   UNL     1      -9.545   6.363  73.332  1.00  0.00    -0.151 C  
ENDBRANCH   8   9
BRANCH   8  12
HETATM   12  N   UNL     1     -10.689   5.892  70.638  1.00  0.00    -0.269 NA 
HETATM   13  H   UNL     1     -10.363   4.957  70.880  1.00  0.00     0.000 HD 
HETATM   14  H   UNL     1     -10.773   5.509  68.838  1.00  0.00     0.000 HD 
HETATM   15  O   UNL     1     -11.279   5.877  69.552  1.00  0.00    -0.389 OA 
ENDBRANCH   8  12
ENDBRANCH   6   8
ENDBRANCH   4   6
ENDBRANCH   3   4
TORSDOF 5
ENDMDL
MODEL      143
REMARK 921   NORMALIZED FREE ENERGY PREDICTED BY IDOCK:   -3.27 KCAL/MOL
REMARK 922        TOTAL FREE ENERGY PREDICTED BY IDOCK:   -4.30 KCAL/MOL
REMARK 923 INTER-LIGAND FREE ENERGY PREDICTED BY IDOCK:   -3.97 KCAL/MOL
REMARK 924 INTRA-LIGAND FREE ENERGY PREDICTED BY IDOCK:   -0.33 KCAL/MOL
REMARK 927      BINDING AFFINITY PREDICTED BY RF-SCORE:    0.00 PKD
ROOT
HETATM    1 CL   UNL     1      -9.812  11.003  68.955  1.00  0.00    -0.203 Cl 
HETATM    2  C   UNL     1      -9.578  12.073  67.548  1.00  0.00    -0.177 C  
HETATM    3  C   UNL     1      -8.765  13.310  67.915  1.00  0.00    -0.192 C  
ENDROOT
BRANCH   3   4
HETATM    4  N   UNL     1      -9.364  14.096  68.986  1.00  0.00    -0.397 N  
HETATM    5  H   UNL     1      -9.163  13.865  69.959  1.00  0.00     0.000 HD 
BRANCH   4   6
HETATM    6  C   UNL     1     -10.203  15.151  68.690  1.00  0.00    -0.227 C  
HETATM    7  O   UNL     1      -9.787  16.086  68.004  1.00  0.00    -0.220 OA 
BRANCH   6   8
HETATM    8  N   UNL     1     -11.485  15.082  69.231  1.00  0.00    -0.288 N  
BRANCH   8   9
HETATM    9  C   UNL     1     -11.952  15.767  70.446  1.00  0.00    -0.359 C  
HETATM   10 CL   UNL     1     -13.096  13.585  71.658  1.00  0.00    -0.454 Cl 
HETATM   11  C   UNL     1     -13.279  15.221  70.970  1.00  0.00    -0.484 C  
ENDBRANCH   8   9
BRANCH   8  12
HETATM   12  N   UNL     1     -12.383  14.256  68.526  1.00  0.00    -0.569 NA 
HETATM   13  H   UNL     1     -13.346  14.535  68.713  1.00  0.00     0.000 HD 
HETATM   14  H   UNL     1     -12.783  13.647  66.833  1.00  0.00     0.000 HD 
HETATM   15  O   UNL     1     -12.178  14.204  67.308  1.00  0.00    -0.402 OA 
ENDBRANCH   8  12
ENDBRANCH   6   8
ENDBRANCH   4   6
ENDBRANCH   3   4
TORSDOF 5
ENDMDL
MODEL      144
REMARK 921   NORMALIZED FREE ENERGY PREDICTED BY IDOCK:   -3.25 KCAL/MOL
REMARK 922        TOTAL FREE ENERGY PREDICTED BY IDOCK:   -4.28 KCAL/MOL
REMARK 923 INTER-LIGAND FREE ENERGY PREDICTED BY IDOCK:   -3.84 KCAL/MOL
REMARK 924 INTRA-LIGAND FREE ENERGY PREDICTED BY IDOCK:   -0.44 KCAL/MOL
REMARK 927      BINDING AFFINITY PREDICTED BY RF-SCORE:    0.00 PKD
ROOT
HETATM    1 CL   UNL     1     -11.303  15.829  64.615  1.00  0.00    -0.404 Cl 
HETATM    2  C   UNL     1     -10.354  16.424  66.002  1.00  0.00    -0.352 C  
HETATM    3  C   UNL     1      -9.093  15.596  66.213  1.00  0.00    -0.341 C  
ENDROOT
BRANCH   3   4
HETATM    4  N   UNL     1      -9.362  14.179  66.425  1.00  0.00    -0.418 N  
HETATM    5  H   UNL     1      -9.153  13.507  65.687  1.00  0.00     0.000 HD 
BRANCH   4   6
HETATM    6  C   UNL     1      -9.899  13.743  67.619  1.00  0.00    -0.234 C  
HETATM    7  O   UNL     1      -9.219  13.785  68.645  1.00  0.00    -0.167 OA 
BRANCH   6   8
HETATM    8  N   UNL     1     -11.202  13.251  67.559  1.00  0.00    -0.270 N  
BRANCH   8   9
HETATM    9  C   UNL     1     -11.618  11.964  66.983  1.00  0.00    -0.291 C  
HETATM   10 CL   UNL     1     -10.602  10.351  68.959  1.00  0.00    -0.223 Cl 
HETATM   11  C   UNL     1     -10.619  10.838  67.243  1.00  0.00    -0.257 C  
ENDBRANCH   8   9
BRANCH   8  12
HETATM   12  N   UNL     1     -12.184  14.106  68.100  1.00  0.00    -0.560 NA 
HETATM   13  H   UNL     1     -13.054  14.026  67.573  1.00  0.00     0.000 HD 
HETATM   14  H   UNL     1     -13.055  14.519  69.670  1.00  0.00     0.000 HD 
HETATM   15  O   UNL     1     -12.394  13.942  69.306  1.00  0.00    -0.323 OA 
ENDBRANCH   8  12
ENDBRANCH   6   8
ENDBRANCH   4   6
ENDBRANCH   3   4
TORSDOF 5
ENDMDL
MODEL      145
REMARK 921   NORMALIZED FREE ENERGY PREDICTED BY IDOCK:   -3.24 KCAL/MOL
REMARK 922        TOTAL FREE ENERGY PREDICTED BY IDOCK:   -4.27 KCAL/MOL
REMARK 923 INTER-LIGAND FREE ENERGY PREDICTED BY IDOCK:   -3.82 KCAL/MOL
REMARK 924 INTRA-LIGAND FREE ENERGY PREDICTED BY IDOCK:   -0.45 KCAL/MOL
REMARK 927      BINDING AFFINITY PREDICTED BY RF-SCORE:    0.00 PKD
ROOT
HETATM    1 CL   UNL     1      -7.806  10.662  68.541  1.00  0.00    -0.108 Cl 
HETATM    2  C   UNL     1      -9.184   9.889  69.367  1.00  0.00    -0.214 C  
HETATM    3  C   UNL     1     -10.181   9.310  68.370  1.00  0.00    -0.202 C  
ENDROOT
BRANCH   3   4
HETATM    4  N   UNL     1     -10.709  10.302  67.441  1.00  0.00    -0.275 N  
HETATM    5  H   UNL     1     -10.429  10.279  66.461  1.00  0.00     0.000 HD 
BRANCH   4   6
HETATM    6  C   UNL     1     -11.586  11.272  67.883  1.00  0.00    -0.256 C  
HETATM    7  O   UNL     1     -12.367  11.015  68.800  1.00  0.00    -0.533 OA 
BRANCH   6   8
HETATM    8  N   UNL     1     -11.531  12.494  67.216  1.00  0.00    -0.331 N  
BRANCH   8   9
HETATM    9  C   UNL     1     -10.817  13.697  67.667  1.00  0.00    -0.256 C  
HETATM   10 CL   UNL     1     -12.307  14.163  69.926  1.00  0.00    -0.397 Cl 
HETATM   11  C   UNL     1     -11.730  14.724  68.333  1.00  0.00    -0.314 C  
ENDBRANCH   8   9
BRANCH   8  12
HETATM   12  N   UNL     1     -12.254  12.543  66.007  1.00  0.00    -0.620 NA 
HETATM   13  H   UNL     1     -12.572  13.494  65.820  1.00  0.00     0.000 HD 
HETATM   14  H   UNL     1     -12.133  12.124  64.216  1.00  0.00     0.000 HD 
HETATM   15  O   UNL     1     -11.645  12.092  65.031  1.00  0.00    -0.318 OA 
ENDBRANCH   8  12
ENDBRANCH   6   8
ENDBRANCH   4   6
ENDBRANCH   3   4
TORSDOF 5
ENDMDL
MODEL      146
REMARK 921   NORMALIZED FREE ENERGY PREDICTED BY IDOCK:   -3.24 KCAL/MOL
REMARK 922        TOTAL FREE ENERGY PREDICTED BY IDOCK:   -4.27 KCAL/MOL
REMARK 923 INTER-LIGAND FREE ENERGY PREDICTED BY IDOCK:   -3.77 KCAL/MOL
REMARK 924 INTRA-LIGAND FREE ENERGY PREDICTED BY IDOCK:   -0.50 KCAL/MOL
REMARK 927      BINDING AFFINITY PREDICTED BY RF-SCORE:    0.00 PKD
ROOT
HETATM    1 CL   UNL     1      -9.164  19.957  66.824  1.00  0.00    -0.445 Cl 
HETATM    2  C   UNL     1     -10.643  19.161  67.422  1.00  0.00    -0.481 C  
HETATM    3  C   UNL     1     -10.320  18.076  68.443  1.00  0.00    -0.368 C  
ENDROOT
BRANCH   3   4
HETATM    4  N   UNL     1      -9.430  17.044  67.926  1.00  0.00    -0.241 N  
HETATM    5  H   UNL     1      -8.427  17.224  67.864  1.00  0.00     0.000 HD 
BRANCH   4   6
HETATM    6  C   UNL     1      -9.936  15.827  67.519  1.00  0.00    -0.236 C  
HETATM    7  O   UNL     1     -10.833  15.790  66.676  1.00  0.00    -0.310 OA 
BRANCH   6   8
HETATM    8  N   UNL     1      -9.390  14.702  68.135  1.00  0.00    -0.191 N  
BRANCH   8   9
HETATM    9  C   UNL     1      -9.191  13.384  67.516  1.00  0.00    -0.219 C  
HETATM   10 CL   UNL     1     -11.760  12.464  67.816  1.00  0.00    -0.413 Cl 
HETATM   11  C   UNL     1     -10.021  12.281  68.169  1.00  0.00    -0.210 C  
ENDBRANCH   8   9
BRANCH   8  12
HETATM   12  N   UNL     1      -9.022  14.884  69.484  1.00  0.00    -0.440 NA 
HETATM   13  H   UNL     1      -9.326  14.089  70.046  1.00  0.00     0.000 HD 
HETATM   14  H   UNL     1      -7.570  15.224  70.567  1.00  0.00     0.000 HD 
HETATM   15  O   UNL     1      -7.818  15.101  69.658  1.00  0.00    -0.213 OA 
ENDBRANCH   8  12
ENDBRANCH   6   8
ENDBRANCH   4   6
ENDBRANCH   3   4
TORSDOF 5
ENDMDL
MODEL      147
REMARK 921   NORMALIZED FREE ENERGY PREDICTED BY IDOCK:   -3.24 KCAL/MOL
REMARK 922        TOTAL FREE ENERGY PREDICTED BY IDOCK:   -4.27 KCAL/MOL
REMARK 923 INTER-LIGAND FREE ENERGY PREDICTED BY IDOCK:   -3.70 KCAL/MOL
REMARK 924 INTRA-LIGAND FREE ENERGY PREDICTED BY IDOCK:   -0.57 KCAL/MOL
REMARK 927      BINDING AFFINITY PREDICTED BY RF-SCORE:    0.00 PKD
ROOT
HETATM    1 CL   UNL     1     -11.042  11.930  68.556  1.00  0.00    -0.262 Cl 
HETATM    2  C   UNL     1     -11.510  12.444  66.914  1.00  0.00    -0.360 C  
HETATM    3  C   UNL     1     -10.407  13.257  66.247  1.00  0.00    -0.290 C  
ENDROOT
BRANCH   3   4
HETATM    4  N   UNL     1     -10.030  14.445  67.002  1.00  0.00    -0.253 N  
HETATM    5  H   UNL     1      -9.348  14.372  67.756  1.00  0.00     0.000 HD 
BRANCH   4   6
HETATM    6  C   UNL     1     -10.592  15.669  66.700  1.00  0.00    -0.307 C  
HETATM    7  O   UNL     1     -10.772  15.984  65.522  1.00  0.00    -0.367 OA 
BRANCH   6   8
HETATM    8  N   UNL     1     -10.895  16.487  67.787  1.00  0.00    -0.332 N  
BRANCH   8   9
HETATM    9  C   UNL     1     -10.576  17.916  67.913  1.00  0.00    -0.376 C  
HETATM   10 CL   UNL     1      -7.919  17.744  67.242  1.00  0.00    -0.216 Cl 
HETATM   11  C   UNL     1      -9.167  18.174  68.442  1.00  0.00    -0.306 C  
ENDBRANCH   8   9
BRANCH   8  12
HETATM   12  N   UNL     1     -11.555  15.839  68.851  1.00  0.00    -0.379 NA 
HETATM   13  H   UNL     1     -12.277  15.213  68.493  1.00  0.00     0.000 HD 
HETATM   14  H   UNL     1     -11.249  14.798  70.340  1.00  0.00     0.000 HD 
HETATM   15  O   UNL     1     -10.804  15.234  69.623  1.00  0.00    -0.255 OA 
ENDBRANCH   8  12
ENDBRANCH   6   8
ENDBRANCH   4   6
ENDBRANCH   3   4
TORSDOF 5
ENDMDL
MODEL      148
REMARK 921   NORMALIZED FREE ENERGY PREDICTED BY IDOCK:   -3.23 KCAL/MOL
REMARK 922        TOTAL FREE ENERGY PREDICTED BY IDOCK:   -4.26 KCAL/MOL
REMARK 923 INTER-LIGAND FREE ENERGY PREDICTED BY IDOCK:   -3.88 KCAL/MOL
REMARK 924 INTRA-LIGAND FREE ENERGY PREDICTED BY IDOCK:   -0.38 KCAL/MOL
REMARK 927      BINDING AFFINITY PREDICTED BY RF-SCORE:    0.00 PKD
ROOT
HETATM    1 CL   UNL     1      -7.067  16.609  68.752  1.00  0.00    -0.182 Cl 
HETATM    2  C   UNL     1      -6.397  16.860  67.119  1.00  0.00    -0.186 C  
HETATM    3  C   UNL     1      -7.463  17.348  66.145  1.00  0.00    -0.296 C  
ENDROOT
BRANCH   3   4
HETATM    4  N   UNL     1      -8.599  16.441  66.033  1.00  0.00    -0.296 N  
HETATM    5  H   UNL     1      -8.446  15.433  66.046  1.00  0.00     0.000 HD 
BRANCH   4   6
HETATM    6  C   UNL     1      -9.879  16.940  65.909  1.00  0.00    -0.215 C  
HETATM    7  O   UNL     1     -10.569  16.616  64.941  1.00  0.00    -0.694 OA 
BRANCH   6   8
HETATM    8  N   UNL     1     -10.291  17.819  66.909  1.00  0.00    -0.346 N  
BRANCH   8   9
HETATM    9  C   UNL     1     -10.172  19.284  66.880  1.00  0.00    -0.400 C  
HETATM   10 CL   UNL     1      -8.679  19.558  69.168  1.00  0.00    -0.240 Cl 
HETATM   11  C   UNL     1     -10.179  19.915  68.271  1.00  0.00    -0.434 C  
ENDBRANCH   8   9
BRANCH   8  12
HETATM   12  N   UNL     1     -10.857  17.203  68.044  1.00  0.00    -0.366 NA 
HETATM   13  H   UNL     1     -11.749  16.769  67.805  1.00  0.00     0.000 HD 
HETATM   14  H   UNL     1     -10.497  15.974  69.369  1.00  0.00     0.000 HD 
HETATM   15  O   UNL     1     -10.116  16.389  68.604  1.00  0.00    -0.223 OA 
ENDBRANCH   8  12
ENDBRANCH   6   8
ENDBRANCH   4   6
ENDBRANCH   3   4
TORSDOF 5
ENDMDL
MODEL      149
REMARK 921   NORMALIZED FREE ENERGY PREDICTED BY IDOCK:   -3.20 KCAL/MOL
REMARK 922        TOTAL FREE ENERGY PREDICTED BY IDOCK:   -4.22 KCAL/MOL
REMARK 923 INTER-LIGAND FREE ENERGY PREDICTED BY IDOCK:   -3.75 KCAL/MOL
REMARK 924 INTRA-LIGAND FREE ENERGY PREDICTED BY IDOCK:   -0.47 KCAL/MOL
REMARK 927      BINDING AFFINITY PREDICTED BY RF-SCORE:    0.00 PKD
ROOT
HETATM    1 CL   UNL     1     -13.044  13.252  71.554  1.00  0.00    -0.439 Cl 
HETATM    2  C   UNL     1     -11.992  13.635  70.166  1.00  0.00    -0.337 C  
HETATM    3  C   UNL     1     -11.628  12.382  69.377  1.00  0.00    -0.307 C  
ENDROOT
BRANCH   3   4
HETATM    4  N   UNL     1     -10.962  11.367  70.183  1.00  0.00    -0.402 N  
HETATM    5  H   UNL     1     -10.035  11.553  70.568  1.00  0.00     0.000 HD 
BRANCH   4   6
HETATM    6  C   UNL     1     -11.577  10.157  70.427  1.00  0.00    -0.316 C  
HETATM    7  O   UNL     1     -12.663  10.131  71.009  1.00  0.00    -0.339 OA 
BRANCH   6   8
HETATM    8  N   UNL     1     -10.886   9.024  70.005  1.00  0.00    -0.232 N  
BRANCH   8   9
HETATM    9  C   UNL     1      -9.914   8.254  70.796  1.00  0.00    -0.190 C  
HETATM   10 CL   UNL     1     -11.554   6.138  71.402  1.00  0.00    -0.327 Cl 
HETATM   11  C   UNL     1     -10.550   7.501  71.963  1.00  0.00    -0.211 C  
ENDBRANCH   8   9
BRANCH   8  12
HETATM   12  N   UNL     1     -11.161   8.619  68.682  1.00  0.00    -0.396 NA 
HETATM   13  H   UNL     1     -12.168   8.556  68.532  1.00  0.00     0.000 HD 
HETATM   14  H   UNL     1     -10.823   9.053  66.924  1.00  0.00     0.000 HD 
HETATM   15  O   UNL     1     -10.638   9.326  67.814  1.00  0.00    -0.254 OA 
ENDBRANCH   8  12
ENDBRANCH   6   8
ENDBRANCH   4   6
ENDBRANCH   3   4
TORSDOF 5
ENDMDL
MODEL      150
REMARK 921   NORMALIZED FREE ENERGY PREDICTED BY IDOCK:   -3.20 KCAL/MOL
REMARK 922        TOTAL FREE ENERGY PREDICTED BY IDOCK:   -4.22 KCAL/MOL
REMARK 923 INTER-LIGAND FREE ENERGY PREDICTED BY IDOCK:   -3.55 KCAL/MOL
REMARK 924 INTRA-LIGAND FREE ENERGY PREDICTED BY IDOCK:   -0.67 KCAL/MOL
REMARK 927      BINDING AFFINITY PREDICTED BY RF-SCORE:    0.00 PKD
ROOT
HETATM    1 CL   UNL     1     -11.158   6.601  67.109  1.00  0.00    -0.470 Cl 
HETATM    2  C   UNL     1     -10.411   6.159  68.666  1.00  0.00    -0.206 C  
HETATM    3  C   UNL     1     -11.239   6.656  69.845  1.00  0.00    -0.364 C  
ENDROOT
BRANCH   3   4
HETATM    4  N   UNL     1     -11.447   8.098  69.837  1.00  0.00    -0.449 N  
HETATM    5  H   UNL     1     -12.285   8.488  69.405  1.00  0.00     0.000 HD 
BRANCH   4   6
HETATM    6  C   UNL     1     -10.515   8.940  70.409  1.00  0.00    -0.210 C  
HETATM    7  O   UNL     1      -9.929   8.592  71.435  1.00  0.00    -0.195 OA 
BRANCH   6   8
HETATM    8  N   UNL     1     -10.327  10.165  69.773  1.00  0.00    -0.249 N  
BRANCH   8   9
HETATM    9  C   UNL     1      -9.198  10.526  68.903  1.00  0.00    -0.183 C  
HETATM   10 CL   UNL     1     -10.418   9.979  66.504  1.00  0.00    -0.259 Cl 
HETATM   11  C   UNL     1      -9.096   9.649  67.656  1.00  0.00    -0.131 C  
ENDBRANCH   8   9
BRANCH   8  12
HETATM   12  N   UNL     1     -11.327  11.125  70.027  1.00  0.00    -0.418 NA 
HETATM   13  H   UNL     1     -10.929  12.065  70.013  1.00  0.00     0.000 HD 
HETATM   14  H   UNL     1     -12.975  11.705  69.443  1.00  0.00     0.000 HD 
HETATM   15  O   UNL     1     -12.302  11.058  69.271  1.00  0.00    -0.412 OA 
ENDBRANCH   8  12
ENDBRANCH   6   8
ENDBRANCH   4   6
ENDBRANCH   3   4
TORSDOF 5
ENDMDL
MODEL      151
REMARK 921   NORMALIZED FREE ENERGY PREDICTED BY IDOCK:   -3.20 KCAL/MOL
REMARK 922        TOTAL FREE ENERGY PREDICTED BY IDOCK:   -4.22 KCAL/MOL
REMARK 923 INTER-LIGAND FREE ENERGY PREDICTED BY IDOCK:   -4.07 KCAL/MOL
REMARK 924 INTRA-LIGAND FREE ENERGY PREDICTED BY IDOCK:   -0.15 KCAL/MOL
REMARK 927      BINDING AFFINITY PREDICTED BY RF-SCORE:    0.00 PKD
ROOT
HETATM    1 CL   UNL     1     -13.253   9.906  71.978  1.00  0.00    -0.544 Cl 
HETATM    2  C   UNL     1     -14.345   8.508  71.798  1.00  0.00    -0.437 C  
HETATM    3  C   UNL     1     -13.568   7.203  71.670  1.00  0.00    -0.310 C  
ENDROOT
BRANCH   3   4
HETATM    4  N   UNL     1     -12.636   7.195  70.550  1.00  0.00    -0.602 N  
HETATM    5  H   UNL     1     -12.919   7.586  69.651  1.00  0.00     0.000 HD 
BRANCH   4   6
HETATM    6  C   UNL     1     -11.373   6.661  70.698  1.00  0.00    -0.347 C  
HETATM    7  O   UNL     1     -10.986   5.785  69.923  1.00  0.00    -0.344 OA 
BRANCH   6   8
HETATM    8  N   UNL     1     -10.623   7.154  71.764  1.00  0.00    -0.206 N  
BRANCH   8   9
HETATM    9  C   UNL     1     -10.664   6.671  73.152  1.00  0.00    -0.278 C  
HETATM   10 CL   UNL     1      -9.671   4.156  72.676  1.00  0.00    -0.185 Cl 
HETATM   11  C   UNL     1     -11.004   5.186  73.261  1.00  0.00    -0.314 C  
ENDBRANCH   8   9
BRANCH   8  12
HETATM   12  N   UNL     1      -9.768   8.228  71.441  1.00  0.00    -0.171 NA 
HETATM   13  H   UNL     1     -10.238   8.882  70.815  1.00  0.00     0.000 HD 
HETATM   14  H   UNL     1      -8.729   9.546  72.203  1.00  0.00     0.000 HD 
HETATM   15  O   UNL     1      -9.306   8.823  72.420  1.00  0.00    -0.331 OA 
ENDBRANCH   8  12
ENDBRANCH   6   8
ENDBRANCH   4   6
ENDBRANCH   3   4
TORSDOF 5
ENDMDL
MODEL      152
REMARK 921   NORMALIZED FREE ENERGY PREDICTED BY IDOCK:   -3.19 KCAL/MOL
REMARK 922        TOTAL FREE ENERGY PREDICTED BY IDOCK:   -4.21 KCAL/MOL
REMARK 923 INTER-LIGAND FREE ENERGY PREDICTED BY IDOCK:   -3.87 KCAL/MOL
REMARK 924 INTRA-LIGAND FREE ENERGY PREDICTED BY IDOCK:   -0.34 KCAL/MOL
REMARK 927      BINDING AFFINITY PREDICTED BY RF-SCORE:    0.00 PKD
ROOT
HETATM    1 CL   UNL     1      -6.460  15.208  69.961  1.00  0.00    -0.169 Cl 
HETATM    2  C   UNL     1      -6.663  14.661  68.276  1.00  0.00    -0.115 C  
HETATM    3  C   UNL     1      -6.483  15.809  67.289  1.00  0.00    -0.104 C  
ENDROOT
BRANCH   3   4
HETATM    4  N   UNL     1      -7.402  16.916  67.519  1.00  0.00    -0.150 N  
HETATM    5  H   UNL     1      -7.438  17.365  68.434  1.00  0.00     0.000 HD 
BRANCH   4   6
HETATM    6  C   UNL     1      -8.226  17.360  66.504  1.00  0.00    -0.276 C  
HETATM    7  O   UNL     1      -7.768  18.089  65.623  1.00  0.00    -0.539 OA 
BRANCH   6   8
HETATM    8  N   UNL     1      -9.556  16.954  66.576  1.00  0.00    -0.264 N  
BRANCH   8   9
HETATM    9  C   UNL     1     -10.544  17.390  67.575  1.00  0.00    -0.330 C  
HETATM   10 CL   UNL     1     -10.889  19.946  66.634  1.00  0.00    -0.471 Cl 
HETATM   11  C   UNL     1     -10.399  18.861  67.962  1.00  0.00    -0.389 C  
ENDBRANCH   8   9
BRANCH   8  12
HETATM   12  N   UNL     1      -9.949  16.027  65.589  1.00  0.00    -0.414 NA 
HETATM   13  H   UNL     1     -10.470  15.258  66.011  1.00  0.00     0.000 HD 
HETATM   14  H   UNL     1     -10.851  15.895  63.988  1.00  0.00     0.000 HD 
HETATM   15  O   UNL     1     -10.587  16.519  64.653  1.00  0.00    -0.647 OA 
ENDBRANCH   8  12
ENDBRANCH   6   8
ENDBRANCH   4   6
ENDBRANCH   3   4
TORSDOF 5
ENDMDL
MODEL      153
REMARK 921   NORMALIZED FREE ENERGY PREDICTED BY IDOCK:   -3.19 KCAL/MOL
REMARK 922        TOTAL FREE ENERGY PREDICTED BY IDOCK:   -4.20 KCAL/MOL
REMARK 923 INTER-LIGAND FREE ENERGY PREDICTED BY IDOCK:   -3.70 KCAL/MOL
REMARK 924 INTRA-LIGAND FREE ENERGY PREDICTED BY IDOCK:   -0.50 KCAL/MOL
REMARK 927      BINDING AFFINITY PREDICTED BY RF-SCORE:    0.00 PKD
ROOT
HETATM    1 CL   UNL     1     -12.989   7.517  71.577  1.00  0.00    -0.392 Cl 
HETATM    2  C   UNL     1     -11.377   8.265  71.720  1.00  0.00    -0.288 C  
HETATM    3  C   UNL     1     -11.319   9.608  71.001  1.00  0.00    -0.374 C  
ENDROOT
BRANCH   3   4
HETATM    4  N   UNL     1     -11.652   9.519  69.585  1.00  0.00    -0.441 N  
HETATM    5  H   UNL     1     -12.624   9.401  69.298  1.00  0.00     0.000 HD 
BRANCH   4   6
HETATM    6  C   UNL     1     -10.659   9.593  68.629  1.00  0.00    -0.217 C  
HETATM    7  O   UNL     1      -9.611   8.964  68.789  1.00  0.00    -0.153 OA 
BRANCH   6   8
HETATM    8  N   UNL     1     -10.920  10.420  67.540  1.00  0.00    -0.304 N  
BRANCH   8   9
HETATM    9  C   UNL     1     -10.145  10.483  66.292  1.00  0.00    -0.232 C  
HETATM   10 CL   UNL     1      -7.945  11.771  67.310  1.00  0.00    -0.153 Cl 
HETATM   11  C   UNL     1      -9.312  11.757  66.165  1.00  0.00    -0.225 C  
ENDBRANCH   8   9
BRANCH   8  12
HETATM   12  N   UNL     1     -12.032  11.273  67.695  1.00  0.00    -0.607 NA 
HETATM   13  H   UNL     1     -12.815  10.765  68.108  1.00  0.00     0.000 HD 
HETATM   14  H   UNL     1     -12.547  12.877  68.443  1.00  0.00     0.000 HD 
HETATM   15  O   UNL     1     -11.798  12.302  68.338  1.00  0.00    -0.317 OA 
ENDBRANCH   8  12
ENDBRANCH   6   8
ENDBRANCH   4   6
ENDBRANCH   3   4
TORSDOF 5
ENDMDL
MODEL      154
REMARK 921   NORMALIZED FREE ENERGY PREDICTED BY IDOCK:   -3.18 KCAL/MOL
REMARK 922        TOTAL FREE ENERGY PREDICTED BY IDOCK:   -4.20 KCAL/MOL
REMARK 923 INTER-LIGAND FREE ENERGY PREDICTED BY IDOCK:   -4.05 KCAL/MOL
REMARK 924 INTRA-LIGAND FREE ENERGY PREDICTED BY IDOCK:   -0.15 KCAL/MOL
REMARK 927      BINDING AFFINITY PREDICTED BY RF-SCORE:    0.00 PKD
ROOT
HETATM    1 CL   UNL     1      -9.679  20.308  67.546  1.00  0.00    -0.552 Cl 
HETATM    2  C   UNL     1     -10.305  19.645  66.014  1.00  0.00    -0.523 C  
HETATM    3  C   UNL     1     -10.654  18.167  66.145  1.00  0.00    -0.274 C  
ENDROOT
BRANCH   3   4
HETATM    4  N   UNL     1      -9.527  17.344  66.567  1.00  0.00    -0.265 N  
HETATM    5  H   UNL     1      -8.630  17.781  66.777  1.00  0.00     0.000 HD 
BRANCH   4   6
HETATM    6  C   UNL     1      -9.669  15.976  66.684  1.00  0.00    -0.244 C  
HETATM    7  O   UNL     1      -9.130  15.235  65.860  1.00  0.00    -0.291 OA 
BRANCH   6   8
HETATM    8  N   UNL     1     -10.457  15.532  67.743  1.00  0.00    -0.267 N  
BRANCH   8   9
HETATM    9  C   UNL     1     -11.676  14.717  67.637  1.00  0.00    -0.363 C  
HETATM   10 CL   UNL     1     -11.826  13.965  70.274  1.00  0.00    -0.374 Cl 
HETATM   11  C   UNL     1     -11.667  13.499  68.559  1.00  0.00    -0.357 C  
ENDBRANCH   8   9
BRANCH   8  12
HETATM   12  N   UNL     1     -10.017  15.937  69.020  1.00  0.00    -0.219 NA 
HETATM   13  H   UNL     1      -8.998  15.920  69.067  1.00  0.00     0.000 HD 
HETATM   14  H   UNL     1     -10.151  17.310  70.242  1.00  0.00     0.000 HD 
HETATM   15  O   UNL     1     -10.447  17.037  69.382  1.00  0.00    -0.321 OA 
ENDBRANCH   8  12
ENDBRANCH   6   8
ENDBRANCH   4   6
ENDBRANCH   3   4
TORSDOF 5
ENDMDL
MODEL      155
REMARK 921   NORMALIZED FREE ENERGY PREDICTED BY IDOCK:   -3.18 KCAL/MOL
REMARK 922        TOTAL FREE ENERGY PREDICTED BY IDOCK:   -4.20 KCAL/MOL
REMARK 923 INTER-LIGAND FREE ENERGY PREDICTED BY IDOCK:   -3.67 KCAL/MOL
REMARK 924 INTRA-LIGAND FREE ENERGY PREDICTED BY IDOCK:   -0.53 KCAL/MOL
REMARK 927      BINDING AFFINITY PREDICTED BY RF-SCORE:    0.00 PKD
ROOT
HETATM    1 CL   UNL     1     -11.077   6.390  66.816  1.00  0.00    -0.366 Cl 
HETATM    2  C   UNL     1      -9.763   7.197  67.710  1.00  0.00    -0.138 C  
HETATM    3  C   UNL     1      -9.799   6.848  69.194  1.00  0.00    -0.156 C  
ENDROOT
BRANCH   3   4
HETATM    4  N   UNL     1     -11.060   7.193  69.836  1.00  0.00    -0.345 N  
HETATM    5  H   UNL     1     -11.937   6.833  69.459  1.00  0.00     0.000 HD 
BRANCH   4   6
HETATM    6  C   UNL     1     -11.075   8.003  70.953  1.00  0.00    -0.255 C  
HETATM    7  O   UNL     1     -10.304   7.770  71.886  1.00  0.00    -0.197 OA 
BRANCH   6   8
HETATM    8  N   UNL     1     -12.008   9.037  70.945  1.00  0.00    -0.262 N  
BRANCH   8   9
HETATM    9  C   UNL     1     -13.047   9.277  71.958  1.00  0.00    -0.436 C  
HETATM   10 CL   UNL     1     -14.359   6.881  71.688  1.00  0.00    -0.443 Cl 
HETATM   11  C   UNL     1     -14.396   8.662  71.593  1.00  0.00    -0.368 C  
ENDBRANCH   8   9
BRANCH   8  12
HETATM   12  N   UNL     1     -11.924   9.904  69.836  1.00  0.00    -0.464 NA 
HETATM   13  H   UNL     1     -12.613  10.652  69.916  1.00  0.00     0.000 HD 
HETATM   14  H   UNL     1     -10.742  10.955  68.892  1.00  0.00     0.000 HD 
HETATM   15  O   UNL     1     -10.798  10.372  69.640  1.00  0.00    -0.240 OA 
ENDBRANCH   8  12
ENDBRANCH   6   8
ENDBRANCH   4   6
ENDBRANCH   3   4
TORSDOF 5
ENDMDL
MODEL      156
REMARK 921   NORMALIZED FREE ENERGY PREDICTED BY IDOCK:   -3.18 KCAL/MOL
REMARK 922        TOTAL FREE ENERGY PREDICTED BY IDOCK:   -4.19 KCAL/MOL
REMARK 923 INTER-LIGAND FREE ENERGY PREDICTED BY IDOCK:   -3.74 KCAL/MOL
REMARK 924 INTRA-LIGAND FREE ENERGY PREDICTED BY IDOCK:   -0.45 KCAL/MOL
REMARK 927      BINDING AFFINITY PREDICTED BY RF-SCORE:    0.00 PKD
ROOT
HETATM    1 CL   UNL     1      -8.948   4.704  67.525  1.00  0.00    -0.115 Cl 
HETATM    2  C   UNL     1     -10.489   5.156  66.751  1.00  0.00    -0.251 C  
HETATM    3  C   UNL     1     -11.022   6.476  67.294  1.00  0.00    -0.400 C  
ENDROOT
BRANCH   3   4
HETATM    4  N   UNL     1     -11.227   6.465  68.737  1.00  0.00    -0.534 N  
HETATM    5  H   UNL     1     -11.908   5.827  69.148  1.00  0.00     0.000 HD 
BRANCH   4   6
HETATM    6  C   UNL     1     -10.504   7.315  69.550  1.00  0.00    -0.230 C  
HETATM    7  O   UNL     1      -9.279   7.379  69.429  1.00  0.00    -0.146 OA 
BRANCH   6   8
HETATM    8  N   UNL     1     -11.239   8.035  70.489  1.00  0.00    -0.264 N  
BRANCH   8   9
HETATM    9  C   UNL     1     -10.866   9.329  71.076  1.00  0.00    -0.314 C  
HETATM   10 CL   UNL     1     -12.411  10.911  69.449  1.00  0.00    -0.306 Cl 
HETATM   11  C   UNL     1     -10.793  10.458  70.049  1.00  0.00    -0.289 C  
ENDBRANCH   8   9
BRANCH   8  12
HETATM   12  N   UNL     1     -12.441   7.421  70.898  1.00  0.00    -0.540 NA 
HETATM   13  H   UNL     1     -12.924   7.014  70.097  1.00  0.00     0.000 HD 
HETATM   14  H   UNL     1     -13.114   6.167  72.069  1.00  0.00     0.000 HD 
HETATM   15  O   UNL     1     -12.304   6.580  71.793  1.00  0.00    -0.347 OA 
ENDBRANCH   8  12
ENDBRANCH   6   8
ENDBRANCH   4   6
ENDBRANCH   3   4
TORSDOF 5
ENDMDL
MODEL      157
REMARK 921   NORMALIZED FREE ENERGY PREDICTED BY IDOCK:   -3.18 KCAL/MOL
REMARK 922        TOTAL FREE ENERGY PREDICTED BY IDOCK:   -4.19 KCAL/MOL
REMARK 923 INTER-LIGAND FREE ENERGY PREDICTED BY IDOCK:   -3.88 KCAL/MOL
REMARK 924 INTRA-LIGAND FREE ENERGY PREDICTED BY IDOCK:   -0.30 KCAL/MOL
REMARK 927      BINDING AFFINITY PREDICTED BY RF-SCORE:    0.00 PKD
ROOT
HETATM    1 CL   UNL     1     -11.172   6.405  68.179  1.00  0.00    -0.357 Cl 
HETATM    2  C   UNL     1      -9.814   7.499  68.548  1.00  0.00    -0.165 C  
HETATM    3  C   UNL     1     -10.306   8.871  68.994  1.00  0.00    -0.212 C  
ENDROOT
BRANCH   3   4
HETATM    4  N   UNL     1     -11.159   9.526  68.011  1.00  0.00    -0.514 N  
HETATM    5  H   UNL     1     -12.155   9.308  67.978  1.00  0.00     0.000 HD 
BRANCH   4   6
HETATM    6  C   UNL     1     -10.626  10.438  67.123  1.00  0.00    -0.261 C  
HETATM    7  O   UNL     1      -9.853  10.053  66.244  1.00  0.00    -0.208 OA 
BRANCH   6   8
HETATM    8  N   UNL     1     -10.997  11.767  67.316  1.00  0.00    -0.251 N  
BRANCH   8   9
HETATM    9  C   UNL     1     -10.495  12.664  68.367  1.00  0.00    -0.238 C  
HETATM   10 CL   UNL     1     -12.086  11.743  70.406  1.00  0.00    -0.450 Cl 
HETATM   11  C   UNL     1     -11.574  13.094  69.358  1.00  0.00    -0.300 C  
ENDBRANCH   8   9
BRANCH   8  12
HETATM   12  N   UNL     1     -11.959  12.252  66.407  1.00  0.00    -0.624 NA 
HETATM   13  H   UNL     1     -12.592  12.903  66.872  1.00  0.00     0.000 HD 
HETATM   14  H   UNL     1     -12.131  13.093  64.776  1.00  0.00     0.000 HD 
HETATM   15  O   UNL     1     -11.483  12.766  65.389  1.00  0.00    -0.305 OA 
ENDBRANCH   8  12
ENDBRANCH   6   8
ENDBRANCH   4   6
ENDBRANCH   3   4
TORSDOF 5
ENDMDL
MODEL      158
REMARK 921   NORMALIZED FREE ENERGY PREDICTED BY IDOCK:   -3.18 KCAL/MOL
REMARK 922        TOTAL FREE ENERGY PREDICTED BY IDOCK:   -4.19 KCAL/MOL
REMARK 923 INTER-LIGAND FREE ENERGY PREDICTED BY IDOCK:   -3.80 KCAL/MOL
REMARK 924 INTRA-LIGAND FREE ENERGY PREDICTED BY IDOCK:   -0.38 KCAL/MOL
REMARK 927      BINDING AFFINITY PREDICTED BY RF-SCORE:    0.00 PKD
ROOT
HETATM    1 CL   UNL     1     -11.712  15.624  72.515  1.00  0.00    -0.553 Cl 
HETATM    2  C   UNL     1     -12.839  14.490  71.725  1.00  0.00    -0.343 C  
HETATM    3  C   UNL     1     -12.326  14.053  70.358  1.00  0.00    -0.359 C  
ENDROOT
BRANCH   3   4
HETATM    4  N   UNL     1     -12.093  15.167  69.447  1.00  0.00    -0.485 N  
HETATM    5  H   UNL     1     -12.368  16.111  69.719  1.00  0.00     0.000 HD 
BRANCH   4   6
HETATM    6  C   UNL     1     -11.502  14.951  68.219  1.00  0.00    -0.324 C  
HETATM    7  O   UNL     1     -12.205  14.683  67.243  1.00  0.00    -0.294 OA 
BRANCH   6   8
HETATM    8  N   UNL     1     -10.112  15.030  68.187  1.00  0.00    -0.219 N  
BRANCH   8   9
HETATM    9  C   UNL     1      -9.174  13.917  68.397  1.00  0.00    -0.194 C  
HETATM   10 CL   UNL     1      -9.895  12.434  66.202  1.00  0.00    -0.257 Cl 
HETATM   11  C   UNL     1      -9.743  12.564  67.974  1.00  0.00    -0.215 C  
ENDBRANCH   8   9
BRANCH   8  12
HETATM   12  N   UNL     1      -9.596  16.319  67.944  1.00  0.00    -0.226 NA 
HETATM   13  H   UNL     1      -8.981  16.309  67.130  1.00  0.00     0.000 HD 
HETATM   14  H   UNL     1     -10.110  18.066  67.658  1.00  0.00     0.000 HD 
HETATM   15  O   UNL     1     -10.458  17.197  67.822  1.00  0.00    -0.336 OA 
ENDBRANCH   8  12
ENDBRANCH   6   8
ENDBRANCH   4   6
ENDBRANCH   3   4
TORSDOF 5
ENDMDL
MODEL      159
REMARK 921   NORMALIZED FREE ENERGY PREDICTED BY IDOCK:   -3.16 KCAL/MOL
REMARK 922        TOTAL FREE ENERGY PREDICTED BY IDOCK:   -4.17 KCAL/MOL
REMARK 923 INTER-LIGAND FREE ENERGY PREDICTED BY IDOCK:   -3.46 KCAL/MOL
REMARK 924 INTRA-LIGAND FREE ENERGY PREDICTED BY IDOCK:   -0.71 KCAL/MOL
REMARK 927      BINDING AFFINITY PREDICTED BY RF-SCORE:    0.00 PKD
ROOT
HETATM    1 CL   UNL     1     -12.425  11.916  63.950  1.00  0.00    -0.507 Cl 
HETATM    2  C   UNL     1     -10.743  12.504  63.894  1.00  0.00    -0.437 C  
HETATM    3  C   UNL     1     -10.017  12.249  65.211  1.00  0.00    -0.230 C  
ENDROOT
BRANCH   3   4
HETATM    4  N   UNL     1     -10.672  12.864  66.358  1.00  0.00    -0.268 N  
HETATM    5  H   UNL     1     -10.903  13.857  66.339  1.00  0.00     0.000 HD 
BRANCH   4   6
HETATM    6  C   UNL     1     -10.983  12.108  67.470  1.00  0.00    -0.257 C  
HETATM    7  O   UNL     1     -12.137  11.710  67.635  1.00  0.00    -0.615 OA 
BRANCH   6   8
HETATM    8  N   UNL     1      -9.936  11.871  68.358  1.00  0.00    -0.201 N  
BRANCH   8   9
HETATM    9  C   UNL     1      -9.547  10.565  68.912  1.00  0.00    -0.193 C  
HETATM   10 CL   UNL     1      -7.687   9.914  67.000  1.00  0.00    -0.095 Cl 
HETATM   11  C   UNL     1      -9.215   9.531  67.838  1.00  0.00    -0.125 C  
ENDBRANCH   8   9
BRANCH   8  12
HETATM   12  N   UNL     1      -9.217  13.019  68.749  1.00  0.00    -0.395 NA 
HETATM   13  H   UNL     1      -9.077  13.024  69.759  1.00  0.00     0.000 HD 
HETATM   14  H   UNL     1      -7.655  13.942  68.426  1.00  0.00     0.000 HD 
HETATM   15  O   UNL     1      -8.139  13.168  68.163  1.00  0.00    -0.138 OA 
ENDBRANCH   8  12
ENDBRANCH   6   8
ENDBRANCH   4   6
ENDBRANCH   3   4
TORSDOF 5
ENDMDL
MODEL      160
REMARK 921   NORMALIZED FREE ENERGY PREDICTED BY IDOCK:   -3.15 KCAL/MOL
REMARK 922        TOTAL FREE ENERGY PREDICTED BY IDOCK:   -4.16 KCAL/MOL
REMARK 923 INTER-LIGAND FREE ENERGY PREDICTED BY IDOCK:   -3.66 KCAL/MOL
REMARK 924 INTRA-LIGAND FREE ENERGY PREDICTED BY IDOCK:   -0.49 KCAL/MOL
REMARK 927      BINDING AFFINITY PREDICTED BY RF-SCORE:    0.00 PKD
ROOT
HETATM    1 CL   UNL     1      -9.014   7.907  73.697  1.00  0.00    -0.331 Cl 
HETATM    2  C   UNL     1     -10.450   6.851  73.661  1.00  0.00    -0.369 C  
HETATM    3  C   UNL     1     -10.349   5.806  72.555  1.00  0.00    -0.198 C  
ENDROOT
BRANCH   3   4
HETATM    4  N   UNL     1     -10.181   6.386  71.229  1.00  0.00    -0.198 N  
HETATM    5  H   UNL     1      -9.313   6.234  70.715  1.00  0.00     0.000 HD 
BRANCH   4   6
HETATM    6  C   UNL     1     -11.190   7.139  70.665  1.00  0.00    -0.280 C  
HETATM    7  O   UNL     1     -12.366   6.837  70.874  1.00  0.00    -0.381 OA 
BRANCH   6   8
HETATM    8  N   UNL     1     -10.783   8.200  69.858  1.00  0.00    -0.246 N  
BRANCH   8   9
HETATM    9  C   UNL     1     -10.361   9.530  70.321  1.00  0.00    -0.269 C  
HETATM   10 CL   UNL     1     -12.783  10.331  71.337  1.00  0.00    -0.505 Cl 
HETATM   11  C   UNL     1     -11.452  10.590  70.178  1.00  0.00    -0.325 C  
ENDBRANCH   8   9
BRANCH   8  12
HETATM   12  N   UNL     1     -10.807   7.935  68.474  1.00  0.00    -0.416 NA 
HETATM   13  H   UNL     1     -10.684   8.799  67.945  1.00  0.00     0.000 HD 
HETATM   14  H   UNL     1     -10.009   6.904  67.171  1.00  0.00     0.000 HD 
HETATM   15  O   UNL     1      -9.992   7.083  68.104  1.00  0.00    -0.143 OA 
ENDBRANCH   8  12
ENDBRANCH   6   8
ENDBRANCH   4   6
ENDBRANCH   3   4
TORSDOF 5
ENDMDL
MODEL      161
REMARK 921   NORMALIZED FREE ENERGY PREDICTED BY IDOCK:   -3.15 KCAL/MOL
REMARK 922        TOTAL FREE ENERGY PREDICTED BY IDOCK:   -4.15 KCAL/MOL
REMARK 923 INTER-LIGAND FREE ENERGY PREDICTED BY IDOCK:   -4.13 KCAL/MOL
REMARK 924 INTRA-LIGAND FREE ENERGY PREDICTED BY IDOCK:   -0.02 KCAL/MOL
REMARK 927      BINDING AFFINITY PREDICTED BY RF-SCORE:    0.00 PKD
ROOT
HETATM    1 CL   UNL     1     -10.301  12.272  67.724  1.00  0.00    -0.207 Cl 
HETATM    2  C   UNL     1     -11.753  12.372  66.694  1.00  0.00    -0.372 C  
HETATM    3  C   UNL     1     -11.951  13.779  66.141  1.00  0.00    -0.418 C  
ENDROOT
BRANCH   3   4
HETATM    4  N   UNL     1     -12.062  14.795  67.179  1.00  0.00    -0.447 N  
HETATM    5  H   UNL     1     -12.857  14.783  67.819  1.00  0.00     0.000 HD 
BRANCH   4   6
HETATM    6  C   UNL     1     -11.098  15.775  67.301  1.00  0.00    -0.211 C  
HETATM    7  O   UNL     1     -11.131  16.547  68.260  1.00  0.00    -0.355 OA 
BRANCH   6   8
HETATM    8  N   UNL     1     -10.150  15.829  66.281  1.00  0.00    -0.284 N  
BRANCH   8   9
HETATM    9  C   UNL     1      -8.876  15.096  66.241  1.00  0.00    -0.176 C  
HETATM   10 CL   UNL     1      -8.034  15.718  68.779  1.00  0.00    -0.166 Cl 
HETATM   11  C   UNL     1      -7.759  15.789  67.018  1.00  0.00    -0.232 C  
ENDBRANCH   8   9
BRANCH   8  12
HETATM   12  N   UNL     1     -10.475  16.691  65.214  1.00  0.00    -0.652 NA 
HETATM   13  H   UNL     1     -11.428  16.516  64.892  1.00  0.00     0.000 HD 
HETATM   14  H   UNL     1     -10.536  18.472  64.743  1.00  0.00     0.000 HD 
HETATM   15  O   UNL     1     -10.318  17.891  65.462  1.00  0.00    -0.616 OA 
ENDBRANCH   8  12
ENDBRANCH   6   8
ENDBRANCH   4   6
ENDBRANCH   3   4
TORSDOF 5
ENDMDL
MODEL      162
REMARK 921   NORMALIZED FREE ENERGY PREDICTED BY IDOCK:   -3.14 KCAL/MOL
REMARK 922        TOTAL FREE ENERGY PREDICTED BY IDOCK:   -4.14 KCAL/MOL
REMARK 923 INTER-LIGAND FREE ENERGY PREDICTED BY IDOCK:   -3.58 KCAL/MOL
REMARK 924 INTRA-LIGAND FREE ENERGY PREDICTED BY IDOCK:   -0.56 KCAL/MOL
REMARK 927      BINDING AFFINITY PREDICTED BY RF-SCORE:    0.00 PKD
ROOT
HETATM    1 CL   UNL     1      -8.791   8.497  65.633  1.00  0.00    -0.214 Cl 
HETATM    2  C   UNL     1      -9.975   9.830  65.676  1.00  0.00    -0.282 C  
HETATM    3  C   UNL     1     -10.336  10.212  67.107  1.00  0.00    -0.238 C  
ENDROOT
BRANCH   3   4
HETATM    4  N   UNL     1     -10.877   9.102  67.881  1.00  0.00    -0.477 N  
HETATM    5  H   UNL     1     -11.748   8.659  67.591  1.00  0.00     0.000 HD 
BRANCH   4   6
HETATM    6  C   UNL     1     -10.216   8.648  69.004  1.00  0.00    -0.207 C  
HETATM    7  O   UNL     1      -9.134   9.148  69.319  1.00  0.00    -0.140 OA 
BRANCH   6   8
HETATM    8  N   UNL     1     -10.833   7.610  69.698  1.00  0.00    -0.226 N  
BRANCH   8   9
HETATM    9  C   UNL     1     -10.862   7.439  71.158  1.00  0.00    -0.242 C  
HETATM   10 CL   UNL     1     -13.252   8.712  71.613  1.00  0.00    -0.363 Cl 
HETATM   11  C   UNL     1     -11.492   8.622  71.890  1.00  0.00    -0.348 C  
ENDBRANCH   8   9
BRANCH   8  12
HETATM   12  N   UNL     1     -11.466   6.647  68.886  1.00  0.00    -0.602 NA 
HETATM   13  H   UNL     1     -12.301   7.041  68.452  1.00  0.00     0.000 HD 
HETATM   14  H   UNL     1     -11.158   5.491  67.485  1.00  0.00     0.000 HD 
HETATM   15  O   UNL     1     -10.732   6.141  68.031  1.00  0.00    -0.239 OA 
ENDBRANCH   8  12
ENDBRANCH   6   8
ENDBRANCH   4   6
ENDBRANCH   3   4
TORSDOF 5
ENDMDL
MODEL      163
REMARK 921   NORMALIZED FREE ENERGY PREDICTED BY IDOCK:   -3.14 KCAL/MOL
REMARK 922        TOTAL FREE ENERGY PREDICTED BY IDOCK:   -4.14 KCAL/MOL
REMARK 923 INTER-LIGAND FREE ENERGY PREDICTED BY IDOCK:   -3.67 KCAL/MOL
REMARK 924 INTRA-LIGAND FREE ENERGY PREDICTED BY IDOCK:   -0.47 KCAL/MOL
REMARK 927      BINDING AFFINITY PREDICTED BY RF-SCORE:    0.00 PKD
ROOT
HETATM    1 CL   UNL     1     -13.165  11.685  71.876  1.00  0.00    -0.559 Cl 
HETATM    2  C   UNL     1     -13.183  10.233  70.841  1.00  0.00    -0.277 C  
HETATM    3  C   UNL     1     -13.167   8.954  71.670  1.00  0.00    -0.362 C  
ENDROOT
BRANCH   3   4
HETATM    4  N   UNL     1     -12.018   8.859  72.561  1.00  0.00    -0.249 N  
HETATM    5  H   UNL     1     -11.856   9.585  73.259  1.00  0.00     0.000 HD 
BRANCH   4   6
HETATM    6  C   UNL     1     -11.147   7.793  72.464  1.00  0.00    -0.346 C  
HETATM    7  O   UNL     1     -10.805   7.190  73.482  1.00  0.00    -0.361 OA 
BRANCH   6   8
HETATM    8  N   UNL     1     -10.691   7.492  71.182  1.00  0.00    -0.226 N  
BRANCH   8   9
HETATM    9  C   UNL     1     -11.234   6.459  70.288  1.00  0.00    -0.382 C  
HETATM   10 CL   UNL     1     -10.041   4.296  71.486  1.00  0.00    -0.239 Cl 
HETATM   11  C   UNL     1     -10.260   5.310  70.035  1.00  0.00    -0.288 C  
ENDBRANCH   8   9
BRANCH   8  12
HETATM   12  N   UNL     1      -9.595   8.264  70.746  1.00  0.00    -0.169 NA 
HETATM   13  H   UNL     1      -9.011   7.723  70.108  1.00  0.00     0.000 HD 
HETATM   14  H   UNL     1      -9.165   9.866  69.943  1.00  0.00     0.000 HD 
HETATM   15  O   UNL     1      -9.904   9.346  70.236  1.00  0.00    -0.209 OA 
ENDBRANCH   8  12
ENDBRANCH   6   8
ENDBRANCH   4   6
ENDBRANCH   3   4
TORSDOF 5
ENDMDL
MODEL      164
REMARK 921   NORMALIZED FREE ENERGY PREDICTED BY IDOCK:   -3.14 KCAL/MOL
REMARK 922        TOTAL FREE ENERGY PREDICTED BY IDOCK:   -4.13 KCAL/MOL
REMARK 923 INTER-LIGAND FREE ENERGY PREDICTED BY IDOCK:   -3.60 KCAL/MOL
REMARK 924 INTRA-LIGAND FREE ENERGY PREDICTED BY IDOCK:   -0.54 KCAL/MOL
REMARK 927      BINDING AFFINITY PREDICTED BY RF-SCORE:    0.00 PKD
ROOT
HETATM    1 CL   UNL     1     -12.157  13.345  69.837  1.00  0.00    -0.396 Cl 
HETATM    2  C   UNL     1     -11.024  12.078  69.299  1.00  0.00    -0.131 C  
HETATM    3  C   UNL     1     -11.760  10.893  68.685  1.00  0.00    -0.263 C  
ENDROOT
BRANCH   3   4
HETATM    4  N   UNL     1     -12.723  10.281  69.591  1.00  0.00    -0.369 N  
HETATM    5  H   UNL     1     -13.698  10.185  69.305  1.00  0.00     0.000 HD 
BRANCH   4   6
HETATM    6  C   UNL     1     -12.324   9.833  70.833  1.00  0.00    -0.290 C  
HETATM    7  O   UNL     1     -12.724  10.408  71.847  1.00  0.00    -0.420 OA 
BRANCH   6   8
HETATM    8  N   UNL     1     -11.452   8.746  70.839  1.00  0.00    -0.280 N  
BRANCH   8   9
HETATM    9  C   UNL     1     -10.055   8.756  71.297  1.00  0.00    -0.266 C  
HETATM   10 CL   UNL     1     -10.335   6.917  73.316  1.00  0.00    -0.280 Cl 
HETATM   11  C   UNL     1      -9.916   8.575  72.807  1.00  0.00    -0.123 C  
ENDBRANCH   8   9
BRANCH   8  12
HETATM   12  N   UNL     1     -11.996   7.546  70.336  1.00  0.00    -0.509 NA 
HETATM   13  H   UNL     1     -11.284   6.816  70.310  1.00  0.00     0.000 HD 
HETATM   14  H   UNL     1     -13.365   6.342  70.599  1.00  0.00     0.000 HD 
HETATM   15  O   UNL     1     -12.999   7.150  70.939  1.00  0.00    -0.269 OA 
ENDBRANCH   8  12
ENDBRANCH   6   8
ENDBRANCH   4   6
ENDBRANCH   3   4
TORSDOF 5
ENDMDL
MODEL      165
REMARK 921   NORMALIZED FREE ENERGY PREDICTED BY IDOCK:   -3.13 KCAL/MOL
REMARK 922        TOTAL FREE ENERGY PREDICTED BY IDOCK:   -4.13 KCAL/MOL
REMARK 923 INTER-LIGAND FREE ENERGY PREDICTED BY IDOCK:   -3.79 KCAL/MOL
REMARK 924 INTRA-LIGAND FREE ENERGY PREDICTED BY IDOCK:   -0.33 KCAL/MOL
REMARK 927      BINDING AFFINITY PREDICTED BY RF-SCORE:    0.00 PKD
ROOT
HETATM    1 CL   UNL     1      -8.429   8.292  67.035  1.00  0.00    -0.121 Cl 
HETATM    2  C   UNL     1      -9.999   8.818  66.374  1.00  0.00    -0.275 C  
HETATM    3  C   UNL     1     -10.768   9.674  67.373  1.00  0.00    -0.241 C  
ENDROOT
BRANCH   3   4
HETATM    4  N   UNL     1     -11.015   8.999  68.641  1.00  0.00    -0.448 N  
HETATM    5  H   UNL     1     -11.531   8.119  68.656  1.00  0.00     0.000 HD 
BRANCH   4   6
HETATM    6  C   UNL     1     -10.554   9.544  69.822  1.00  0.00    -0.236 C  
HETATM    7  O   UNL     1      -9.415  10.011  69.874  1.00  0.00    -0.225 OA 
BRANCH   6   8
HETATM    8  N   UNL     1     -11.433   9.497  70.901  1.00  0.00    -0.307 N  
BRANCH   8   9
HETATM    9  C   UNL     1     -12.810  10.012  70.922  1.00  0.00    -0.324 C  
HETATM   10 CL   UNL     1     -12.193  12.674  70.663  1.00  0.00    -0.442 Cl 
HETATM   11  C   UNL     1     -12.936  11.365  71.619  1.00  0.00    -0.418 C  
ENDBRANCH   8   9
BRANCH   8  12
HETATM   12  N   UNL     1     -10.909   8.906  72.069  1.00  0.00    -0.358 NA 
HETATM   13  H   UNL     1     -10.530   9.620  72.690  1.00  0.00     0.000 HD 
HETATM   14  H   UNL     1     -11.354   7.786  73.463  1.00  0.00     0.000 HD 
HETATM   15  O   UNL     1     -11.707   8.184  72.677  1.00  0.00    -0.399 OA 
ENDBRANCH   8  12
ENDBRANCH   6   8
ENDBRANCH   4   6
ENDBRANCH   3   4
TORSDOF 5
ENDMDL
MODEL      166
REMARK 921   NORMALIZED FREE ENERGY PREDICTED BY IDOCK:   -3.13 KCAL/MOL
REMARK 922        TOTAL FREE ENERGY PREDICTED BY IDOCK:   -4.12 KCAL/MOL
REMARK 923 INTER-LIGAND FREE ENERGY PREDICTED BY IDOCK:   -3.86 KCAL/MOL
REMARK 924 INTRA-LIGAND FREE ENERGY PREDICTED BY IDOCK:   -0.26 KCAL/MOL
REMARK 927      BINDING AFFINITY PREDICTED BY RF-SCORE:    0.00 PKD
ROOT
HETATM    1 CL   UNL     1      -8.949  14.391  67.033  1.00  0.00    -0.243 Cl 
HETATM    2  C   UNL     1     -10.442  14.861  66.180  1.00  0.00    -0.306 C  
HETATM    3  C   UNL     1     -10.567  16.375  66.063  1.00  0.00    -0.269 C  
ENDROOT
BRANCH   3   4
HETATM    4  N   UNL     1     -10.550  17.056  67.352  1.00  0.00    -0.317 N  
HETATM    5  H   UNL     1     -11.047  16.652  68.146  1.00  0.00     0.000 HD 
BRANCH   4   6
HETATM    6  C   UNL     1      -9.865  18.244  67.503  1.00  0.00    -0.317 C  
HETATM    7  O   UNL     1     -10.475  19.261  67.837  1.00  0.00    -0.403 OA 
BRANCH   6   8
HETATM    8  N   UNL     1      -8.499  18.201  67.233  1.00  0.00    -0.239 N  
BRANCH   8   9
HETATM    9  C   UNL     1      -7.463  17.604  68.088  1.00  0.00    -0.231 C  
HETATM   10 CL   UNL     1      -6.915  19.839  69.585  1.00  0.00    -0.329 Cl 
HETATM   11  C   UNL     1      -6.348  18.581  68.454  1.00  0.00    -0.212 C  
ENDBRANCH   8   9
BRANCH   8  12
HETATM   12  N   UNL     1      -8.114  18.811  66.021  1.00  0.00    -0.474 NA 
HETATM   13  H   UNL     1      -7.733  19.741  66.197  1.00  0.00     0.000 HD 
HETATM   14  H   UNL     1      -7.069  18.554  64.526  1.00  0.00     0.000 HD 
HETATM   15  O   UNL     1      -7.327  18.143  65.342  1.00  0.00    -0.520 OA 
ENDBRANCH   8  12
ENDBRANCH   6   8
ENDBRANCH   4   6
ENDBRANCH   3   4
TORSDOF 5
ENDMDL
MODEL      167
REMARK 921   NORMALIZED FREE ENERGY PREDICTED BY IDOCK:   -3.13 KCAL/MOL
REMARK 922        TOTAL FREE ENERGY PREDICTED BY IDOCK:   -4.12 KCAL/MOL
REMARK 923 INTER-LIGAND FREE ENERGY PREDICTED BY IDOCK:   -3.94 KCAL/MOL
REMARK 924 INTRA-LIGAND FREE ENERGY PREDICTED BY IDOCK:   -0.18 KCAL/MOL
REMARK 927      BINDING AFFINITY PREDICTED BY RF-SCORE:    0.00 PKD
ROOT
HETATM    1 CL   UNL     1     -11.425   4.561  73.250  1.00  0.00    -0.366 Cl 
HETATM    2  C   UNL     1     -10.199   5.808  72.900  1.00  0.00    -0.190 C  
HETATM    3  C   UNL     1     -10.617   7.171  73.439  1.00  0.00    -0.382 C  
ENDROOT
BRANCH   3   4
HETATM    4  N   UNL     1     -11.895   7.632  72.911  1.00  0.00    -0.607 N  
HETATM    5  H   UNL     1     -12.680   7.785  73.543  1.00  0.00     0.000 HD 
BRANCH   4   6
HETATM    6  C   UNL     1     -12.046   7.863  71.559  1.00  0.00    -0.306 C  
HETATM    7  O   UNL     1     -12.493   6.971  70.835  1.00  0.00    -0.366 OA 
BRANCH   6   8
HETATM    8  N   UNL     1     -11.645   9.117  71.104  1.00  0.00    -0.295 N  
BRANCH   8   9
HETATM    9  C   UNL     1     -12.437  10.354  71.158  1.00  0.00    -0.404 C  
HETATM   10 CL   UNL     1     -12.132  11.080  68.528  1.00  0.00    -0.216 Cl 
HETATM   11  C   UNL     1     -11.890  11.458  70.254  1.00  0.00    -0.350 C  
ENDBRANCH   8   9
BRANCH   8  12
HETATM   12  N   UNL     1     -10.357   9.156  70.532  1.00  0.00    -0.217 NA 
HETATM   13  H   UNL     1     -10.291   9.916  69.855  1.00  0.00     0.000 HD 
HETATM   14  H   UNL     1      -8.569   9.254  70.967  1.00  0.00     0.000 HD 
HETATM   15  O   UNL     1      -9.437   9.229  71.353  1.00  0.00    -0.245 OA 
ENDBRANCH   8  12
ENDBRANCH   6   8
ENDBRANCH   4   6
ENDBRANCH   3   4
TORSDOF 5
ENDMDL
MODEL      168
REMARK 921   NORMALIZED FREE ENERGY PREDICTED BY IDOCK:   -3.12 KCAL/MOL
REMARK 922        TOTAL FREE ENERGY PREDICTED BY IDOCK:   -4.11 KCAL/MOL
REMARK 923 INTER-LIGAND FREE ENERGY PREDICTED BY IDOCK:   -3.55 KCAL/MOL
REMARK 924 INTRA-LIGAND FREE ENERGY PREDICTED BY IDOCK:   -0.56 KCAL/MOL
REMARK 927      BINDING AFFINITY PREDICTED BY RF-SCORE:    0.00 PKD
ROOT
HETATM    1 CL   UNL     1      -7.056  14.752  69.988  1.00  0.00    -0.115 Cl 
HETATM    2  C   UNL     1      -8.012  15.698  68.818  1.00  0.00    -0.172 C  
HETATM    3  C   UNL     1      -9.467  15.822  69.255  1.00  0.00    -0.270 C  
ENDROOT
BRANCH   3   4
HETATM    4  N   UNL     1     -10.125  14.534  69.440  1.00  0.00    -0.419 N  
HETATM    5  H   UNL     1      -9.841  13.925  70.208  1.00  0.00     0.000 HD 
BRANCH   4   6
HETATM    6  C   UNL     1     -11.129  14.135  68.582  1.00  0.00    -0.262 C  
HETATM    7  O   UNL     1     -12.264  13.940  69.020  1.00  0.00    -0.350 OA 
BRANCH   6   8
HETATM    8  N   UNL     1     -10.759  13.955  67.251  1.00  0.00    -0.282 N  
BRANCH   8   9
HETATM    9  C   UNL     1     -11.262  14.718  66.099  1.00  0.00    -0.337 C  
HETATM   10 CL   UNL     1     -12.546  12.644  64.839  1.00  0.00    -0.571 Cl 
HETATM   11  C   UNL     1     -11.287  13.907  64.805  1.00  0.00    -0.363 C  
ENDBRANCH   8   9
BRANCH   8  12
HETATM   12  N   UNL     1      -9.823  12.924  67.030  1.00  0.00    -0.228 NA 
HETATM   13  H   UNL     1      -8.874  13.266  67.184  1.00  0.00     0.000 HD 
HETATM   14  H   UNL     1      -9.396  11.206  67.542  1.00  0.00     0.000 HD 
HETATM   15  O   UNL     1     -10.026  11.901  67.692  1.00  0.00    -0.185 OA 
ENDBRANCH   8  12
ENDBRANCH   6   8
ENDBRANCH   4   6
ENDBRANCH   3   4
TORSDOF 5
ENDMDL
MODEL      169
REMARK 921   NORMALIZED FREE ENERGY PREDICTED BY IDOCK:   -3.12 KCAL/MOL
REMARK 922        TOTAL FREE ENERGY PREDICTED BY IDOCK:   -4.11 KCAL/MOL
REMARK 923 INTER-LIGAND FREE ENERGY PREDICTED BY IDOCK:   -3.82 KCAL/MOL
REMARK 924 INTRA-LIGAND FREE ENERGY PREDICTED BY IDOCK:   -0.29 KCAL/MOL
REMARK 927      BINDING AFFINITY PREDICTED BY RF-SCORE:    0.00 PKD
ROOT
HETATM    1 CL   UNL     1      -9.018  17.015  68.608  1.00  0.00    -0.265 Cl 
HETATM    2  C   UNL     1      -8.933  15.536  67.616  1.00  0.00    -0.184 C  
HETATM    3  C   UNL     1     -10.172  15.375  66.744  1.00  0.00    -0.271 C  
ENDROOT
BRANCH   3   4
HETATM    4  N   UNL     1     -11.413  15.337  67.507  1.00  0.00    -0.309 N  
HETATM    5  H   UNL     1     -11.957  16.190  67.634  1.00  0.00     0.000 HD 
BRANCH   4   6
HETATM    6  C   UNL     1     -11.855  14.152  68.059  1.00  0.00    -0.365 C  
HETATM    7  O   UNL     1     -12.470  13.345  67.359  1.00  0.00    -0.166 OA 
BRANCH   6   8
HETATM    8  N   UNL     1     -11.583  13.970  69.413  1.00  0.00    -0.278 N  
BRANCH   8   9
HETATM    9  C   UNL     1     -11.706  14.988  70.467  1.00  0.00    -0.297 C  
HETATM   10 CL   UNL     1     -13.912  13.932  71.716  1.00  0.00    -0.449 Cl 
HETATM   11  C   UNL     1     -13.155  15.291  70.843  1.00  0.00    -0.464 C  
ENDBRANCH   8   9
BRANCH   8  12
HETATM   12  N   UNL     1     -11.136  12.679  69.761  1.00  0.00    -0.462 NA 
HETATM   13  H   UNL     1     -10.466  12.730  70.528  1.00  0.00     0.000 HD 
HETATM   14  H   UNL     1     -11.739  11.012  70.263  1.00  0.00     0.000 HD 
HETATM   15  O   UNL     1     -12.041  11.882  70.029  1.00  0.00    -0.311 OA 
ENDBRANCH   8  12
ENDBRANCH   6   8
ENDBRANCH   4   6
ENDBRANCH   3   4
TORSDOF 5
ENDMDL
MODEL      170
REMARK 921   NORMALIZED FREE ENERGY PREDICTED BY IDOCK:   -3.11 KCAL/MOL
REMARK 922        TOTAL FREE ENERGY PREDICTED BY IDOCK:   -4.11 KCAL/MOL
REMARK 923 INTER-LIGAND FREE ENERGY PREDICTED BY IDOCK:   -3.79 KCAL/MOL
REMARK 924 INTRA-LIGAND FREE ENERGY PREDICTED BY IDOCK:   -0.31 KCAL/MOL
REMARK 927      BINDING AFFINITY PREDICTED BY RF-SCORE:    0.00 PKD
ROOT
HETATM    1 CL   UNL     1     -13.395  10.757  71.981  1.00  0.00    -0.506 Cl 
HETATM    2  C   UNL     1     -12.434   9.549  71.089  1.00  0.00    -0.315 C  
HETATM    3  C   UNL     1     -11.079  10.109  70.672  1.00  0.00    -0.322 C  
ENDROOT
BRANCH   3   4
HETATM    4  N   UNL     1     -11.179  11.305  69.847  1.00  0.00    -0.446 N  
HETATM    5  H   UNL     1     -11.249  12.222  70.288  1.00  0.00     0.000 HD 
BRANCH   4   6
HETATM    6  C   UNL     1     -11.180  11.204  68.470  1.00  0.00    -0.258 C  
HETATM    7  O   UNL     1     -12.247  11.249  67.857  1.00  0.00    -0.570 OA 
BRANCH   6   8
HETATM    8  N   UNL     1      -9.935  11.028  67.870  1.00  0.00    -0.171 N  
BRANCH   8   9
HETATM    9  C   UNL     1      -9.319   9.742  67.510  1.00  0.00    -0.133 C  
HETATM   10 CL   UNL     1      -9.716   9.911  64.799  1.00  0.00    -0.360 Cl 
HETATM   11  C   UNL     1     -10.010   9.053  66.335  1.00  0.00    -0.300 C  
ENDBRANCH   8   9
BRANCH   8  12
HETATM   12  N   UNL     1      -9.225  12.219  67.615  1.00  0.00    -0.177 NA 
HETATM   13  H   UNL     1      -8.278  12.008  67.299  1.00  0.00     0.000 HD 
HETATM   14  H   UNL     1      -9.306  13.787  66.651  1.00  0.00     0.000 HD 
HETATM   15  O   UNL     1      -9.784  12.985  66.823  1.00  0.00    -0.234 OA 
ENDBRANCH   8  12
ENDBRANCH   6   8
ENDBRANCH   4   6
ENDBRANCH   3   4
TORSDOF 5
ENDMDL
MODEL      171
REMARK 921   NORMALIZED FREE ENERGY PREDICTED BY IDOCK:   -3.11 KCAL/MOL
REMARK 922        TOTAL FREE ENERGY PREDICTED BY IDOCK:   -4.10 KCAL/MOL
REMARK 923 INTER-LIGAND FREE ENERGY PREDICTED BY IDOCK:   -3.47 KCAL/MOL
REMARK 924 INTRA-LIGAND FREE ENERGY PREDICTED BY IDOCK:   -0.63 KCAL/MOL
REMARK 927      BINDING AFFINITY PREDICTED BY RF-SCORE:    0.00 PKD
ROOT
HETATM    1 CL   UNL     1     -10.657  18.838  65.923  1.00  0.00    -0.493 Cl 
HETATM    2  C   UNL     1     -10.058  18.364  67.534  1.00  0.00    -0.357 C  
HETATM    3  C   UNL     1      -8.605  17.906  67.478  1.00  0.00    -0.239 C  
ENDROOT
BRANCH   3   4
HETATM    4  N   UNL     1      -8.387  16.790  66.567  1.00  0.00    -0.257 N  
HETATM    5  H   UNL     1      -8.209  16.968  65.579  1.00  0.00     0.000 HD 
BRANCH   4   6
HETATM    6  C   UNL     1      -8.420  15.492  67.036  1.00  0.00    -0.235 C  
HETATM    7  O   UNL     1      -7.438  15.029  67.618  1.00  0.00    -0.146 OA 
BRANCH   6   8
HETATM    8  N   UNL     1      -9.591  14.781  66.782  1.00  0.00    -0.242 N  
BRANCH   8   9
HETATM    9  C   UNL     1     -10.440  14.121  67.784  1.00  0.00    -0.246 C  
HETATM   10 CL   UNL     1      -8.930  11.847  68.080  1.00  0.00    -0.178 Cl 
HETATM   11  C   UNL     1     -10.482  12.602  67.630  1.00  0.00    -0.219 C  
ENDBRANCH   8   9
BRANCH   8  12
HETATM   12  N   UNL     1      -9.951  14.697  65.421  1.00  0.00    -0.455 NA 
HETATM   13  H   UNL     1     -10.235  13.746  65.186  1.00  0.00     0.000 HD 
HETATM   14  H   UNL     1     -11.061  15.449  64.157  1.00  0.00     0.000 HD 
HETATM   15  O   UNL     1     -10.819  15.505  65.074  1.00  0.00    -0.407 OA 
ENDBRANCH   8  12
ENDBRANCH   6   8
ENDBRANCH   4   6
ENDBRANCH   3   4
TORSDOF 5
ENDMDL
MODEL      172
REMARK 921   NORMALIZED FREE ENERGY PREDICTED BY IDOCK:   -3.11 KCAL/MOL
REMARK 922        TOTAL FREE ENERGY PREDICTED BY IDOCK:   -4.10 KCAL/MOL
REMARK 923 INTER-LIGAND FREE ENERGY PREDICTED BY IDOCK:   -3.81 KCAL/MOL
REMARK 924 INTRA-LIGAND FREE ENERGY PREDICTED BY IDOCK:   -0.29 KCAL/MOL
REMARK 927      BINDING AFFINITY PREDICTED BY RF-SCORE:    0.00 PKD
ROOT
HETATM    1 CL   UNL     1     -12.312  15.968  72.552  1.00  0.00    -0.550 Cl 
HETATM    2  C   UNL     1     -13.397  15.294  71.309  1.00  0.00    -0.510 C  
HETATM    3  C   UNL     1     -12.641  14.403  70.329  1.00  0.00    -0.323 C  
ENDROOT
BRANCH   3   4
HETATM    4  N   UNL     1     -11.549  15.089  69.651  1.00  0.00    -0.284 N  
HETATM    5  H   UNL     1     -10.951  15.730  70.173  1.00  0.00     0.000 HD 
BRANCH   4   6
HETATM    6  C   UNL     1     -11.320  14.876  68.307  1.00  0.00    -0.310 C  
HETATM    7  O   UNL     1     -12.000  14.051  67.696  1.00  0.00    -0.368 OA 
BRANCH   6   8
HETATM    8  N   UNL     1     -10.286  15.617  67.739  1.00  0.00    -0.260 N  
BRANCH   8   9
HETATM    9  C   UNL     1      -9.458  15.215  66.593  1.00  0.00    -0.263 C  
HETATM   10 CL   UNL     1      -7.024  15.903  67.662  1.00  0.00    -0.167 Cl 
HETATM   11  C   UNL     1      -8.245  16.120  66.380  1.00  0.00    -0.301 C  
ENDBRANCH   8   9
BRANCH   8  12
HETATM   12  N   UNL     1     -10.033  16.857  68.361  1.00  0.00    -0.260 NA 
HETATM   13  H   UNL     1      -9.285  17.352  67.876  1.00  0.00     0.000 HD 
HETATM   14  H   UNL     1     -10.858  18.417  68.893  1.00  0.00     0.000 HD 
HETATM   15  O   UNL     1     -11.028  17.582  68.474  1.00  0.00    -0.214 OA 
ENDBRANCH   8  12
ENDBRANCH   6   8
ENDBRANCH   4   6
ENDBRANCH   3   4
TORSDOF 5
ENDMDL
MODEL      173
REMARK 921   NORMALIZED FREE ENERGY PREDICTED BY IDOCK:   -3.10 KCAL/MOL
REMARK 922        TOTAL FREE ENERGY PREDICTED BY IDOCK:   -4.09 KCAL/MOL
REMARK 923 INTER-LIGAND FREE ENERGY PREDICTED BY IDOCK:   -3.55 KCAL/MOL
REMARK 924 INTRA-LIGAND FREE ENERGY PREDICTED BY IDOCK:   -0.55 KCAL/MOL
REMARK 927      BINDING AFFINITY PREDICTED BY RF-SCORE:    0.00 PKD
ROOT
HETATM    1 CL   UNL     1      -9.069   4.792  67.696  1.00  0.00    -0.120 Cl 
HETATM    2  C   UNL     1     -10.492   5.371  66.791  1.00  0.00    -0.289 C  
HETATM    3  C   UNL     1     -10.972   6.722  67.309  1.00  0.00    -0.363 C  
ENDROOT
BRANCH   3   4
HETATM    4  N   UNL     1     -11.313   6.708  68.726  1.00  0.00    -0.584 N  
HETATM    5  H   UNL     1     -11.956   6.004  69.086  1.00  0.00     0.000 HD 
BRANCH   4   6
HETATM    6  C   UNL     1     -10.769   7.643  69.582  1.00  0.00    -0.228 C  
HETATM    7  O   UNL     1     -10.346   8.709  69.132  1.00  0.00    -0.211 OA 
BRANCH   6   8
HETATM    8  N   UNL     1     -10.717   7.283  70.927  1.00  0.00    -0.231 N  
BRANCH   8   9
HETATM    9  C   UNL     1     -11.350   8.001  72.043  1.00  0.00    -0.302 C  
HETATM   10 CL   UNL     1     -13.928   7.182  71.570  1.00  0.00    -0.477 Cl 
HETATM   11  C   UNL     1     -12.750   8.514  71.711  1.00  0.00    -0.349 C  
ENDBRANCH   8   9
BRANCH   8  12
HETATM   12  N   UNL     1      -9.964   6.123  71.202  1.00  0.00    -0.181 NA 
HETATM   13  H   UNL     1      -9.291   6.305  71.947  1.00  0.00     0.000 HD 
HETATM   14  H   UNL     1     -10.137   4.345  71.654  1.00  0.00     0.000 HD 
HETATM   15  O   UNL     1     -10.644   5.126  71.469  1.00  0.00    -0.211 OA 
ENDBRANCH   8  12
ENDBRANCH   6   8
ENDBRANCH   4   6
ENDBRANCH   3   4
TORSDOF 5
ENDMDL
MODEL      174
REMARK 921   NORMALIZED FREE ENERGY PREDICTED BY IDOCK:   -3.10 KCAL/MOL
REMARK 922        TOTAL FREE ENERGY PREDICTED BY IDOCK:   -4.09 KCAL/MOL
REMARK 923 INTER-LIGAND FREE ENERGY PREDICTED BY IDOCK:   -4.12 KCAL/MOL
REMARK 924 INTRA-LIGAND FREE ENERGY PREDICTED BY IDOCK:    0.03 KCAL/MOL
REMARK 927      BINDING AFFINITY PREDICTED BY RF-SCORE:    0.00 PKD
ROOT
HETATM    1 CL   UNL     1     -13.170  15.642  71.179  1.00  0.00    -0.551 Cl 
HETATM    2  C   UNL     1     -13.152  13.905  70.780  1.00  0.00    -0.137 C  
HETATM    3  C   UNL     1     -12.142  13.593  69.682  1.00  0.00    -0.321 C  
ENDROOT
BRANCH   3   4
HETATM    4  N   UNL     1     -12.380  14.337  68.452  1.00  0.00    -0.577 N  
HETATM    5  H   UNL     1     -12.883  15.223  68.484  1.00  0.00     0.000 HD 
BRANCH   4   6
HETATM    6  C   UNL     1     -11.927  13.847  67.243  1.00  0.00    -0.411 C  
HETATM    7  O   UNL     1     -12.528  14.132  66.206  1.00  0.00    -0.466 OA 
BRANCH   6   8
HETATM    8  N   UNL     1     -10.805  13.023  67.300  1.00  0.00    -0.250 N  
BRANCH   8   9
HETATM    9  C   UNL     1      -9.497  13.375  67.871  1.00  0.00    -0.216 C  
HETATM   10 CL   UNL     1      -9.278  15.866  66.735  1.00  0.00    -0.244 Cl 
HETATM   11  C   UNL     1      -8.635  14.213  66.928  1.00  0.00    -0.133 C  
ENDBRANCH   8   9
BRANCH   8  12
HETATM   12  N   UNL     1     -10.979  11.745  66.731  1.00  0.00    -0.274 NA 
HETATM   13  H   UNL     1     -10.074  11.318  66.533  1.00  0.00     0.000 HD 
HETATM   14  H   UNL     1     -11.797  10.119  67.019  1.00  0.00     0.000 HD 
HETATM   15  O   UNL     1     -11.680  10.980  67.402  1.00  0.00    -0.539 OA 
ENDBRANCH   8  12
ENDBRANCH   6   8
ENDBRANCH   4   6
ENDBRANCH   3   4
TORSDOF 5
ENDMDL
MODEL      175
REMARK 921   NORMALIZED FREE ENERGY PREDICTED BY IDOCK:   -3.10 KCAL/MOL
REMARK 922        TOTAL FREE ENERGY PREDICTED BY IDOCK:   -4.09 KCAL/MOL
REMARK 923 INTER-LIGAND FREE ENERGY PREDICTED BY IDOCK:   -3.68 KCAL/MOL
REMARK 924 INTRA-LIGAND FREE ENERGY PREDICTED BY IDOCK:   -0.41 KCAL/MOL
REMARK 927      BINDING AFFINITY PREDICTED BY RF-SCORE:    0.00 PKD
ROOT
HETATM    1 CL   UNL     1      -7.980   9.102  63.629  1.00  0.00    -0.137 Cl 
HETATM    2  C   UNL     1      -8.865   9.984  62.357  1.00  0.00    -0.246 C  
HETATM    3  C   UNL     1      -9.546  11.231  62.911  1.00  0.00    -0.352 C  
ENDROOT
BRANCH   3   4
HETATM    4  N   UNL     1     -10.478  10.945  63.995  1.00  0.00    -0.449 N  
HETATM    5  H   UNL     1     -11.238  10.281  63.848  1.00  0.00     0.000 HD 
BRANCH   4   6
HETATM    6  C   UNL     1     -10.337  11.568  65.217  1.00  0.00    -0.272 C  
HETATM    7  O   UNL     1      -9.487  11.165  66.013  1.00  0.00    -0.193 OA 
BRANCH   6   8
HETATM    8  N   UNL     1     -11.213  12.621  65.471  1.00  0.00    -0.292 N  
BRANCH   8   9
HETATM    9  C   UNL     1     -11.098  13.604  66.558  1.00  0.00    -0.305 C  
HETATM   10 CL   UNL     1     -12.091  12.019  68.568  1.00  0.00    -0.251 Cl 
HETATM   11  C   UNL     1     -12.225  13.501  67.584  1.00  0.00    -0.175 C  
ENDBRANCH   8   9
BRANCH   8  12
HETATM   12  N   UNL     1     -12.308  12.708  64.586  1.00  0.00    -0.460 NA 
HETATM   13  H   UNL     1     -13.086  13.195  65.031  1.00  0.00     0.000 HD 
HETATM   14  H   UNL     1     -12.779  13.282  62.900  1.00  0.00     0.000 HD 
HETATM   15  O   UNL     1     -12.042  13.224  63.496  1.00  0.00    -0.547 OA 
ENDBRANCH   8  12
ENDBRANCH   6   8
ENDBRANCH   4   6
ENDBRANCH   3   4
TORSDOF 5
ENDMDL
MODEL      176
REMARK 921   NORMALIZED FREE ENERGY PREDICTED BY IDOCK:   -3.10 KCAL/MOL
REMARK 922        TOTAL FREE ENERGY PREDICTED BY IDOCK:   -4.09 KCAL/MOL
REMARK 923 INTER-LIGAND FREE ENERGY PREDICTED BY IDOCK:   -3.68 KCAL/MOL
REMARK 924 INTRA-LIGAND FREE ENERGY PREDICTED BY IDOCK:   -0.40 KCAL/MOL
REMARK 927      BINDING AFFINITY PREDICTED BY RF-SCORE:    0.00 PKD
ROOT
HETATM    1 CL   UNL     1     -14.382   7.334  71.530  1.00  0.00    -0.577 Cl 
HETATM    2  C   UNL     1     -14.018   8.969  72.141  1.00  0.00    -0.435 C  
HETATM    3  C   UNL     1     -12.561   9.346  71.897  1.00  0.00    -0.401 C  
ENDROOT
BRANCH   3   4
HETATM    4  N   UNL     1     -11.616   8.416  72.503  1.00  0.00    -0.381 N  
HETATM    5  H   UNL     1     -11.654   8.237  73.506  1.00  0.00     0.000 HD 
BRANCH   4   6
HETATM    6  C   UNL     1     -10.671   7.778  71.726  1.00  0.00    -0.223 C  
HETATM    7  O   UNL     1      -9.771   8.435  71.199  1.00  0.00    -0.167 OA 
BRANCH   6   8
HETATM    8  N   UNL     1     -10.832   6.403  71.576  1.00  0.00    -0.245 N  
BRANCH   8   9
HETATM    9  C   UNL     1     -11.136   5.442  72.646  1.00  0.00    -0.278 C  
HETATM   10 CL   UNL     1      -8.587   4.482  72.990  1.00  0.00    -0.105 Cl 
HETATM   11  C   UNL     1     -10.293   4.171  72.571  1.00  0.00    -0.159 C  
ENDBRANCH   8   9
BRANCH   8  12
HETATM   12  N   UNL     1     -10.663   5.926  70.259  1.00  0.00    -0.289 NA 
HETATM   13  H   UNL     1     -10.555   4.912  70.260  1.00  0.00     0.000 HD 
HETATM   14  H   UNL     1     -11.444   5.944  68.590  1.00  0.00     0.000 HD 
HETATM   15  O   UNL     1     -11.558   6.265  69.477  1.00  0.00    -0.423 OA 
ENDBRANCH   8  12
ENDBRANCH   6   8
ENDBRANCH   4   6
ENDBRANCH   3   4
TORSDOF 5
ENDMDL
MODEL      177
REMARK 921   NORMALIZED FREE ENERGY PREDICTED BY IDOCK:   -3.09 KCAL/MOL
REMARK 922        TOTAL FREE ENERGY PREDICTED BY IDOCK:   -4.07 KCAL/MOL
REMARK 923 INTER-LIGAND FREE ENERGY PREDICTED BY IDOCK:   -3.58 KCAL/MOL
REMARK 924 INTRA-LIGAND FREE ENERGY PREDICTED BY IDOCK:   -0.49 KCAL/MOL
REMARK 927      BINDING AFFINITY PREDICTED BY RF-SCORE:    0.00 PKD
ROOT
HETATM    1 CL   UNL     1     -11.620  15.768  70.623  1.00  0.00    -0.376 Cl 
HETATM    2  C   UNL     1     -10.504  16.734  69.623  1.00  0.00    -0.209 C  
HETATM    3  C   UNL     1     -10.899  16.699  68.151  1.00  0.00    -0.348 C  
ENDROOT
BRANCH   3   4
HETATM    4  N   UNL     1     -10.948  15.351  67.600  1.00  0.00    -0.309 N  
HETATM    5  H   UNL     1     -11.761  14.760  67.775  1.00  0.00     0.000 HD 
BRANCH   4   6
HETATM    6  C   UNL     1      -9.900  14.870  66.842  1.00  0.00    -0.240 C  
HETATM    7  O   UNL     1      -8.960  15.614  66.559  1.00  0.00    -0.254 OA 
BRANCH   6   8
HETATM    8  N   UNL     1     -10.007  13.545  66.424  1.00  0.00    -0.288 N  
BRANCH   8   9
HETATM    9  C   UNL     1     -10.434  13.086  65.094  1.00  0.00    -0.320 C  
HETATM   10 CL   UNL     1     -13.016  14.012  65.218  1.00  0.00    -0.422 Cl 
HETATM   11  C   UNL     1     -11.893  12.636  65.054  1.00  0.00    -0.395 C  
ENDBRANCH   8   9
BRANCH   8  12
HETATM   12  N   UNL     1      -9.679  12.586  67.404  1.00  0.00    -0.192 NA 
HETATM   13  H   UNL     1      -8.710  12.698  67.702  1.00  0.00     0.000 HD 
HETATM   14  H   UNL     1     -10.213  11.932  69.041  1.00  0.00     0.000 HD 
HETATM   15  O   UNL     1     -10.434  12.578  68.382  1.00  0.00    -0.229 OA 
ENDBRANCH   8  12
ENDBRANCH   6   8
ENDBRANCH   4   6
ENDBRANCH   3   4
TORSDOF 5
ENDMDL
MODEL      178
REMARK 921   NORMALIZED FREE ENERGY PREDICTED BY IDOCK:   -3.08 KCAL/MOL
REMARK 922        TOTAL FREE ENERGY PREDICTED BY IDOCK:   -4.06 KCAL/MOL
REMARK 923 INTER-LIGAND FREE ENERGY PREDICTED BY IDOCK:   -3.56 KCAL/MOL
REMARK 924 INTRA-LIGAND FREE ENERGY PREDICTED BY IDOCK:   -0.50 KCAL/MOL
REMARK 927      BINDING AFFINITY PREDICTED BY RF-SCORE:    0.00 PKD
ROOT
HETATM    1 CL   UNL     1      -9.458  11.175  66.883  1.00  0.00    -0.198 Cl 
HETATM    2  C   UNL     1     -11.195  11.291  67.269  1.00  0.00    -0.296 C  
HETATM    3  C   UNL     1     -11.494  10.766  68.668  1.00  0.00    -0.295 C  
ENDROOT
BRANCH   3   4
HETATM    4  N   UNL     1     -11.079   9.383  68.865  1.00  0.00    -0.448 N  
HETATM    5  H   UNL     1     -10.857   8.800  68.059  1.00  0.00     0.000 HD 
BRANCH   4   6
HETATM    6  C   UNL     1     -10.984   8.860  70.139  1.00  0.00    -0.227 C  
HETATM    7  O   UNL     1     -10.316   9.447  70.991  1.00  0.00    -0.286 OA 
BRANCH   6   8
HETATM    8  N   UNL     1     -11.652   7.657  70.356  1.00  0.00    -0.182 N  
BRANCH   8   9
HETATM    9  C   UNL     1     -12.527   7.343  71.495  1.00  0.00    -0.361 C  
HETATM   10 CL   UNL     1     -10.548   6.726  73.296  1.00  0.00    -0.304 Cl 
HETATM   11  C   UNL     1     -11.988   6.216  72.374  1.00  0.00    -0.190 C  
ENDBRANCH   8   9
BRANCH   8  12
HETATM   12  N   UNL     1     -11.429   6.669  69.375  1.00  0.00    -0.617 NA 
HETATM   13  H   UNL     1     -12.067   6.796  68.590  1.00  0.00     0.000 HD 
HETATM   14  H   UNL     1     -10.111   5.936  68.315  1.00  0.00     0.000 HD 
HETATM   15  O   UNL     1     -10.261   6.602  68.975  1.00  0.00    -0.162 OA 
ENDBRANCH   8  12
ENDBRANCH   6   8
ENDBRANCH   4   6
ENDBRANCH   3   4
TORSDOF 5
ENDMDL
MODEL      179
REMARK 921   NORMALIZED FREE ENERGY PREDICTED BY IDOCK:   -3.08 KCAL/MOL
REMARK 922        TOTAL FREE ENERGY PREDICTED BY IDOCK:   -4.06 KCAL/MOL
REMARK 923 INTER-LIGAND FREE ENERGY PREDICTED BY IDOCK:   -3.60 KCAL/MOL
REMARK 924 INTRA-LIGAND FREE ENERGY PREDICTED BY IDOCK:   -0.47 KCAL/MOL
REMARK 927      BINDING AFFINITY PREDICTED BY RF-SCORE:    0.00 PKD
ROOT
HETATM    1 CL   UNL     1     -11.373   4.049  73.332  1.00  0.00    -0.324 Cl 
HETATM    2  C   UNL     1     -10.228   5.393  73.573  1.00  0.00    -0.205 C  
HETATM    3  C   UNL     1     -10.887   6.743  73.315  1.00  0.00    -0.272 C  
ENDROOT
BRANCH   3   4
HETATM    4  N   UNL     1     -11.449   6.863  71.975  1.00  0.00    -0.263 N  
HETATM    5  H   UNL     1     -11.949   6.076  71.563  1.00  0.00     0.000 HD 
BRANCH   4   6
HETATM    6  C   UNL     1     -11.307   8.036  71.263  1.00  0.00    -0.264 C  
HETATM    7  O   UNL     1     -11.577   9.112  71.800  1.00  0.00    -0.349 OA 
BRANCH   6   8
HETATM    8  N   UNL     1     -10.881   7.902  69.943  1.00  0.00    -0.244 N  
BRANCH   8   9
HETATM    9  C   UNL     1      -9.905   8.758  69.255  1.00  0.00    -0.180 C  
HETATM   10 CL   UNL     1     -11.610  10.828  68.663  1.00  0.00    -0.365 Cl 
HETATM   11  C   UNL     1     -10.508   9.545  68.093  1.00  0.00    -0.223 C  
ENDBRANCH   8   9
BRANCH   8  12
HETATM   12  N   UNL     1     -11.479   6.841  69.232  1.00  0.00    -0.596 NA 
HETATM   13  H   UNL     1     -11.630   7.107  68.259  1.00  0.00     0.000 HD 
HETATM   14  H   UNL     1     -11.264   5.059  68.818  1.00  0.00     0.000 HD 
HETATM   15  O   UNL     1     -10.861   5.773  69.297  1.00  0.00    -0.311 OA 
ENDBRANCH   8  12
ENDBRANCH   6   8
ENDBRANCH   4   6
ENDBRANCH   3   4
TORSDOF 5
ENDMDL
MODEL      180
REMARK 921   NORMALIZED FREE ENERGY PREDICTED BY IDOCK:   -3.08 KCAL/MOL
REMARK 922        TOTAL FREE ENERGY PREDICTED BY IDOCK:   -4.06 KCAL/MOL
REMARK 923 INTER-LIGAND FREE ENERGY PREDICTED BY IDOCK:   -3.80 KCAL/MOL
REMARK 924 INTRA-LIGAND FREE ENERGY PREDICTED BY IDOCK:   -0.25 KCAL/MOL
REMARK 927      BINDING AFFINITY PREDICTED BY RF-SCORE:    0.00 PKD
ROOT
HETATM    1 CL   UNL     1     -11.946  12.703  64.843  1.00  0.00    -0.428 Cl 
HETATM    2  C   UNL     1     -10.961  14.172  65.073  1.00  0.00    -0.384 C  
HETATM    3  C   UNL     1      -9.793  13.919  66.019  1.00  0.00    -0.289 C  
ENDROOT
BRANCH   3   4
HETATM    4  N   UNL     1     -10.208  13.443  67.333  1.00  0.00    -0.235 N  
HETATM    5  H   UNL     1     -10.490  12.470  67.454  1.00  0.00     0.000 HD 
BRANCH   4   6
HETATM    6  C   UNL     1     -10.222  14.302  68.413  1.00  0.00    -0.245 C  
HETATM    7  O   UNL     1      -9.159  14.651  68.928  1.00  0.00    -0.192 OA 
BRANCH   6   8
HETATM    8  N   UNL     1     -11.480  14.697  68.862  1.00  0.00    -0.281 N  
BRANCH   8   9
HETATM    9  C   UNL     1     -12.321  13.978  69.830  1.00  0.00    -0.310 C  
HETATM   10 CL   UNL     1     -12.398  15.938  71.752  1.00  0.00    -0.508 Cl 
HETATM   11  C   UNL     1     -11.954  14.275  71.283  1.00  0.00    -0.242 C  
ENDBRANCH   8   9
BRANCH   8  12
HETATM   12  N   UNL     1     -11.962  15.897  68.300  1.00  0.00    -0.326 NA 
HETATM   13  H   UNL     1     -12.813  16.197  68.776  1.00  0.00     0.000 HD 
HETATM   14  H   UNL     1     -11.460  17.623  67.894  1.00  0.00     0.000 HD 
HETATM   15  O   UNL     1     -11.135  16.815  68.274  1.00  0.00    -0.361 OA 
ENDBRANCH   8  12
ENDBRANCH   6   8
ENDBRANCH   4   6
ENDBRANCH   3   4
TORSDOF 5
ENDMDL
MODEL      181
REMARK 921   NORMALIZED FREE ENERGY PREDICTED BY IDOCK:   -3.07 KCAL/MOL
REMARK 922        TOTAL FREE ENERGY PREDICTED BY IDOCK:   -4.04 KCAL/MOL
REMARK 923 INTER-LIGAND FREE ENERGY PREDICTED BY IDOCK:   -3.53 KCAL/MOL
REMARK 924 INTRA-LIGAND FREE ENERGY PREDICTED BY IDOCK:   -0.52 KCAL/MOL
REMARK 927      BINDING AFFINITY PREDICTED BY RF-SCORE:    0.00 PKD
ROOT
HETATM    1 CL   UNL     1      -8.658   8.186  73.945  1.00  0.00    -0.317 Cl 
HETATM    2  C   UNL     1      -8.477   6.424  73.737  1.00  0.00    -0.122 C  
HETATM    3  C   UNL     1      -8.251   6.053  72.277  1.00  0.00    -0.110 C  
ENDROOT
BRANCH   3   4
HETATM    4  N   UNL     1      -9.320   6.504  71.395  1.00  0.00    -0.152 N  
HETATM    5  H   UNL     1      -9.163   7.295  70.770  1.00  0.00     0.000 HD 
BRANCH   4   6
HETATM    6  C   UNL     1     -10.544   5.867  71.403  1.00  0.00    -0.252 C  
HETATM    7  O   UNL     1     -10.640   4.737  71.884  1.00  0.00    -0.173 OA 
BRANCH   6   8
HETATM    8  N   UNL     1     -11.600   6.567  70.823  1.00  0.00    -0.364 N  
BRANCH   8   9
HETATM    9  C   UNL     1     -12.670   7.276  71.541  1.00  0.00    -0.384 C  
HETATM   10 CL   UNL     1     -11.733   9.825  71.139  1.00  0.00    -0.431 Cl 
HETATM   11  C   UNL     1     -12.179   8.523  72.274  1.00  0.00    -0.389 C  
ENDBRANCH   8   9
BRANCH   8  12
HETATM   12  N   UNL     1     -11.616   6.558  69.413  1.00  0.00    -0.653 NA 
HETATM   13  H   UNL     1     -12.558   6.737  69.067  1.00  0.00     0.000 HD 
HETATM   14  H   UNL     1     -10.819   7.327  67.940  1.00  0.00     0.000 HD 
HETATM   15  O   UNL     1     -10.808   7.334  68.890  1.00  0.00    -0.180 OA 
ENDBRANCH   8  12
ENDBRANCH   6   8
ENDBRANCH   4   6
ENDBRANCH   3   4
TORSDOF 5
ENDMDL
MODEL      182
REMARK 921   NORMALIZED FREE ENERGY PREDICTED BY IDOCK:   -3.06 KCAL/MOL
REMARK 922        TOTAL FREE ENERGY PREDICTED BY IDOCK:   -4.04 KCAL/MOL
REMARK 923 INTER-LIGAND FREE ENERGY PREDICTED BY IDOCK:   -3.81 KCAL/MOL
REMARK 924 INTRA-LIGAND FREE ENERGY PREDICTED BY IDOCK:   -0.23 KCAL/MOL
REMARK 927      BINDING AFFINITY PREDICTED BY RF-SCORE:    0.00 PKD
ROOT
HETATM    1 CL   UNL     1     -11.045   6.762  67.210  1.00  0.00    -0.428 Cl 
HETATM    2  C   UNL     1     -10.220   8.327  66.983  1.00  0.00    -0.310 C  
HETATM    3  C   UNL     1     -10.010   9.046  68.310  1.00  0.00    -0.173 C  
ENDROOT
BRANCH   3   4
HETATM    4  N   UNL     1     -11.250   9.290  69.036  1.00  0.00    -0.442 N  
HETATM    5  H   UNL     1     -12.139   8.988  68.638  1.00  0.00     0.000 HD 
BRANCH   4   6
HETATM    6  C   UNL     1     -11.227   9.929  70.259  1.00  0.00    -0.301 C  
HETATM    7  O   UNL     1     -11.505  11.127  70.326  1.00  0.00    -0.297 OA 
BRANCH   6   8
HETATM    8  N   UNL     1     -10.854   9.147  71.349  1.00  0.00    -0.322 N  
BRANCH   8   9
HETATM    9  C   UNL     1     -11.728   8.238  72.106  1.00  0.00    -0.365 C  
HETATM   10 CL   UNL     1     -11.133   5.945  70.719  1.00  0.00    -0.352 Cl 
HETATM   11  C   UNL     1     -12.348   7.142  71.241  1.00  0.00    -0.379 C  
ENDBRANCH   8   9
BRANCH   8  12
HETATM   12  N   UNL     1      -9.506   9.280  71.742  1.00  0.00    -0.251 NA 
HETATM   13  H   UNL     1      -9.378  10.128  72.293  1.00  0.00     0.000 HD 
HETATM   14  H   UNL     1      -8.144   8.390  72.607  1.00  0.00     0.000 HD 
HETATM   15  O   UNL     1      -9.052   8.301  72.344  1.00  0.00    -0.192 OA 
ENDBRANCH   8  12
ENDBRANCH   6   8
ENDBRANCH   4   6
ENDBRANCH   3   4
TORSDOF 5
ENDMDL
MODEL      183
REMARK 921   NORMALIZED FREE ENERGY PREDICTED BY IDOCK:   -3.06 KCAL/MOL
REMARK 922        TOTAL FREE ENERGY PREDICTED BY IDOCK:   -4.04 KCAL/MOL
REMARK 923 INTER-LIGAND FREE ENERGY PREDICTED BY IDOCK:   -3.46 KCAL/MOL
REMARK 924 INTRA-LIGAND FREE ENERGY PREDICTED BY IDOCK:   -0.57 KCAL/MOL
REMARK 927      BINDING AFFINITY PREDICTED BY RF-SCORE:    0.00 PKD
ROOT
HETATM    1 CL   UNL     1      -9.128   9.270  70.704  1.00  0.00    -0.293 Cl 
HETATM    2  C   UNL     1     -10.889   9.419  70.466  1.00  0.00    -0.277 C  
HETATM    3  C   UNL     1     -11.648   9.240  71.776  1.00  0.00    -0.388 C  
ENDROOT
BRANCH   3   4
HETATM    4  N   UNL     1     -11.386   7.960  72.423  1.00  0.00    -0.341 N  
HETATM    5  H   UNL     1     -10.939   7.937  73.339  1.00  0.00     0.000 HD 
BRANCH   4   6
HETATM    6  C   UNL     1     -11.740   6.780  71.801  1.00  0.00    -0.312 C  
HETATM    7  O   UNL     1     -12.898   6.619  71.413  1.00  0.00    -0.277 OA 
BRANCH   6   8
HETATM    8  N   UNL     1     -10.732   5.826  71.682  1.00  0.00    -0.248 N  
BRANCH   8   9
HETATM    9  C   UNL     1      -9.669   5.809  70.667  1.00  0.00    -0.178 C  
HETATM   10 CL   UNL     1     -11.261   6.305  68.486  1.00  0.00    -0.400 Cl 
HETATM   11  C   UNL     1     -10.123   5.223  69.331  1.00  0.00    -0.241 C  
ENDBRANCH   8   9
BRANCH   8  12
HETATM   12  N   UNL     1     -10.780   4.789  72.636  1.00  0.00    -0.210 NA 
HETATM   13  H   UNL     1      -9.900   4.273  72.645  1.00  0.00     0.000 HD 
HETATM   14  H   UNL     1     -11.107   4.462  74.420  1.00  0.00     0.000 HD 
HETATM   15  O   UNL     1     -11.074   5.161  73.778  1.00  0.00    -0.297 OA 
ENDBRANCH   8  12
ENDBRANCH   6   8
ENDBRANCH   4   6
ENDBRANCH   3   4
TORSDOF 5
ENDMDL
MODEL      184
REMARK 921   NORMALIZED FREE ENERGY PREDICTED BY IDOCK:   -3.06 KCAL/MOL
REMARK 922        TOTAL FREE ENERGY PREDICTED BY IDOCK:   -4.03 KCAL/MOL
REMARK 923 INTER-LIGAND FREE ENERGY PREDICTED BY IDOCK:   -3.75 KCAL/MOL
REMARK 924 INTRA-LIGAND FREE ENERGY PREDICTED BY IDOCK:   -0.28 KCAL/MOL
REMARK 927      BINDING AFFINITY PREDICTED BY RF-SCORE:    0.00 PKD
ROOT
HETATM    1 CL   UNL     1      -7.664  16.455  66.384  1.00  0.00    -0.301 Cl 
HETATM    2  C   UNL     1      -9.196  16.053  67.203  1.00  0.00    -0.207 C  
HETATM    3  C   UNL     1      -9.282  14.567  67.530  1.00  0.00    -0.194 C  
ENDROOT
BRANCH   3   4
HETATM    4  N   UNL     1      -9.158  13.710  66.357  1.00  0.00    -0.467 N  
HETATM    5  H   UNL     1      -8.676  14.054  65.527  1.00  0.00     0.000 HD 
BRANCH   4   6
HETATM    6  C   UNL     1      -9.691  12.437  66.365  1.00  0.00    -0.240 C  
HETATM    7  O   UNL     1      -8.949  11.465  66.212  1.00  0.00    -0.192 OA 
BRANCH   6   8
HETATM    8  N   UNL     1     -11.072  12.354  66.524  1.00  0.00    -0.286 N  
BRANCH   8   9
HETATM    9  C   UNL     1     -11.781  11.620  67.583  1.00  0.00    -0.228 C  
HETATM   10 CL   UNL     1     -12.183  13.745  69.274  1.00  0.00    -0.358 Cl 
HETATM   11  C   UNL     1     -11.469  12.136  68.986  1.00  0.00    -0.297 C  
ENDBRANCH   8   9
BRANCH   8  12
HETATM   12  N   UNL     1     -11.824  13.040  65.549  1.00  0.00    -0.371 NA 
HETATM   13  H   UNL     1     -11.245  13.249  64.735  1.00  0.00     0.000 HD 
HETATM   14  H   UNL     1     -13.367  12.924  64.548  1.00  0.00     0.000 HD 
HETATM   15  O   UNL     1     -12.860  12.461  65.205  1.00  0.00    -0.609 OA 
ENDBRANCH   8  12
ENDBRANCH   6   8
ENDBRANCH   4   6
ENDBRANCH   3   4
TORSDOF 5
ENDMDL
MODEL      185
REMARK 921   NORMALIZED FREE ENERGY PREDICTED BY IDOCK:   -3.04 KCAL/MOL
REMARK 922        TOTAL FREE ENERGY PREDICTED BY IDOCK:   -4.01 KCAL/MOL
REMARK 923 INTER-LIGAND FREE ENERGY PREDICTED BY IDOCK:   -3.88 KCAL/MOL
REMARK 924 INTRA-LIGAND FREE ENERGY PREDICTED BY IDOCK:   -0.13 KCAL/MOL
REMARK 927      BINDING AFFINITY PREDICTED BY RF-SCORE:    0.00 PKD
ROOT
HETATM    1 CL   UNL     1      -9.864   4.642  68.442  1.00  0.00    -0.196 Cl 
HETATM    2  C   UNL     1     -10.856   6.083  68.095  1.00  0.00    -0.281 C  
HETATM    3  C   UNL     1     -10.953   7.000  69.308  1.00  0.00    -0.178 C  
ENDROOT
BRANCH   3   4
HETATM    4  N   UNL     1     -11.507   6.343  70.485  1.00  0.00    -0.373 N  
HETATM    5  H   UNL     1     -11.184   5.411  70.744  1.00  0.00     0.000 HD 
BRANCH   4   6
HETATM    6  C   UNL     1     -12.465   6.976  71.249  1.00  0.00    -0.386 C  
HETATM    7  O   UNL     1     -13.656   6.852  70.960  1.00  0.00    -0.141 OA 
BRANCH   6   8
HETATM    8  N   UNL     1     -11.990   7.751  72.305  1.00  0.00    -0.317 N  
BRANCH   8   9
HETATM    9  C   UNL     1     -10.626   7.730  72.852  1.00  0.00    -0.366 C  
HETATM   10 CL   UNL     1     -10.550   5.064  73.503  1.00  0.00    -0.273 Cl 
HETATM   11  C   UNL     1     -10.463   6.767  74.026  1.00  0.00    -0.272 C  
ENDBRANCH   8   9
BRANCH   8  12
HETATM   12  N   UNL     1     -12.944   8.612  72.886  1.00  0.00    -0.687 NA 
HETATM   13  H   UNL     1     -12.687   8.830  73.849  1.00  0.00     0.000 HD 
HETATM   14  H   UNL     1     -13.792  10.229  72.639  1.00  0.00     0.000 HD 
HETATM   15  O   UNL     1     -13.149   9.650  72.248  1.00  0.00    -0.414 OA 
ENDBRANCH   8  12
ENDBRANCH   6   8
ENDBRANCH   4   6
ENDBRANCH   3   4
TORSDOF 5
ENDMDL
MODEL      186
REMARK 921   NORMALIZED FREE ENERGY PREDICTED BY IDOCK:   -3.04 KCAL/MOL
REMARK 922        TOTAL FREE ENERGY PREDICTED BY IDOCK:   -4.01 KCAL/MOL
REMARK 923 INTER-LIGAND FREE ENERGY PREDICTED BY IDOCK:   -3.41 KCAL/MOL
REMARK 924 INTRA-LIGAND FREE ENERGY PREDICTED BY IDOCK:   -0.60 KCAL/MOL
REMARK 927      BINDING AFFINITY PREDICTED BY RF-SCORE:    0.00 PKD
ROOT
HETATM    1 CL   UNL     1     -10.609   5.195  66.432  1.00  0.00    -0.358 Cl 
HETATM    2  C   UNL     1      -9.166   6.207  66.163  1.00  0.00    -0.131 C  
HETATM    3  C   UNL     1      -8.688   6.856  67.457  1.00  0.00    -0.120 C  
ENDROOT
BRANCH   3   4
HETATM    4  N   UNL     1      -9.705   7.680  68.098  1.00  0.00    -0.150 N  
HETATM    5  H   UNL     1     -10.441   8.107  67.536  1.00  0.00     0.000 HD 
BRANCH   4   6
HETATM    6  C   UNL     1      -9.677   7.886  69.462  1.00  0.00    -0.173 C  
HETATM    7  O   UNL     1      -8.594   7.986  70.041  1.00  0.00    -0.131 OA 
BRANCH   6   8
HETATM    8  N   UNL     1     -10.915   7.939  70.098  1.00  0.00    -0.251 N  
BRANCH   8   9
HETATM    9  C   UNL     1     -11.350   8.955  71.069  1.00  0.00    -0.291 C  
HETATM   10 CL   UNL     1     -10.747   7.542  73.345  1.00  0.00    -0.433 Cl 
HETATM   11  C   UNL     1     -11.968   8.355  72.330  1.00  0.00    -0.389 C  
ENDBRANCH   8   9
BRANCH   8  12
HETATM   12  N   UNL     1     -11.800   6.895  69.762  1.00  0.00    -0.632 NA 
HETATM   13  H   UNL     1     -12.264   7.093  68.875  1.00  0.00     0.000 HD 
HETATM   14  H   UNL     1     -11.876   5.071  69.509  1.00  0.00     0.000 HD 
HETATM   15  O   UNL     1     -11.279   5.775  69.735  1.00  0.00    -0.355 OA 
ENDBRANCH   8  12
ENDBRANCH   6   8
ENDBRANCH   4   6
ENDBRANCH   3   4
TORSDOF 5
ENDMDL
MODEL      187
REMARK 921   NORMALIZED FREE ENERGY PREDICTED BY IDOCK:   -3.04 KCAL/MOL
REMARK 922        TOTAL FREE ENERGY PREDICTED BY IDOCK:   -4.01 KCAL/MOL
REMARK 923 INTER-LIGAND FREE ENERGY PREDICTED BY IDOCK:   -3.43 KCAL/MOL
REMARK 924 INTRA-LIGAND FREE ENERGY PREDICTED BY IDOCK:   -0.57 KCAL/MOL
REMARK 927      BINDING AFFINITY PREDICTED BY RF-SCORE:    0.00 PKD
ROOT
HETATM    1 CL   UNL     1     -10.764  12.098  68.636  1.00  0.00    -0.250 Cl 
HETATM    2  C   UNL     1     -11.313  11.790  66.968  1.00  0.00    -0.321 C  
HETATM    3  C   UNL     1     -10.575  12.669  65.964  1.00  0.00    -0.270 C  
ENDROOT
BRANCH   3   4
HETATM    4  N   UNL     1     -10.720  14.094  66.231  1.00  0.00    -0.290 N  
HETATM    5  H   UNL     1     -11.644  14.524  66.205  1.00  0.00     0.000 HD 
BRANCH   4   6
HETATM    6  C   UNL     1      -9.612  14.865  66.519  1.00  0.00    -0.276 C  
HETATM    7  O   UNL     1      -8.528  14.319  66.730  1.00  0.00    -0.159 OA 
BRANCH   6   8
HETATM    8  N   UNL     1      -9.823  16.240  66.575  1.00  0.00    -0.255 N  
BRANCH   8   9
HETATM    9  C   UNL     1      -9.810  17.072  67.788  1.00  0.00    -0.271 C  
HETATM   10 CL   UNL     1     -11.942  15.885  69.048  1.00  0.00    -0.338 Cl 
HETATM   11  C   UNL     1     -11.207  17.349  68.341  1.00  0.00     0.212 C  
ENDBRANCH   8   9
BRANCH   8  12
HETATM   12  N   UNL     1     -10.084  16.852  65.332  1.00  0.00    -0.590 NA 
HETATM   13  H   UNL     1      -9.294  16.726  64.700  1.00  0.00     0.000 HD 
HETATM   14  H   UNL     1     -11.308  16.893  63.955  1.00  0.00     0.000 HD 
HETATM   15  O   UNL     1     -11.132  16.480  64.792  1.00  0.00    -0.624 OA 
ENDBRANCH   8  12
ENDBRANCH   6   8
ENDBRANCH   4   6
ENDBRANCH   3   4
TORSDOF 5
ENDMDL
MODEL      188
REMARK 921   NORMALIZED FREE ENERGY PREDICTED BY IDOCK:   -3.04 KCAL/MOL
REMARK 922        TOTAL FREE ENERGY PREDICTED BY IDOCK:   -4.00 KCAL/MOL
REMARK 923 INTER-LIGAND FREE ENERGY PREDICTED BY IDOCK:   -3.53 KCAL/MOL
REMARK 924 INTRA-LIGAND FREE ENERGY PREDICTED BY IDOCK:   -0.48 KCAL/MOL
REMARK 927      BINDING AFFINITY PREDICTED BY RF-SCORE:    0.00 PKD
ROOT
HETATM    1 CL   UNL     1     -13.714   8.742  71.583  1.00  0.00    -0.428 Cl 
HETATM    2  C   UNL     1     -11.973   8.896  71.938  1.00  0.00    -0.371 C  
HETATM    3  C   UNL     1     -11.289   9.861  70.976  1.00  0.00    -0.386 C  
ENDROOT
BRANCH   3   4
HETATM    4  N   UNL     1     -11.432   9.478  69.577  1.00  0.00    -0.442 N  
HETATM    5  H   UNL     1     -11.516   8.493  69.327  1.00  0.00     0.000 HD 
BRANCH   4   6
HETATM    6  C   UNL     1     -11.455  10.442  68.590  1.00  0.00    -0.172 C  
HETATM    7  O   UNL     1     -12.366  11.271  68.568  1.00  0.00    -0.543 OA 
BRANCH   6   8
HETATM    8  N   UNL     1     -10.425  10.381  67.654  1.00  0.00    -0.215 N  
BRANCH   8   9
HETATM    9  C   UNL     1      -9.822  11.523  66.951  1.00  0.00    -0.197 C  
HETATM   10 CL   UNL     1      -7.705  11.907  68.656  1.00  0.00    -0.129 Cl 
HETATM   11  C   UNL     1      -9.187  12.543  67.894  1.00  0.00    -0.200 C  
ENDBRANCH   8   9
BRANCH   8  12
HETATM   12  N   UNL     1      -9.956   9.082  67.372  1.00  0.00    -0.193 NA 
HETATM   13  H   UNL     1      -9.645   8.622  68.228  1.00  0.00     0.000 HD 
HETATM   14  H   UNL     1     -10.447   7.494  66.576  1.00  0.00     0.000 HD 
HETATM   15  O   UNL     1     -10.763   8.369  66.767  1.00  0.00    -0.249 OA 
ENDBRANCH   8  12
ENDBRANCH   6   8
ENDBRANCH   4   6
ENDBRANCH   3   4
TORSDOF 5
ENDMDL
MODEL      189
REMARK 921   NORMALIZED FREE ENERGY PREDICTED BY IDOCK:   -3.04 KCAL/MOL
REMARK 922        TOTAL FREE ENERGY PREDICTED BY IDOCK:   -4.00 KCAL/MOL
REMARK 923 INTER-LIGAND FREE ENERGY PREDICTED BY IDOCK:   -3.89 KCAL/MOL
REMARK 924 INTRA-LIGAND FREE ENERGY PREDICTED BY IDOCK:   -0.11 KCAL/MOL
REMARK 927      BINDING AFFINITY PREDICTED BY RF-SCORE:    0.00 PKD
ROOT
HETATM    1 CL   UNL     1     -11.144  15.968  69.877  1.00  0.00    -0.327 Cl 
HETATM    2  C   UNL     1     -12.046  14.441  69.690  1.00  0.00    -0.334 C  
HETATM    3  C   UNL     1     -11.770  13.791  68.339  1.00  0.00    -0.358 C  
ENDROOT
BRANCH   3   4
HETATM    4  N   UNL     1     -12.096  14.650  67.208  1.00  0.00    -0.529 N  
HETATM    5  H   UNL     1     -13.071  14.820  66.965  1.00  0.00     0.000 HD 
BRANCH   4   6
HETATM    6  C   UNL     1     -11.090  15.235  66.465  1.00  0.00    -0.271 C  
HETATM    7  O   UNL     1     -11.003  16.463  66.418  1.00  0.00    -0.137 OA 
BRANCH   6   8
HETATM    8  N   UNL     1     -10.245  14.360  65.787  1.00  0.00    -0.320 N  
BRANCH   8   9
HETATM    9  C   UNL     1     -10.607  13.521  64.635  1.00  0.00    -0.427 C  
HETATM   10 CL   UNL     1     -10.816  11.141  65.987  1.00  0.00    -0.272 Cl 
HETATM   11  C   UNL     1     -10.028  12.110  64.713  1.00  0.00    -0.200 C  
ENDBRANCH   8   9
BRANCH   8  12
HETATM   12  N   UNL     1      -8.931  14.291  66.294  1.00  0.00    -0.491 NA 
HETATM   13  H   UNL     1      -8.379  13.618  65.762  1.00  0.00     0.000 HD 
HETATM   14  H   UNL     1      -7.464  15.333  66.691  1.00  0.00     0.000 HD 
HETATM   15  O   UNL     1      -8.349  15.380  66.349  1.00  0.00    -0.226 OA 
ENDBRANCH   8  12
ENDBRANCH   6   8
ENDBRANCH   4   6
ENDBRANCH   3   4
TORSDOF 5
ENDMDL
MODEL      190
REMARK 921   NORMALIZED FREE ENERGY PREDICTED BY IDOCK:   -3.03 KCAL/MOL
REMARK 922        TOTAL FREE ENERGY PREDICTED BY IDOCK:   -4.00 KCAL/MOL
REMARK 923 INTER-LIGAND FREE ENERGY PREDICTED BY IDOCK:   -3.74 KCAL/MOL
REMARK 924 INTRA-LIGAND FREE ENERGY PREDICTED BY IDOCK:   -0.26 KCAL/MOL
REMARK 927      BINDING AFFINITY PREDICTED BY RF-SCORE:    0.00 PKD
ROOT
HETATM    1 CL   UNL     1      -7.286  15.076  69.249  1.00  0.00    -0.170 Cl 
HETATM    2  C   UNL     1      -7.221  14.830  67.485  1.00  0.00    -0.197 C  
HETATM    3  C   UNL     1      -7.897  15.972  66.735  1.00  0.00    -0.253 C  
ENDROOT
BRANCH   3   4
HETATM    4  N   UNL     1      -9.291  16.165  67.113  1.00  0.00    -0.212 N  
HETATM    5  H   UNL     1      -9.529  16.377  68.082  1.00  0.00     0.000 HD 
BRANCH   4   6
HETATM    6  C   UNL     1     -10.290  16.060  66.167  1.00  0.00    -0.328 C  
HETATM    7  O   UNL     1     -10.430  16.950  65.327  1.00  0.00    -0.638 OA 
BRANCH   6   8
HETATM    8  N   UNL     1     -11.103  14.932  66.259  1.00  0.00    -0.339 N  
BRANCH   8   9
HETATM    9  C   UNL     1     -11.501  14.248  67.498  1.00  0.00    -0.345 C  
HETATM   10 CL   UNL     1      -9.584  12.283  67.445  1.00  0.00    -0.177 Cl 
HETATM   11  C   UNL     1     -11.310  12.734  67.437  1.00  0.00    -0.313 C  
ENDBRANCH   8   9
BRANCH   8  12
HETATM   12  N   UNL     1     -11.551  14.421  65.024  1.00  0.00    -0.357 NA 
HETATM   13  H   UNL     1     -11.850  15.181  64.412  1.00  0.00     0.000 HD 
HETATM   14  H   UNL     1     -11.036  13.353  63.614  1.00  0.00     0.000 HD 
HETATM   15  O   UNL     1     -10.734  13.697  64.446  1.00  0.00    -0.410 OA 
ENDBRANCH   8  12
ENDBRANCH   6   8
ENDBRANCH   4   6
ENDBRANCH   3   4
TORSDOF 5
ENDMDL
MODEL      191
REMARK 921   NORMALIZED FREE ENERGY PREDICTED BY IDOCK:   -3.03 KCAL/MOL
REMARK 922        TOTAL FREE ENERGY PREDICTED BY IDOCK:   -4.00 KCAL/MOL
REMARK 923 INTER-LIGAND FREE ENERGY PREDICTED BY IDOCK:   -3.73 KCAL/MOL
REMARK 924 INTRA-LIGAND FREE ENERGY PREDICTED BY IDOCK:   -0.27 KCAL/MOL
REMARK 927      BINDING AFFINITY PREDICTED BY RF-SCORE:    0.00 PKD
ROOT
HETATM    1 CL   UNL     1      -6.584  16.513  66.942  1.00  0.00    -0.230 Cl 
HETATM    2  C   UNL     1      -7.031  15.502  68.341  1.00  0.00    -0.115 C  
HETATM    3  C   UNL     1      -7.168  14.035  67.951  1.00  0.00    -0.159 C  
ENDROOT
BRANCH   3   4
HETATM    4  N   UNL     1      -8.149  13.808  66.899  1.00  0.00    -0.389 N  
HETATM    5  H   UNL     1      -7.890  13.954  65.923  1.00  0.00     0.000 HD 
BRANCH   4   6
HETATM    6  C   UNL     1      -9.428  13.397  67.216  1.00  0.00    -0.234 C  
HETATM    7  O   UNL     1      -9.602  12.605  68.143  1.00  0.00    -0.210 OA 
BRANCH   6   8
HETATM    8  N   UNL     1     -10.449  13.909  66.418  1.00  0.00    -0.280 N  
BRANCH   8   9
HETATM    9  C   UNL     1     -11.882  13.928  66.748  1.00  0.00    -0.424 C  
HETATM   10 CL   UNL     1     -12.746  12.382  64.651  1.00  0.00    -0.488 Cl 
HETATM   11  C   UNL     1     -12.783  13.942  65.515  1.00  0.00    -0.499 C  
ENDBRANCH   8   9
BRANCH   8  12
HETATM   12  N   UNL     1     -10.028  14.434  65.179  1.00  0.00    -0.541 NA 
HETATM   13  H   UNL     1      -9.217  15.040  65.307  1.00  0.00     0.000 HD 
HETATM   14  H   UNL     1      -9.514  13.935  63.482  1.00  0.00     0.000 HD 
HETATM   15  O   UNL     1      -9.797  13.581  64.316  1.00  0.00    -0.162 OA 
ENDBRANCH   8  12
ENDBRANCH   6   8
ENDBRANCH   4   6
ENDBRANCH   3   4
TORSDOF 5
ENDMDL
MODEL      192
REMARK 921   NORMALIZED FREE ENERGY PREDICTED BY IDOCK:   -3.02 KCAL/MOL
REMARK 922        TOTAL FREE ENERGY PREDICTED BY IDOCK:   -3.99 KCAL/MOL
REMARK 923 INTER-LIGAND FREE ENERGY PREDICTED BY IDOCK:   -3.75 KCAL/MOL
REMARK 924 INTRA-LIGAND FREE ENERGY PREDICTED BY IDOCK:   -0.24 KCAL/MOL
REMARK 927      BINDING AFFINITY PREDICTED BY RF-SCORE:    0.00 PKD
ROOT
HETATM    1 CL   UNL     1      -7.120  13.246  68.501  1.00  0.00    -0.099 Cl 
HETATM    2  C   UNL     1      -7.578  11.539  68.269  1.00  0.00    -0.115 C  
HETATM    3  C   UNL     1      -7.724  11.194  66.792  1.00  0.00    -0.153 C  
ENDROOT
BRANCH   3   4
HETATM    4  N   UNL     1      -8.704  12.022  66.101  1.00  0.00    -0.398 N  
HETATM    5  H   UNL     1      -8.465  12.979  65.838  1.00  0.00     0.000 HD 
BRANCH   4   6
HETATM    6  C   UNL     1      -9.953  11.520  65.800  1.00  0.00    -0.233 C  
HETATM    7  O   UNL     1     -10.733  11.239  66.711  1.00  0.00    -0.252 OA 
BRANCH   6   8
HETATM    8  N   UNL     1     -10.230  11.340  64.446  1.00  0.00    -0.294 N  
BRANCH   8   9
HETATM    9  C   UNL     1     -10.743  12.362  63.522  1.00  0.00    -0.430 C  
HETATM   10 CL   UNL     1     -12.885  13.164  65.041  1.00  0.00    -0.456 Cl 
HETATM   11  C   UNL     1     -12.267  12.461  63.522  1.00  0.00    -0.563 C  
ENDBRANCH   8   9
BRANCH   8  12
HETATM   12  N   UNL     1      -9.996  10.037  63.961  1.00  0.00    -0.474 NA 
HETATM   13  H   UNL     1     -10.878   9.542  63.832  1.00  0.00     0.000 HD 
HETATM   14  H   UNL     1      -9.163   9.115  62.600  1.00  0.00     0.000 HD 
HETATM   15  O   UNL     1      -9.321   9.993  62.926  1.00  0.00    -0.284 OA 
ENDBRANCH   8  12
ENDBRANCH   6   8
ENDBRANCH   4   6
ENDBRANCH   3   4
TORSDOF 5
ENDMDL
MODEL      193
REMARK 921   NORMALIZED FREE ENERGY PREDICTED BY IDOCK:   -3.02 KCAL/MOL
REMARK 922        TOTAL FREE ENERGY PREDICTED BY IDOCK:   -3.98 KCAL/MOL
REMARK 923 INTER-LIGAND FREE ENERGY PREDICTED BY IDOCK:   -3.72 KCAL/MOL
REMARK 924 INTRA-LIGAND FREE ENERGY PREDICTED BY IDOCK:   -0.26 KCAL/MOL
REMARK 927      BINDING AFFINITY PREDICTED BY RF-SCORE:    0.00 PKD
ROOT
HETATM    1 CL   UNL     1     -10.861  11.567  66.195  1.00  0.00    -0.331 Cl 
HETATM    2  C   UNL     1     -11.785  12.502  67.400  1.00  0.00    -0.366 C  
HETATM    3  C   UNL     1     -11.537  11.992  68.814  1.00  0.00    -0.311 C  
ENDROOT
BRANCH   3   4
HETATM    4  N   UNL     1     -11.868  10.583  68.985  1.00  0.00    -0.523 N  
HETATM    5  H   UNL     1     -12.734  10.214  68.593  1.00  0.00     0.000 HD 
BRANCH   4   6
HETATM    6  C   UNL     1     -11.016   9.746  69.676  1.00  0.00    -0.241 C  
HETATM    7  O   UNL     1      -9.821   9.712  69.379  1.00  0.00    -0.173 OA 
BRANCH   6   8
HETATM    8  N   UNL     1     -11.601   8.964  70.669  1.00  0.00    -0.252 N  
BRANCH   8   9
HETATM    9  C   UNL     1     -13.028   8.931  71.020  1.00  0.00    -0.005 C  
HETATM   10 CL   UNL     1     -13.196  11.473  72.043  1.00  0.00    -0.568 Cl 
HETATM   11  C   UNL     1     -13.353   9.714  72.291  1.00  0.00    -0.408 C  
ENDBRANCH   8   9
BRANCH   8  12
HETATM   12  N   UNL     1     -10.702   8.153  71.392  1.00  0.00    -0.227 NA 
HETATM   13  H   UNL     1      -9.975   7.790  70.775  1.00  0.00     0.000 HD 
HETATM   14  H   UNL     1      -9.592   8.158  72.863  1.00  0.00     0.000 HD 
HETATM   15  O   UNL     1     -10.197   8.705  72.376  1.00  0.00    -0.312 OA 
ENDBRANCH   8  12
ENDBRANCH   6   8
ENDBRANCH   4   6
ENDBRANCH   3   4
TORSDOF 5
ENDMDL
MODEL      194
REMARK 921   NORMALIZED FREE ENERGY PREDICTED BY IDOCK:   -2.99 KCAL/MOL
REMARK 922        TOTAL FREE ENERGY PREDICTED BY IDOCK:   -3.95 KCAL/MOL
REMARK 923 INTER-LIGAND FREE ENERGY PREDICTED BY IDOCK:   -3.74 KCAL/MOL
REMARK 924 INTRA-LIGAND FREE ENERGY PREDICTED BY IDOCK:   -0.20 KCAL/MOL
REMARK 927      BINDING AFFINITY PREDICTED BY RF-SCORE:    0.00 PKD
ROOT
HETATM    1 CL   UNL     1     -14.295   8.596  71.684  1.00  0.00    -0.476 Cl 
HETATM    2  C   UNL     1     -13.216   9.955  72.094  1.00  0.00    -0.415 C  
HETATM    3  C   UNL     1     -12.889  10.800  70.869  1.00  0.00    -0.351 C  
ENDROOT
BRANCH   3   4
HETATM    4  N   UNL     1     -12.268  10.038  69.793  1.00  0.00    -0.478 N  
HETATM    5  H   UNL     1     -12.302   9.019  69.807  1.00  0.00     0.000 HD 
BRANCH   4   6
HETATM    6  C   UNL     1     -11.632  10.690  68.755  1.00  0.00    -0.239 C  
HETATM    7  O   UNL     1     -12.151  11.688  68.254  1.00  0.00    -0.552 OA 
BRANCH   6   8
HETATM    8  N   UNL     1     -10.429  10.131  68.329  1.00  0.00    -0.199 N  
BRANCH   8   9
HETATM    9  C   UNL     1      -9.097  10.415  68.882  1.00  0.00    -0.173 C  
HETATM   10 CL   UNL     1      -8.481   7.850  69.645  1.00  0.00    -0.131 Cl 
HETATM   11  C   UNL     1      -8.754   9.554  70.097  1.00  0.00    -0.230 C  
ENDBRANCH   8   9
BRANCH   8  12
HETATM   12  N   UNL     1     -10.543   9.225  67.255  1.00  0.00    -0.261 NA 
HETATM   13  H   UNL     1     -11.524   9.012  67.072  1.00  0.00     0.000 HD 
HETATM   14  H   UNL     1     -10.057   8.981  65.495  1.00  0.00     0.000 HD 
HETATM   15  O   UNL     1      -9.980   9.592  66.218  1.00  0.00    -0.237 OA 
ENDBRANCH   8  12
ENDBRANCH   6   8
ENDBRANCH   4   6
ENDBRANCH   3   4
TORSDOF 5
ENDMDL
MODEL      195
REMARK 921   NORMALIZED FREE ENERGY PREDICTED BY IDOCK:   -2.99 KCAL/MOL
REMARK 922        TOTAL FREE ENERGY PREDICTED BY IDOCK:   -3.95 KCAL/MOL
REMARK 923 INTER-LIGAND FREE ENERGY PREDICTED BY IDOCK:   -3.53 KCAL/MOL
REMARK 924 INTRA-LIGAND FREE ENERGY PREDICTED BY IDOCK:   -0.41 KCAL/MOL
REMARK 927      BINDING AFFINITY PREDICTED BY RF-SCORE:    0.00 PKD
ROOT
HETATM    1 CL   UNL     1     -10.753   2.414  72.587  1.00  0.00    -0.174 Cl 
HETATM    2  C   UNL     1      -9.730   3.525  71.639  1.00  0.00    -0.163 C  
HETATM    3  C   UNL     1      -9.767   4.940  72.205  1.00  0.00    -0.160 C  
ENDROOT
BRANCH   3   4
HETATM    4  N   UNL     1     -11.110   5.502  72.264  1.00  0.00    -0.252 N  
HETATM    5  H   UNL     1     -11.769   5.170  72.968  1.00  0.00     0.000 HD 
BRANCH   4   6
HETATM    6  C   UNL     1     -11.495   6.481  71.371  1.00  0.00    -0.309 C  
HETATM    7  O   UNL     1     -11.474   6.246  70.162  1.00  0.00    -0.400 OA 
BRANCH   6   8
HETATM    8  N   UNL     1     -11.864   7.704  71.927  1.00  0.00    -0.283 N  
BRANCH   8   9
HETATM    9  C   UNL     1     -13.232   8.231  72.034  1.00  0.00    -0.319 C  
HETATM   10 CL   UNL     1     -12.831  10.541  70.606  1.00  0.00    -0.432 Cl 
HETATM   11  C   UNL     1     -13.284   9.754  72.141  1.00  0.00    -0.436 C  
ENDBRANCH   8   9
BRANCH   8  12
HETATM   12  N   UNL     1     -10.793   8.486  72.406  1.00  0.00    -0.345 NA 
HETATM   13  H   UNL     1     -11.091   9.452  72.542  1.00  0.00     0.000 HD 
HETATM   14  H   UNL     1      -9.541   8.574  73.755  1.00  0.00     0.000 HD 
HETATM   15  O   UNL     1     -10.263   8.048  73.433  1.00  0.00    -0.260 OA 
ENDBRANCH   8  12
ENDBRANCH   6   8
ENDBRANCH   4   6
ENDBRANCH   3   4
TORSDOF 5
ENDMDL
MODEL      196
REMARK 921   NORMALIZED FREE ENERGY PREDICTED BY IDOCK:   -2.99 KCAL/MOL
REMARK 922        TOTAL FREE ENERGY PREDICTED BY IDOCK:   -3.94 KCAL/MOL
REMARK 923 INTER-LIGAND FREE ENERGY PREDICTED BY IDOCK:   -3.52 KCAL/MOL
REMARK 924 INTRA-LIGAND FREE ENERGY PREDICTED BY IDOCK:   -0.43 KCAL/MOL
REMARK 927      BINDING AFFINITY PREDICTED BY RF-SCORE:    0.00 PKD
ROOT
HETATM    1 CL   UNL     1     -11.054  15.511  64.976  1.00  0.00    -0.410 Cl 
HETATM    2  C   UNL     1      -9.947  16.631  65.812  1.00  0.00    -0.243 C  
HETATM    3  C   UNL     1      -8.782  15.889  66.457  1.00  0.00    -0.315 C  
ENDROOT
BRANCH   3   4
HETATM    4  N   UNL     1      -9.204  14.874  67.413  1.00  0.00    -0.189 N  
HETATM    5  H   UNL     1      -9.308  13.905  67.112  1.00  0.00     0.000 HD 
BRANCH   4   6
HETATM    6  C   UNL     1      -9.464  15.217  68.725  1.00  0.00    -0.209 C  
HETATM    7  O   UNL     1      -8.548  15.213  69.549  1.00  0.00    -0.215 OA 
BRANCH   6   8
HETATM    8  N   UNL     1     -10.789  15.525  69.024  1.00  0.00    -0.236 N  
BRANCH   8   9
HETATM    9  C   UNL     1     -11.976  14.780  68.578  1.00  0.00    -0.248 C  
HETATM   10 CL   UNL     1     -12.371  13.340  70.882  1.00  0.00    -0.449 Cl 
HETATM   11  C   UNL     1     -12.035  13.357  69.131  1.00  0.00    -0.317 C  
ENDBRANCH   8   9
BRANCH   8  12
HETATM   12  N   UNL     1     -10.966  16.676  69.819  1.00  0.00    -0.390 NA 
HETATM   13  H   UNL     1     -10.559  16.535  70.744  1.00  0.00     0.000 HD 
HETATM   14  H   UNL     1     -10.654  18.491  69.847  1.00  0.00     0.000 HD 
HETATM   15  O   UNL     1     -10.534  17.716  69.312  1.00  0.00    -0.293 OA 
ENDBRANCH   8  12
ENDBRANCH   6   8
ENDBRANCH   4   6
ENDBRANCH   3   4
TORSDOF 5
ENDMDL
MODEL      197
REMARK 921   NORMALIZED FREE ENERGY PREDICTED BY IDOCK:   -2.99 KCAL/MOL
REMARK 922        TOTAL FREE ENERGY PREDICTED BY IDOCK:   -3.94 KCAL/MOL
REMARK 923 INTER-LIGAND FREE ENERGY PREDICTED BY IDOCK:   -3.60 KCAL/MOL
REMARK 924 INTRA-LIGAND FREE ENERGY PREDICTED BY IDOCK:   -0.34 KCAL/MOL
REMARK 927      BINDING AFFINITY PREDICTED BY RF-SCORE:    0.00 PKD
ROOT
HETATM    1 CL   UNL     1      -8.758  13.361  67.251  1.00  0.00    -0.209 Cl 
HETATM    2  C   UNL     1      -9.960  13.842  66.025  1.00  0.00    -0.306 C  
HETATM    3  C   UNL     1     -10.025  15.356  65.869  1.00  0.00    -0.346 C  
ENDROOT
BRANCH   3   4
HETATM    4  N   UNL     1     -10.343  16.051  67.110  1.00  0.00    -0.290 N  
HETATM    5  H   UNL     1     -11.235  15.877  67.575  1.00  0.00     0.000 HD 
BRANCH   4   6
HETATM    6  C   UNL     1      -9.444  16.942  67.660  1.00  0.00    -0.241 C  
HETATM    7  O   UNL     1      -8.703  16.575  68.573  1.00  0.00    -0.208 OA 
BRANCH   6   8
HETATM    8  N   UNL     1      -9.467  18.233  67.137  1.00  0.00    -0.263 N  
BRANCH   8   9
HETATM    9  C   UNL     1      -8.405  18.866  66.341  1.00  0.00    -0.296 C  
HETATM   10 CL   UNL     1      -6.680  19.390  68.412  1.00  0.00    -0.292 Cl 
HETATM   11  C   UNL     1      -7.696  20.000  67.079  1.00  0.00    -0.294 C  
ENDBRANCH   8   9
BRANCH   8  12
HETATM   12  N   UNL     1     -10.629  18.973  67.436  1.00  0.00    -0.456 NA 
HETATM   13  H   UNL     1     -10.510  19.485  68.310  1.00  0.00     0.000 HD 
HETATM   14  H   UNL     1     -11.774  20.236  66.735  1.00  0.00     0.000 HD 
HETATM   15  O   UNL     1     -10.991  19.738  66.534  1.00  0.00    -0.399 OA 
ENDBRANCH   8  12
ENDBRANCH   6   8
ENDBRANCH   4   6
ENDBRANCH   3   4
TORSDOF 5
ENDMDL
MODEL      198
REMARK 921   NORMALIZED FREE ENERGY PREDICTED BY IDOCK:   -2.99 KCAL/MOL
REMARK 922        TOTAL FREE ENERGY PREDICTED BY IDOCK:   -3.94 KCAL/MOL
REMARK 923 INTER-LIGAND FREE ENERGY PREDICTED BY IDOCK:   -3.55 KCAL/MOL
REMARK 924 INTRA-LIGAND FREE ENERGY PREDICTED BY IDOCK:   -0.39 KCAL/MOL
REMARK 927      BINDING AFFINITY PREDICTED BY RF-SCORE:    0.00 PKD
ROOT
HETATM    1 CL   UNL     1      -8.933  17.136  67.229  1.00  0.00    -0.222 Cl 
HETATM    2  C   UNL     1      -8.139  17.013  68.820  1.00  0.00    -0.250 C  
HETATM    3  C   UNL     1      -8.037  15.564  69.283  1.00  0.00    -0.248 C  
ENDROOT
BRANCH   3   4
HETATM    4  N   UNL     1      -9.327  14.893  69.369  1.00  0.00    -0.406 N  
HETATM    5  H   UNL     1      -9.966  15.117  70.132  1.00  0.00     0.000 HD 
BRANCH   4   6
HETATM    6  C   UNL     1      -9.689  13.956  68.423  1.00  0.00    -0.226 C  
HETATM    7  O   UNL     1      -8.837  13.498  67.661  1.00  0.00    -0.179 OA 
BRANCH   6   8
HETATM    8  N   UNL     1     -11.039  13.612  68.390  1.00  0.00    -0.252 N  
BRANCH   8   9
HETATM    9  C   UNL     1     -12.052  14.162  67.477  1.00  0.00    -0.328 C  
HETATM   10 CL   UNL     1     -11.617  12.433  65.389  1.00  0.00    -0.407 Cl 
HETATM   11  C   UNL     1     -11.634  14.105  66.009  1.00  0.00    -0.361 C  
ENDBRANCH   8   9
BRANCH   8  12
HETATM   12  N   UNL     1     -11.431  12.655  69.348  1.00  0.00    -0.377 NA 
HETATM   13  H   UNL     1     -10.676  11.990  69.516  1.00  0.00     0.000 HD 
HETATM   14  H   UNL     1     -12.094  12.491  71.059  1.00  0.00     0.000 HD 
HETATM   15  O   UNL     1     -11.829  13.136  70.414  1.00  0.00    -0.290 OA 
ENDBRANCH   8  12
ENDBRANCH   6   8
ENDBRANCH   4   6
ENDBRANCH   3   4
TORSDOF 5
ENDMDL
MODEL      199
REMARK 921   NORMALIZED FREE ENERGY PREDICTED BY IDOCK:   -2.97 KCAL/MOL
REMARK 922        TOTAL FREE ENERGY PREDICTED BY IDOCK:   -3.92 KCAL/MOL
REMARK 923 INTER-LIGAND FREE ENERGY PREDICTED BY IDOCK:   -3.52 KCAL/MOL
REMARK 924 INTRA-LIGAND FREE ENERGY PREDICTED BY IDOCK:   -0.40 KCAL/MOL
REMARK 927      BINDING AFFINITY PREDICTED BY RF-SCORE:    0.00 PKD
ROOT
HETATM    1 CL   UNL     1     -14.325   7.997  71.845  1.00  0.00    -0.530 Cl 
HETATM    2  C   UNL     1     -12.935   8.936  72.449  1.00  0.00    -0.404 C  
HETATM    3  C   UNL     1     -12.542  10.043  71.477  1.00  0.00    -0.425 C  
ENDROOT
BRANCH   3   4
HETATM    4  N   UNL     1     -12.211   9.551  70.146  1.00  0.00    -0.445 N  
HETATM    5  H   UNL     1     -12.934   9.506  69.427  1.00  0.00     0.000 HD 
BRANCH   4   6
HETATM    6  C   UNL     1     -10.925   9.145  69.853  1.00  0.00    -0.204 C  
HETATM    7  O   UNL     1     -10.169   9.905  69.247  1.00  0.00    -0.184 OA 
BRANCH   6   8
HETATM    8  N   UNL     1     -10.585   7.856  70.258  1.00  0.00    -0.227 N  
BRANCH   8   9
HETATM    9  C   UNL     1     -11.308   6.621  69.920  1.00  0.00    -0.364 C  
HETATM   10 CL   UNL     1      -9.403   5.543  68.262  1.00  0.00    -0.118 Cl 
HETATM   11  C   UNL     1     -11.064   6.154  68.486  1.00  0.00    -0.262 C  
ENDBRANCH   8   9
BRANCH   8  12
HETATM   12  N   UNL     1      -9.442   7.774  71.080  1.00  0.00    -0.155 NA 
HETATM   13  H   UNL     1      -8.659   8.265  70.649  1.00  0.00     0.000 HD 
HETATM   14  H   UNL     1      -8.848   8.116  72.790  1.00  0.00     0.000 HD 
HETATM   15  O   UNL     1      -9.618   8.172  72.236  1.00  0.00    -0.200 OA 
ENDBRANCH   8  12
ENDBRANCH   6   8
ENDBRANCH   4   6
ENDBRANCH   3   4
TORSDOF 5
ENDMDL
MODEL      200
REMARK 921   NORMALIZED FREE ENERGY PREDICTED BY IDOCK:   -2.97 KCAL/MOL
REMARK 922        TOTAL FREE ENERGY PREDICTED BY IDOCK:   -3.92 KCAL/MOL
REMARK 923 INTER-LIGAND FREE ENERGY PREDICTED BY IDOCK:   -3.27 KCAL/MOL
REMARK 924 INTRA-LIGAND FREE ENERGY PREDICTED BY IDOCK:   -0.65 KCAL/MOL
REMARK 927      BINDING AFFINITY PREDICTED BY RF-SCORE:    0.00 PKD
ROOT
HETATM    1 CL   UNL     1      -9.757   6.362  68.284  1.00  0.00    -0.126 Cl 
HETATM    2  C   UNL     1     -10.640   5.620  69.642  1.00  0.00    -0.331 C  
HETATM    3  C   UNL     1     -11.730   6.544  70.173  1.00  0.00    -0.353 C  
ENDROOT
BRANCH   3   4
HETATM    4  N   UNL     1     -11.224   7.837  70.616  1.00  0.00    -0.268 N  
HETATM    5  H   UNL     1     -10.852   8.497  69.933  1.00  0.00     0.000 HD 
BRANCH   4   6
HETATM    6  C   UNL     1     -11.246   8.172  71.954  1.00  0.00    -0.290 C  
HETATM    7  O   UNL     1     -12.106   8.948  72.375  1.00  0.00    -0.349 OA 
BRANCH   6   8
HETATM    8  N   UNL     1     -10.245   7.607  72.741  1.00  0.00    -0.251 N  
BRANCH   8   9
HETATM    9  C   UNL     1     -10.446   6.744  73.915  1.00  0.00    -0.327 C  
HETATM   10 CL   UNL     1      -9.599   4.396  72.771  1.00  0.00    -0.161 Cl 
HETATM   11  C   UNL     1     -10.902   5.332  73.551  1.00  0.00    -0.304 C  
ENDBRANCH   8   9
BRANCH   8  12
HETATM   12  N   UNL     1      -8.929   7.931  72.351  1.00  0.00    -0.146 NA 
HETATM   13  H   UNL     1      -8.560   7.219  71.720  1.00  0.00     0.000 HD 
HETATM   14  H   UNL     1      -7.922   9.273  71.590  1.00  0.00     0.000 HD 
HETATM   15  O   UNL     1      -8.808   9.055  71.853  1.00  0.00    -0.360 OA 
ENDBRANCH   8  12
ENDBRANCH   6   8
ENDBRANCH   4   6
ENDBRANCH   3   4
TORSDOF 5
ENDMDL
MODEL      201
REMARK 921   NORMALIZED FREE ENERGY PREDICTED BY IDOCK:   -2.95 KCAL/MOL
REMARK 922        TOTAL FREE ENERGY PREDICTED BY IDOCK:   -3.90 KCAL/MOL
REMARK 923 INTER-LIGAND FREE ENERGY PREDICTED BY IDOCK:   -3.53 KCAL/MOL
REMARK 924 INTRA-LIGAND FREE ENERGY PREDICTED BY IDOCK:   -0.37 KCAL/MOL
REMARK 927      BINDING AFFINITY PREDICTED BY RF-SCORE:    0.00 PKD
ROOT
HETATM    1 CL   UNL     1      -7.875  15.544  68.140  1.00  0.00    -0.125 Cl 
HETATM    2  C   UNL     1      -7.181  14.141  68.994  1.00  0.00    -0.110 C  
HETATM    3  C   UNL     1      -7.692  12.826  68.418  1.00  0.00    -0.132 C  
ENDROOT
BRANCH   3   4
HETATM    4  N   UNL     1      -9.144  12.705  68.456  1.00  0.00    -0.370 N  
HETATM    5  H   UNL     1      -9.652  12.967  69.300  1.00  0.00     0.000 HD 
BRANCH   4   6
HETATM    6  C   UNL     1      -9.833  12.238  67.356  1.00  0.00    -0.198 C  
HETATM    7  O   UNL     1      -9.213  11.745  66.412  1.00  0.00    -0.209 OA 
BRANCH   6   8
HETATM    8  N   UNL     1     -11.217  12.389  67.393  1.00  0.00    -0.278 N  
BRANCH   8   9
HETATM    9  C   UNL     1     -11.964  13.621  67.097  1.00  0.00    -0.393 C  
HETATM   10 CL   UNL     1     -10.648  14.279  64.779  1.00  0.00    -0.449 Cl 
HETATM   11  C   UNL     1     -11.104  14.705  66.451  1.00  0.00    -0.334 C  
ENDBRANCH   8   9
BRANCH   8  12
HETATM   12  N   UNL     1     -11.931  11.233  67.769  1.00  0.00    -0.635 NA 
HETATM   13  H   UNL     1     -11.769  10.481  67.099  1.00  0.00     0.000 HD 
HETATM   14  H   UNL     1     -12.181  10.065  69.172  1.00  0.00     0.000 HD 
HETATM   15  O   UNL     1     -11.700  10.843  68.919  1.00  0.00    -0.297 OA 
ENDBRANCH   8  12
ENDBRANCH   6   8
ENDBRANCH   4   6
ENDBRANCH   3   4
TORSDOF 5
ENDMDL
MODEL      202
REMARK 921   NORMALIZED FREE ENERGY PREDICTED BY IDOCK:   -2.94 KCAL/MOL
REMARK 922        TOTAL FREE ENERGY PREDICTED BY IDOCK:   -3.88 KCAL/MOL
REMARK 923 INTER-LIGAND FREE ENERGY PREDICTED BY IDOCK:   -3.62 KCAL/MOL
REMARK 924 INTRA-LIGAND FREE ENERGY PREDICTED BY IDOCK:   -0.26 KCAL/MOL
REMARK 927      BINDING AFFINITY PREDICTED BY RF-SCORE:    0.00 PKD
ROOT
HETATM    1 CL   UNL     1     -12.324  14.619  64.465  1.00  0.00    -0.473 Cl 
HETATM    2  C   UNL     1     -10.888  13.563  64.427  1.00  0.00    -0.389 C  
HETATM    3  C   UNL     1     -11.228  12.140  64.853  1.00  0.00    -0.323 C  
ENDROOT
BRANCH   3   4
HETATM    4  N   UNL     1     -11.811  12.062  66.187  1.00  0.00    -0.262 N  
HETATM    5  H   UNL     1     -12.775  12.357  66.337  1.00  0.00     0.000 HD 
BRANCH   4   6
HETATM    6  C   UNL     1     -11.064  11.590  67.247  1.00  0.00    -0.293 C  
HETATM    7  O   UNL     1     -11.291  10.467  67.701  1.00  0.00    -0.394 OA 
BRANCH   6   8
HETATM    8  N   UNL     1     -10.100  12.461  67.750  1.00  0.00    -0.199 N  
BRANCH   8   9
HETATM    9  C   UNL     1     -10.342  13.810  68.283  1.00  0.00    -0.247 C  
HETATM   10 CL   UNL     1     -12.026  13.082  70.326  1.00  0.00    -0.396 Cl 
HETATM   11  C   UNL     1     -11.760  13.999  68.819  1.00  0.00    -0.353 C  
ENDBRANCH   8   9
BRANCH   8  12
HETATM   12  N   UNL     1      -8.779  11.970  67.712  1.00  0.00    -0.154 NA 
HETATM   13  H   UNL     1      -8.778  10.966  67.530  1.00  0.00     0.000 HD 
HETATM   14  H   UNL     1      -7.151  12.224  66.888  1.00  0.00     0.000 HD 
HETATM   15  O   UNL     1      -8.041  12.555  66.913  1.00  0.00    -0.138 OA 
ENDBRANCH   8  12
ENDBRANCH   6   8
ENDBRANCH   4   6
ENDBRANCH   3   4
TORSDOF 5
ENDMDL
MODEL      203
REMARK 921   NORMALIZED FREE ENERGY PREDICTED BY IDOCK:   -2.93 KCAL/MOL
REMARK 922        TOTAL FREE ENERGY PREDICTED BY IDOCK:   -3.87 KCAL/MOL
REMARK 923 INTER-LIGAND FREE ENERGY PREDICTED BY IDOCK:   -3.31 KCAL/MOL
REMARK 924 INTRA-LIGAND FREE ENERGY PREDICTED BY IDOCK:   -0.56 KCAL/MOL
REMARK 927      BINDING AFFINITY PREDICTED BY RF-SCORE:    0.00 PKD
ROOT
HETATM    1 CL   UNL     1      -8.791   6.144  66.959  1.00  0.00    -0.110 Cl 
HETATM    2  C   UNL     1      -9.555   6.097  68.569  1.00  0.00    -0.119 C  
HETATM    3  C   UNL     1     -10.952   6.707  68.544  1.00  0.00    -0.244 C  
ENDROOT
BRANCH   3   4
HETATM    4  N   UNL     1     -10.970   8.087  68.075  1.00  0.00    -0.460 N  
HETATM    5  H   UNL     1     -11.523   8.337  67.256  1.00  0.00     0.000 HD 
BRANCH   4   6
HETATM    6  C   UNL     1     -10.241   9.056  68.734  1.00  0.00    -0.208 C  
HETATM    7  O   UNL     1      -9.182   9.457  68.250  1.00  0.00    -0.131 OA 
BRANCH   6   8
HETATM    8  N   UNL     1     -10.768   9.497  69.946  1.00  0.00    -0.228 N  
BRANCH   8   9
HETATM    9  C   UNL     1     -10.563   8.873  71.261  1.00  0.00    -0.281 C  
HETATM   10 CL   UNL     1     -12.916   7.460  71.349  1.00  0.00    -0.409 Cl 
HETATM   11  C   UNL     1     -11.856   8.708  72.057  1.00  0.00    -0.372 C  
ENDBRANCH   8   9
BRANCH   8  12
HETATM   12  N   UNL     1     -11.582  10.645  69.856  1.00  0.00    -0.289 NA 
HETATM   13  H   UNL     1     -11.024  11.488  69.990  1.00  0.00     0.000 HD 
HETATM   14  H   UNL     1     -12.787  11.497  68.752  1.00  0.00     0.000 HD 
HETATM   15  O   UNL     1     -12.238  10.724  68.812  1.00  0.00    -0.460 OA 
ENDBRANCH   8  12
ENDBRANCH   6   8
ENDBRANCH   4   6
ENDBRANCH   3   4
TORSDOF 5
ENDMDL
MODEL      204
REMARK 921   NORMALIZED FREE ENERGY PREDICTED BY IDOCK:   -2.92 KCAL/MOL
REMARK 922        TOTAL FREE ENERGY PREDICTED BY IDOCK:   -3.86 KCAL/MOL
REMARK 923 INTER-LIGAND FREE ENERGY PREDICTED BY IDOCK:   -3.43 KCAL/MOL
REMARK 924 INTRA-LIGAND FREE ENERGY PREDICTED BY IDOCK:   -0.43 KCAL/MOL
REMARK 927      BINDING AFFINITY PREDICTED BY RF-SCORE:    0.00 PKD
ROOT
HETATM    1 CL   UNL     1     -10.116  11.942  63.347  1.00  0.00    -0.454 Cl 
HETATM    2  C   UNL     1     -11.139  13.001  64.352  1.00  0.00    -0.370 C  
HETATM    3  C   UNL     1     -10.317  14.089  65.034  1.00  0.00    -0.409 C  
ENDROOT
BRANCH   3   4
HETATM    4  N   UNL     1      -9.249  13.563  65.874  1.00  0.00    -0.473 N  
HETATM    5  H   UNL     1      -8.365  13.278  65.452  1.00  0.00     0.000 HD 
BRANCH   4   6
HETATM    6  C   UNL     1      -9.428  13.449  67.238  1.00  0.00    -0.234 C  
HETATM    7  O   UNL     1     -10.287  12.683  67.678  1.00  0.00    -0.215 OA 
BRANCH   6   8
HETATM    8  N   UNL     1      -8.612  14.254  68.030  1.00  0.00    -0.160 N  
BRANCH   8   9
HETATM    9  C   UNL     1      -9.051  15.094  69.154  1.00  0.00    -0.215 C  
HETATM   10 CL   UNL     1     -10.497  16.911  67.689  1.00  0.00    -0.325 Cl 
HETATM   11  C   UNL     1      -9.140  16.576  68.798  1.00  0.00    -0.256 C  
ENDBRANCH   8   9
BRANCH   8  12
HETATM   12  N   UNL     1      -7.247  14.245  67.677  1.00  0.00    -0.173 NA 
HETATM   13  H   UNL     1      -6.973  13.322  67.341  1.00  0.00     0.000 HD 
HETATM   14  H   UNL     1      -6.007  15.110  66.624  1.00  0.00     0.000 HD 
HETATM   15  O   UNL     1      -6.927  15.116  66.861  1.00  0.00    -0.148 OA 
ENDBRANCH   8  12
ENDBRANCH   6   8
ENDBRANCH   4   6
ENDBRANCH   3   4
TORSDOF 5
ENDMDL
MODEL      205
REMARK 921   NORMALIZED FREE ENERGY PREDICTED BY IDOCK:   -2.92 KCAL/MOL
REMARK 922        TOTAL FREE ENERGY PREDICTED BY IDOCK:   -3.85 KCAL/MOL
REMARK 923 INTER-LIGAND FREE ENERGY PREDICTED BY IDOCK:   -3.31 KCAL/MOL
REMARK 924 INTRA-LIGAND FREE ENERGY PREDICTED BY IDOCK:   -0.55 KCAL/MOL
REMARK 927      BINDING AFFINITY PREDICTED BY RF-SCORE:    0.00 PKD
ROOT
HETATM    1 CL   UNL     1      -7.348  10.416  65.976  1.00  0.00    -0.128 Cl 
HETATM    2  C   UNL     1      -8.606  10.320  64.716  1.00  0.00    -0.184 C  
HETATM    3  C   UNL     1      -9.862  11.085  65.119  1.00  0.00    -0.268 C  
ENDROOT
BRANCH   3   4
HETATM    4  N   UNL     1     -10.441  10.621  66.373  1.00  0.00    -0.235 N  
HETATM    5  H   UNL     1     -10.448   9.625  66.591  1.00  0.00     0.000 HD 
BRANCH   4   6
HETATM    6  C   UNL     1     -10.981  11.524  67.267  1.00  0.00    -0.271 C  
HETATM    7  O   UNL     1     -12.148  11.391  67.638  1.00  0.00    -0.630 OA 
BRANCH   6   8
HETATM    8  N   UNL     1     -10.142  12.560  67.670  1.00  0.00    -0.213 N  
BRANCH   8   9
HETATM    9  C   UNL     1     -10.288  13.981  67.323  1.00  0.00    -0.264 C  
HETATM   10 CL   UNL     1     -11.237  14.839  69.753  1.00  0.00    -0.294 Cl 
HETATM   11  C   UNL     1     -11.488  14.644  67.998  1.00  0.00    -0.324 C  
ENDBRANCH   8   9
BRANCH   8  12
HETATM   12  N   UNL     1      -9.053  12.163  68.473  1.00  0.00    -0.345 NA 
HETATM   13  H   UNL     1      -8.883  12.851  69.208  1.00  0.00     0.000 HD 
HETATM   14  H   UNL     1      -8.429  10.765  69.498  1.00  0.00     0.000 HD 
HETATM   15  O   UNL     1      -9.163  11.032  68.958  1.00  0.00    -0.151 OA 
ENDBRANCH   8  12
ENDBRANCH   6   8
ENDBRANCH   4   6
ENDBRANCH   3   4
TORSDOF 5
ENDMDL
MODEL      206
REMARK 921   NORMALIZED FREE ENERGY PREDICTED BY IDOCK:   -2.91 KCAL/MOL
REMARK 922        TOTAL FREE ENERGY PREDICTED BY IDOCK:   -3.84 KCAL/MOL
REMARK 923 INTER-LIGAND FREE ENERGY PREDICTED BY IDOCK:   -3.34 KCAL/MOL
REMARK 924 INTRA-LIGAND FREE ENERGY PREDICTED BY IDOCK:   -0.50 KCAL/MOL
REMARK 927      BINDING AFFINITY PREDICTED BY RF-SCORE:    0.00 PKD
ROOT
HETATM    1 CL   UNL     1     -11.733  15.798  70.727  1.00  0.00    -0.389 Cl 
HETATM    2  C   UNL     1     -10.752  16.625  69.489  1.00  0.00    -0.306 C  
HETATM    3  C   UNL     1     -10.988  16.035  68.103  1.00  0.00    -0.339 C  
ENDROOT
BRANCH   3   4
HETATM    4  N   UNL     1     -10.702  14.608  68.028  1.00  0.00    -0.243 N  
HETATM    5  H   UNL     1     -10.717  14.042  68.876  1.00  0.00     0.000 HD 
BRANCH   4   6
HETATM    6  C   UNL     1     -10.410  14.019  66.814  1.00  0.00    -0.271 C  
HETATM    7  O   UNL     1     -10.613  14.641  65.770  1.00  0.00    -0.292 OA 
BRANCH   6   8
HETATM    8  N   UNL     1      -9.917  12.717  66.870  1.00  0.00    -0.226 N  
BRANCH   8   9
HETATM    9  C   UNL     1     -10.693  11.486  66.657  1.00  0.00    -0.268 C  
HETATM   10 CL   UNL     1     -11.876  11.384  69.133  1.00  0.00    -0.385 Cl 
HETATM   11  C   UNL     1     -10.815  10.627  67.914  1.00  0.00    -0.277 C  
ENDBRANCH   8   9
BRANCH   8  12
HETATM   12  N   UNL     1      -8.545  12.614  67.178  1.00  0.00    -0.196 NA 
HETATM   13  H   UNL     1      -7.985  13.082  66.465  1.00  0.00     0.000 HD 
HETATM   14  H   UNL     1      -7.320  12.955  68.511  1.00  0.00     0.000 HD 
HETATM   15  O   UNL     1      -8.244  13.025  68.303  1.00  0.00    -0.146 OA 
ENDBRANCH   8  12
ENDBRANCH   6   8
ENDBRANCH   4   6
ENDBRANCH   3   4
TORSDOF 5
ENDMDL
MODEL      207
REMARK 921   NORMALIZED FREE ENERGY PREDICTED BY IDOCK:   -2.91 KCAL/MOL
REMARK 922        TOTAL FREE ENERGY PREDICTED BY IDOCK:   -3.84 KCAL/MOL
REMARK 923 INTER-LIGAND FREE ENERGY PREDICTED BY IDOCK:   -3.59 KCAL/MOL
REMARK 924 INTRA-LIGAND FREE ENERGY PREDICTED BY IDOCK:   -0.25 KCAL/MOL
REMARK 927      BINDING AFFINITY PREDICTED BY RF-SCORE:    0.00 PKD
ROOT
HETATM    1 CL   UNL     1      -8.652  10.153  67.506  1.00  0.00    -0.119 Cl 
HETATM    2  C   UNL     1      -7.590  11.435  68.145  1.00  0.00    -0.114 C  
HETATM    3  C   UNL     1      -8.229  12.812  68.006  1.00  0.00    -0.168 C  
ENDROOT
BRANCH   3   4
HETATM    4  N   UNL     1      -8.571  13.152  66.631  1.00  0.00    -0.430 N  
HETATM    5  H   UNL     1      -8.122  12.658  65.859  1.00  0.00     0.000 HD 
BRANCH   4   6
HETATM    6  C   UNL     1      -9.498  14.140  66.368  1.00  0.00    -0.269 C  
HETATM    7  O   UNL     1      -9.115  15.266  66.048  1.00  0.00    -0.310 OA 
BRANCH   6   8
HETATM    8  N   UNL     1     -10.835  13.776  66.515  1.00  0.00    -0.286 N  
BRANCH   8   9
HETATM    9  C   UNL     1     -11.874  14.552  67.208  1.00  0.00    -0.392 C  
HETATM   10 CL   UNL     1     -10.297  15.513  69.239  1.00  0.00    -0.235 Cl 
HETATM   11  C   UNL     1     -11.710  14.554  68.727  1.00  0.00    -0.327 C  
ENDBRANCH   8   9
BRANCH   8  12
HETATM   12  N   UNL     1     -11.179  12.534  65.944  1.00  0.00    -0.305 NA 
HETATM   13  H   UNL     1     -10.903  11.770  66.561  1.00  0.00     0.000 HD 
HETATM   14  H   UNL     1     -12.601  11.592  65.248  1.00  0.00     0.000 HD 
HETATM   15  O   UNL     1     -12.370  12.429  65.633  1.00  0.00    -0.639 OA 
ENDBRANCH   8  12
ENDBRANCH   6   8
ENDBRANCH   4   6
ENDBRANCH   3   4
TORSDOF 5
ENDMDL
MODEL      208
REMARK 921   NORMALIZED FREE ENERGY PREDICTED BY IDOCK:   -2.91 KCAL/MOL
REMARK 922        TOTAL FREE ENERGY PREDICTED BY IDOCK:   -3.84 KCAL/MOL
REMARK 923 INTER-LIGAND FREE ENERGY PREDICTED BY IDOCK:   -3.43 KCAL/MOL
REMARK 924 INTRA-LIGAND FREE ENERGY PREDICTED BY IDOCK:   -0.41 KCAL/MOL
REMARK 927      BINDING AFFINITY PREDICTED BY RF-SCORE:    0.00 PKD
ROOT
HETATM    1 CL   UNL     1      -7.959  10.332  69.474  1.00  0.00    -0.165 Cl 
HETATM    2  C   UNL     1      -9.002   9.343  68.420  1.00  0.00    -0.128 C  
HETATM    3  C   UNL     1      -9.593  10.169  67.283  1.00  0.00    -0.159 C  
ENDROOT
BRANCH   3   4
HETATM    4  N   UNL     1     -10.370  11.312  67.744  1.00  0.00    -0.178 N  
HETATM    5  H   UNL     1     -11.060  11.190  68.485  1.00  0.00     0.000 HD 
BRANCH   4   6
HETATM    6  C   UNL     1     -10.178  12.558  67.182  1.00  0.00    -0.217 C  
HETATM    7  O   UNL     1      -9.033  12.955  66.958  1.00  0.00    -0.213 OA 
BRANCH   6   8
HETATM    8  N   UNL     1     -11.330  13.298  66.929  1.00  0.00    -0.305 N  
BRANCH   8   9
HETATM    9  C   UNL     1     -11.536  14.719  67.248  1.00  0.00    -0.366 C  
HETATM   10 CL   UNL     1     -11.002  15.719  64.747  1.00  0.00    -0.462 Cl 
HETATM   11  C   UNL     1     -10.596  15.649  66.483  1.00  0.00    -0.307 C  
ENDBRANCH   8   9
BRANCH   8  12
HETATM   12  N   UNL     1     -12.379  12.576  66.325  1.00  0.00    -0.498 NA 
HETATM   13  H   UNL     1     -13.224  13.147  66.279  1.00  0.00     0.000 HD 
HETATM   14  H   UNL     1     -12.813  11.633  64.802  1.00  0.00     0.000 HD 
HETATM   15  O   UNL     1     -12.106  12.120  65.209  1.00  0.00    -0.435 OA 
ENDBRANCH   8  12
ENDBRANCH   6   8
ENDBRANCH   4   6
ENDBRANCH   3   4
TORSDOF 5
ENDMDL
MODEL      209
REMARK 921   NORMALIZED FREE ENERGY PREDICTED BY IDOCK:   -2.91 KCAL/MOL
REMARK 922        TOTAL FREE ENERGY PREDICTED BY IDOCK:   -3.84 KCAL/MOL
REMARK 923 INTER-LIGAND FREE ENERGY PREDICTED BY IDOCK:   -3.71 KCAL/MOL
REMARK 924 INTRA-LIGAND FREE ENERGY PREDICTED BY IDOCK:   -0.13 KCAL/MOL
REMARK 927      BINDING AFFINITY PREDICTED BY RF-SCORE:    0.00 PKD
ROOT
HETATM    1 CL   UNL     1     -11.032   6.639  67.080  1.00  0.00    -0.471 Cl 
HETATM    2  C   UNL     1      -9.702   7.641  67.717  1.00  0.00    -0.148 C  
HETATM    3  C   UNL     1     -10.229   8.835  68.505  1.00  0.00    -0.195 C  
ENDROOT
BRANCH   3   4
HETATM    4  N   UNL     1     -11.111   9.695  67.726  1.00  0.00    -0.494 N  
HETATM    5  H   UNL     1     -12.116   9.522  67.724  1.00  0.00     0.000 HD 
BRANCH   4   6
HETATM    6  C   UNL     1     -10.592  10.742  66.992  1.00  0.00    -0.260 C  
HETATM    7  O   UNL     1     -10.107  10.526  65.881  1.00  0.00    -0.242 OA 
BRANCH   6   8
HETATM    8  N   UNL     1     -10.638  11.996  67.599  1.00  0.00    -0.206 N  
BRANCH   8   9
HETATM    9  C   UNL     1     -11.833  12.838  67.762  1.00  0.00    -0.332 C  
HETATM   10 CL   UNL     1     -12.677  12.757  65.150  1.00  0.00    -0.522 Cl 
HETATM   11  C   UNL     1     -12.118  13.717  66.546  1.00  0.00    -0.443 C  
ENDBRANCH   8   9
BRANCH   8  12
HETATM   12  N   UNL     1      -9.399  12.471  68.075  1.00  0.00    -0.200 NA 
HETATM   13  H   UNL     1      -8.641  12.155  67.470  1.00  0.00     0.000 HD 
HETATM   14  H   UNL     1      -8.513  14.016  68.548  1.00  0.00     0.000 HD 
HETATM   15  O   UNL     1      -9.348  13.696  68.227  1.00  0.00    -0.200 OA 
ENDBRANCH   8  12
ENDBRANCH   6   8
ENDBRANCH   4   6
ENDBRANCH   3   4
TORSDOF 5
ENDMDL
MODEL      210
REMARK 921   NORMALIZED FREE ENERGY PREDICTED BY IDOCK:   -2.91 KCAL/MOL
REMARK 922        TOTAL FREE ENERGY PREDICTED BY IDOCK:   -3.84 KCAL/MOL
REMARK 923 INTER-LIGAND FREE ENERGY PREDICTED BY IDOCK:   -3.28 KCAL/MOL
REMARK 924 INTRA-LIGAND FREE ENERGY PREDICTED BY IDOCK:   -0.56 KCAL/MOL
REMARK 927      BINDING AFFINITY PREDICTED BY RF-SCORE:    0.00 PKD
ROOT
HETATM    1 CL   UNL     1     -12.078  14.916  69.197  1.00  0.00    -0.302 Cl 
HETATM    2  C   UNL     1     -11.394  15.716  67.758  1.00  0.00    -0.261 C  
HETATM    3  C   UNL     1     -11.259  14.746  66.590  1.00  0.00    -0.346 C  
ENDROOT
BRANCH   3   4
HETATM    4  N   UNL     1     -10.433  13.585  66.897  1.00  0.00    -0.269 N  
HETATM    5  H   UNL     1      -9.468  13.715  67.203  1.00  0.00     0.000 HD 
BRANCH   4   6
HETATM    6  C   UNL     1     -10.949  12.311  66.776  1.00  0.00    -0.276 C  
HETATM    7  O   UNL     1     -12.141  12.111  67.014  1.00  0.00    -0.591 OA 
BRANCH   6   8
HETATM    8  N   UNL     1     -10.044  11.319  66.406  1.00  0.00    -0.213 N  
BRANCH   8   9
HETATM    9  C   UNL     1     -10.346  10.124  65.604  1.00  0.00    -0.140 C  
HETATM   10 CL   UNL     1     -10.363   8.312  67.666  1.00  0.00    -0.299 Cl 
HETATM   11  C   UNL     1      -9.659   8.862  66.122  1.00  0.00    -0.265 C  
ENDBRANCH   8   9
BRANCH   8  12
HETATM   12  N   UNL     1      -8.730  11.507  66.881  1.00  0.00    -0.174 NA 
HETATM   13  H   UNL     1      -8.288  12.291  66.401  1.00  0.00     0.000 HD 
HETATM   14  H   UNL     1      -7.761  11.775  68.425  1.00  0.00     0.000 HD 
HETATM   15  O   UNL     1      -8.646  11.648  68.105  1.00  0.00    -0.145 OA 
ENDBRANCH   8  12
ENDBRANCH   6   8
ENDBRANCH   4   6
ENDBRANCH   3   4
TORSDOF 5
ENDMDL
MODEL      211
REMARK 921   NORMALIZED FREE ENERGY PREDICTED BY IDOCK:   -2.91 KCAL/MOL
REMARK 922        TOTAL FREE ENERGY PREDICTED BY IDOCK:   -3.84 KCAL/MOL
REMARK 923 INTER-LIGAND FREE ENERGY PREDICTED BY IDOCK:   -3.47 KCAL/MOL
REMARK 924 INTRA-LIGAND FREE ENERGY PREDICTED BY IDOCK:   -0.37 KCAL/MOL
REMARK 927      BINDING AFFINITY PREDICTED BY RF-SCORE:    0.00 PKD
ROOT
HETATM    1 CL   UNL     1      -6.753  15.756  67.218  1.00  0.00    -0.224 Cl 
HETATM    2  C   UNL     1      -7.552  14.563  68.276  1.00  0.00    -0.121 C  
HETATM    3  C   UNL     1      -8.059  13.363  67.483  1.00  0.00    -0.181 C  
ENDROOT
BRANCH   3   4
HETATM    4  N   UNL     1      -8.992  13.725  66.424  1.00  0.00    -0.471 N  
HETATM    5  H   UNL     1      -8.639  13.997  65.507  1.00  0.00     0.000 HD 
BRANCH   4   6
HETATM    6  C   UNL     1     -10.352  13.702  66.657  1.00  0.00    -0.275 C  
HETATM    7  O   UNL     1     -10.957  12.629  66.632  1.00  0.00    -0.247 OA 
BRANCH   6   8
HETATM    8  N   UNL     1     -10.954  14.938  66.883  1.00  0.00    -0.321 N  
BRANCH   8   9
HETATM    9  C   UNL     1     -10.460  16.242  66.418  1.00  0.00    -0.294 C  
HETATM   10 CL   UNL     1      -9.720  17.231  68.870  1.00  0.00    -0.272 Cl 
HETATM   11  C   UNL     1     -10.729  17.375  67.406  1.00  0.00    -0.251 C  
ENDBRANCH   8   9
BRANCH   8  12
HETATM   12  N   UNL     1     -12.138  14.891  67.647  1.00  0.00    -0.499 NA 
HETATM   13  H   UNL     1     -12.816  14.263  67.214  1.00  0.00     0.000 HD 
HETATM   14  H   UNL     1     -12.765  14.560  69.348  1.00  0.00     0.000 HD 
HETATM   15  O   UNL     1     -11.967  14.592  68.833  1.00  0.00    -0.315 OA 
ENDBRANCH   8  12
ENDBRANCH   6   8
ENDBRANCH   4   6
ENDBRANCH   3   4
TORSDOF 5
ENDMDL
MODEL      212
REMARK 921   NORMALIZED FREE ENERGY PREDICTED BY IDOCK:   -2.91 KCAL/MOL
REMARK 922        TOTAL FREE ENERGY PREDICTED BY IDOCK:   -3.84 KCAL/MOL
REMARK 923 INTER-LIGAND FREE ENERGY PREDICTED BY IDOCK:   -3.25 KCAL/MOL
REMARK 924 INTRA-LIGAND FREE ENERGY PREDICTED BY IDOCK:   -0.59 KCAL/MOL
REMARK 927      BINDING AFFINITY PREDICTED BY RF-SCORE:    0.00 PKD
ROOT
HETATM    1 CL   UNL     1      -9.420   6.339  66.354  1.00  0.00    -0.178 Cl 
HETATM    2  C   UNL     1      -9.601   7.745  67.436  1.00  0.00    -0.151 C  
HETATM    3  C   UNL     1     -10.222   8.933  66.711  1.00  0.00    -0.278 C  
ENDROOT
BRANCH   3   4
HETATM    4  N   UNL     1      -9.461   9.357  65.543  1.00  0.00    -0.288 N  
HETATM    5  H   UNL     1      -8.728   8.755  65.169  1.00  0.00     0.000 HD 
BRANCH   4   6
HETATM    6  C   UNL     1      -9.727  10.570  64.941  1.00  0.00    -0.300 C  
HETATM    7  O   UNL     1     -10.268  10.596  63.835  1.00  0.00    -0.337 OA 
BRANCH   6   8
HETATM    8  N   UNL     1      -9.324  11.703  65.645  1.00  0.00    -0.212 N  
BRANCH   8   9
HETATM    9  C   UNL     1     -10.122  12.919  65.863  1.00  0.00    -0.289 C  
HETATM   10 CL   UNL     1     -11.451  12.068  68.110  1.00  0.00    -0.355 Cl 
HETATM   11  C   UNL     1     -11.515  12.632  66.419  1.00  0.00    -0.356 C  
ENDBRANCH   8   9
BRANCH   8  12
HETATM   12  N   UNL     1      -8.017  11.642  66.170  1.00  0.00    -0.377 NA 
HETATM   13  H   UNL     1      -7.491  12.478  65.912  1.00  0.00     0.000 HD 
HETATM   14  H   UNL     1      -7.085  11.418  67.744  1.00  0.00     0.000 HD 
HETATM   15  O   UNL     1      -7.966  11.460  67.391  1.00  0.00    -0.127 OA 
ENDBRANCH   8  12
ENDBRANCH   6   8
ENDBRANCH   4   6
ENDBRANCH   3   4
TORSDOF 5
ENDMDL
MODEL      213
REMARK 921   NORMALIZED FREE ENERGY PREDICTED BY IDOCK:   -2.90 KCAL/MOL
REMARK 922        TOTAL FREE ENERGY PREDICTED BY IDOCK:   -3.83 KCAL/MOL
REMARK 923 INTER-LIGAND FREE ENERGY PREDICTED BY IDOCK:   -3.56 KCAL/MOL
REMARK 924 INTRA-LIGAND FREE ENERGY PREDICTED BY IDOCK:   -0.27 KCAL/MOL
REMARK 927      BINDING AFFINITY PREDICTED BY RF-SCORE:    0.00 PKD
ROOT
HETATM    1 CL   UNL     1      -7.639  10.451  69.778  1.00  0.00    -0.160 Cl 
HETATM    2  C   UNL     1      -8.997   9.299  69.873  1.00  0.00    -0.183 C  
HETATM    3  C   UNL     1     -10.217   9.808  69.115  1.00  0.00    -0.199 C  
ENDROOT
BRANCH   3   4
HETATM    4  N   UNL     1     -10.690  11.103  69.586  1.00  0.00    -0.447 N  
HETATM    5  H   UNL     1     -10.522  11.383  70.552  1.00  0.00     0.000 HD 
BRANCH   4   6
HETATM    6  C   UNL     1     -11.364  11.952  68.732  1.00  0.00    -0.274 C  
HETATM    7  O   UNL     1     -12.038  11.483  67.813  1.00  0.00    -0.626 OA 
BRANCH   6   8
HETATM    8  N   UNL     1     -11.201  13.314  68.971  1.00  0.00    -0.266 N  
BRANCH   8   9
HETATM    9  C   UNL     1     -10.023  14.122  68.621  1.00  0.00    -0.222 C  
HETATM   10 CL   UNL     1     -10.200  13.837  65.896  1.00  0.00    -0.310 Cl 
HETATM   11  C   UNL     1      -9.272  13.593  67.400  1.00  0.00    -0.222 C  
ENDBRANCH   8   9
BRANCH   8  12
HETATM   12  N   UNL     1     -12.284  13.936  69.625  1.00  0.00    -0.338 NA 
HETATM   13  H   UNL     1     -12.448  13.501  70.533  1.00  0.00     0.000 HD 
HETATM   14  H   UNL     1     -12.900  15.579  70.188  1.00  0.00     0.000 HD 
HETATM   15  O   UNL     1     -12.170  15.160  69.747  1.00  0.00    -0.315 OA 
ENDBRANCH   8  12
ENDBRANCH   6   8
ENDBRANCH   4   6
ENDBRANCH   3   4
TORSDOF 5
ENDMDL
MODEL      214
REMARK 921   NORMALIZED FREE ENERGY PREDICTED BY IDOCK:   -2.90 KCAL/MOL
REMARK 922        TOTAL FREE ENERGY PREDICTED BY IDOCK:   -3.83 KCAL/MOL
REMARK 923 INTER-LIGAND FREE ENERGY PREDICTED BY IDOCK:   -3.26 KCAL/MOL
REMARK 924 INTRA-LIGAND FREE ENERGY PREDICTED BY IDOCK:   -0.57 KCAL/MOL
REMARK 927      BINDING AFFINITY PREDICTED BY RF-SCORE:    0.00 PKD
ROOT
HETATM    1 CL   UNL     1      -6.409  15.415  69.880  1.00  0.00    -0.160 Cl 
HETATM    2  C   UNL     1      -6.664  15.046  68.154  1.00  0.00    -0.128 C  
HETATM    3  C   UNL     1      -6.350  16.248  67.272  1.00  0.00    -0.179 C  
ENDROOT
BRANCH   3   4
HETATM    4  N   UNL     1      -7.138  17.428  67.603  1.00  0.00    -0.161 N  
HETATM    5  H   UNL     1      -7.061  17.847  68.530  1.00  0.00     0.000 HD 
BRANCH   4   6
HETATM    6  C   UNL     1      -7.990  17.981  66.669  1.00  0.00    -0.251 C  
HETATM    7  O   UNL     1      -7.525  18.562  65.688  1.00  0.00    -0.509 OA 
BRANCH   6   8
HETATM    8  N   UNL     1      -9.352  17.855  66.934  1.00  0.00    -0.267 N  
BRANCH   8   9
HETATM    9  C   UNL     1     -10.358  17.258  66.044  1.00  0.00    -0.305 C  
HETATM   10 CL   UNL     1     -10.328  14.734  67.123  1.00  0.00    -0.253 Cl 
HETATM   11  C   UNL     1     -10.075  15.794  65.711  1.00  0.00    -0.371 C  
ENDBRANCH   8   9
BRANCH   8  12
HETATM   12  N   UNL     1      -9.765  18.375  68.178  1.00  0.00    -0.315 NA 
HETATM   13  H   UNL     1      -9.839  17.628  68.869  1.00  0.00     0.000 HD 
HETATM   14  H   UNL     1      -9.335  19.642  69.445  1.00  0.00     0.000 HD 
HETATM   15  O   UNL     1      -9.056  19.292  68.607  1.00  0.00    -0.361 OA 
ENDBRANCH   8  12
ENDBRANCH   6   8
ENDBRANCH   4   6
ENDBRANCH   3   4
TORSDOF 5
ENDMDL
MODEL      215
REMARK 921   NORMALIZED FREE ENERGY PREDICTED BY IDOCK:   -2.89 KCAL/MOL
REMARK 922        TOTAL FREE ENERGY PREDICTED BY IDOCK:   -3.82 KCAL/MOL
REMARK 923 INTER-LIGAND FREE ENERGY PREDICTED BY IDOCK:   -3.39 KCAL/MOL
REMARK 924 INTRA-LIGAND FREE ENERGY PREDICTED BY IDOCK:   -0.43 KCAL/MOL
REMARK 927      BINDING AFFINITY PREDICTED BY RF-SCORE:    0.00 PKD
ROOT
HETATM    1 CL   UNL     1     -10.761  10.339  67.095  1.00  0.00    -0.316 Cl 
HETATM    2  C   UNL     1     -11.470  11.498  68.250  1.00  0.00    -0.299 C  
HETATM    3  C   UNL     1     -11.328  11.013  69.688  1.00  0.00    -0.292 C  
ENDROOT
BRANCH   3   4
HETATM    4  N   UNL     1     -11.941   9.711  69.920  1.00  0.00    -0.451 N  
HETATM    5  H   UNL     1     -12.147   9.099  69.131  1.00  0.00     0.000 HD 
BRANCH   4   6
HETATM    6  C   UNL     1     -12.243   9.302  71.203  1.00  0.00    -0.301 C  
HETATM    7  O   UNL     1     -13.007   9.978  71.894  1.00  0.00    -0.408 OA 
BRANCH   6   8
HETATM    8  N   UNL     1     -11.619   8.134  71.635  1.00  0.00    -0.266 N  
BRANCH   8   9
HETATM    9  C   UNL     1     -10.882   7.959  72.895  1.00  0.00    -0.386 C  
HETATM   10 CL   UNL     1      -8.354   7.950  71.822  1.00  0.00    -0.129 Cl 
HETATM   11  C   UNL     1      -9.626   7.103  72.742  1.00  0.00    -0.152 C  
ENDBRANCH   8   9
BRANCH   8  12
HETATM   12  N   UNL     1     -11.715   7.046  70.744  1.00  0.00    -0.336 NA 
HETATM   13  H   UNL     1     -11.196   6.245  71.104  1.00  0.00     0.000 HD 
HETATM   14  H   UNL     1     -12.937   5.986  69.861  1.00  0.00     0.000 HD 
HETATM   15  O   UNL     1     -12.873   6.719  70.462  1.00  0.00    -0.057 OA 
ENDBRANCH   8  12
ENDBRANCH   6   8
ENDBRANCH   4   6
ENDBRANCH   3   4
TORSDOF 5
ENDMDL
MODEL      216
REMARK 921   NORMALIZED FREE ENERGY PREDICTED BY IDOCK:   -2.89 KCAL/MOL
REMARK 922        TOTAL FREE ENERGY PREDICTED BY IDOCK:   -3.82 KCAL/MOL
REMARK 923 INTER-LIGAND FREE ENERGY PREDICTED BY IDOCK:   -3.61 KCAL/MOL
REMARK 924 INTRA-LIGAND FREE ENERGY PREDICTED BY IDOCK:   -0.21 KCAL/MOL
REMARK 927      BINDING AFFINITY PREDICTED BY RF-SCORE:    0.00 PKD
ROOT
HETATM    1 CL   UNL     1     -11.226   2.321  73.210  1.00  0.00    -0.270 Cl 
HETATM    2  C   UNL     1      -9.985   3.320  74.011  1.00  0.00    -0.122 C  
HETATM    3  C   UNL     1     -10.503   4.723  74.308  1.00  0.00    -0.287 C  
ENDROOT
BRANCH   3   4
HETATM    4  N   UNL     1     -10.956   5.433  73.119  1.00  0.00    -0.280 N  
HETATM    5  H   UNL     1     -11.424   4.922  72.370  1.00  0.00     0.000 HD 
BRANCH   4   6
HETATM    6  C   UNL     1     -10.756   6.793  73.001  1.00  0.00    -0.285 C  
HETATM    7  O   UNL     1     -10.046   7.378  73.821  1.00  0.00    -0.327 OA 
BRANCH   6   8
HETATM    8  N   UNL     1     -11.415   7.419  71.945  1.00  0.00    -0.258 N  
BRANCH   8   9
HETATM    9  C   UNL     1     -12.259   6.760  70.937  1.00  0.00    -0.331 C  
HETATM   10 CL   UNL     1     -10.324   5.130  69.871  1.00  0.00    -0.364 Cl 
HETATM   11  C   UNL     1     -11.513   6.441  69.643  1.00  0.00    -0.378 C  
ENDBRANCH   8   9
BRANCH   8  12
HETATM   12  N   UNL     1     -11.215   8.812  71.862  1.00  0.00    -0.346 NA 
HETATM   13  H   UNL     1     -10.775   9.056  70.975  1.00  0.00     0.000 HD 
HETATM   14  H   UNL     1     -12.103  10.422  71.981  1.00  0.00     0.000 HD 
HETATM   15  O   UNL     1     -12.237   9.484  72.036  1.00  0.00    -0.358 OA 
ENDBRANCH   8  12
ENDBRANCH   6   8
ENDBRANCH   4   6
ENDBRANCH   3   4
TORSDOF 5
ENDMDL
MODEL      217
REMARK 921   NORMALIZED FREE ENERGY PREDICTED BY IDOCK:   -2.89 KCAL/MOL
REMARK 922        TOTAL FREE ENERGY PREDICTED BY IDOCK:   -3.81 KCAL/MOL
REMARK 923 INTER-LIGAND FREE ENERGY PREDICTED BY IDOCK:   -3.28 KCAL/MOL
REMARK 924 INTRA-LIGAND FREE ENERGY PREDICTED BY IDOCK:   -0.53 KCAL/MOL
REMARK 927      BINDING AFFINITY PREDICTED BY RF-SCORE:    0.00 PKD
ROOT
HETATM    1 CL   UNL     1     -12.384  15.085  63.898  1.00  0.00    -0.129 Cl 
HETATM    2  C   UNL     1     -11.921  13.364  63.936  1.00  0.00    -0.465 C  
HETATM    3  C   UNL     1     -12.526  12.648  65.139  1.00  0.00    -0.463 C  
ENDROOT
BRANCH   3   4
HETATM    4  N   UNL     1     -12.150  13.245  66.414  1.00  0.00    -0.407 N  
HETATM    5  H   UNL     1     -12.841  13.767  66.953  1.00  0.00     0.000 HD 
BRANCH   4   6
HETATM    6  C   UNL     1     -10.864  13.108  66.895  1.00  0.00    -0.265 C  
HETATM    7  O   UNL     1     -10.136  14.098  66.983  1.00  0.00    -0.255 OA 
BRANCH   6   8
HETATM    8  N   UNL     1     -10.472  11.813  67.230  1.00  0.00    -0.209 N  
BRANCH   8   9
HETATM    9  C   UNL     1      -9.714  10.888  66.375  1.00  0.00    -0.201 C  
HETATM   10 CL   UNL     1      -7.542  10.586  68.026  1.00  0.00    -0.090 Cl 
HETATM   11  C   UNL     1      -8.204  11.099  66.451  1.00  0.00    -0.164 C  
ENDBRANCH   8   9
BRANCH   8  12
HETATM   12  N   UNL     1     -10.874  11.384  68.511  1.00  0.00    -0.197 NA 
HETATM   13  H   UNL     1     -10.322  11.851  69.231  1.00  0.00     0.000 HD 
HETATM   14  H   UNL     1     -12.351  11.228  69.601  1.00  0.00     0.000 HD 
HETATM   15  O   UNL     1     -12.081  11.518  68.738  1.00  0.00    -0.439 OA 
ENDBRANCH   8  12
ENDBRANCH   6   8
ENDBRANCH   4   6
ENDBRANCH   3   4
TORSDOF 5
ENDMDL
MODEL      218
REMARK 921   NORMALIZED FREE ENERGY PREDICTED BY IDOCK:   -2.89 KCAL/MOL
REMARK 922        TOTAL FREE ENERGY PREDICTED BY IDOCK:   -3.81 KCAL/MOL
REMARK 923 INTER-LIGAND FREE ENERGY PREDICTED BY IDOCK:   -3.24 KCAL/MOL
REMARK 924 INTRA-LIGAND FREE ENERGY PREDICTED BY IDOCK:   -0.57 KCAL/MOL
REMARK 927      BINDING AFFINITY PREDICTED BY RF-SCORE:    0.00 PKD
ROOT
HETATM    1 CL   UNL     1      -9.966  12.280  67.234  1.00  0.00    -0.206 Cl 
HETATM    2  C   UNL     1     -11.601  12.931  67.518  1.00  0.00    -0.356 C  
HETATM    3  C   UNL     1     -12.146  12.501  68.875  1.00  0.00    -0.122 C  
ENDROOT
BRANCH   3   4
HETATM    4  N   UNL     1     -12.200  11.055  69.042  1.00  0.00    -0.421 N  
HETATM    5  H   UNL     1     -12.400  10.458  68.240  1.00  0.00     0.000 HD 
BRANCH   4   6
HETATM    6  C   UNL     1     -11.982  10.488  70.282  1.00  0.00    -0.325 C  
HETATM    7  O   UNL     1     -12.418  11.044  71.291  1.00  0.00    -0.370 OA 
BRANCH   6   8
HETATM    8  N   UNL     1     -11.240   9.309  70.292  1.00  0.00    -0.245 N  
BRANCH   8   9
HETATM    9  C   UNL     1     -11.562   8.088  71.045  1.00  0.00    -0.283 C  
HETATM   10 CL   UNL     1      -9.592   8.319  72.944  1.00  0.00    -0.340 Cl 
HETATM   11  C   UNL     1     -10.328   7.388  71.612  1.00  0.00    -0.196 C  
ENDBRANCH   8   9
BRANCH   8  12
HETATM   12  N   UNL     1     -10.071   9.336  69.505  1.00  0.00    -0.190 NA 
HETATM   13  H   UNL     1     -10.308   9.294  68.514  1.00  0.00     0.000 HD 
HETATM   14  H   UNL     1      -8.540  10.315  69.201  1.00  0.00     0.000 HD 
HETATM   15  O   UNL     1      -9.328  10.297  69.730  1.00  0.00    -0.188 OA 
ENDBRANCH   8  12
ENDBRANCH   6   8
ENDBRANCH   4   6
ENDBRANCH   3   4
TORSDOF 5
ENDMDL
MODEL      219
REMARK 921   NORMALIZED FREE ENERGY PREDICTED BY IDOCK:   -2.88 KCAL/MOL
REMARK 922        TOTAL FREE ENERGY PREDICTED BY IDOCK:   -3.80 KCAL/MOL
REMARK 923 INTER-LIGAND FREE ENERGY PREDICTED BY IDOCK:   -3.21 KCAL/MOL
REMARK 924 INTRA-LIGAND FREE ENERGY PREDICTED BY IDOCK:   -0.59 KCAL/MOL
REMARK 927      BINDING AFFINITY PREDICTED BY RF-SCORE:    0.00 PKD
ROOT
HETATM    1 CL   UNL     1     -11.807  12.642  67.522  1.00  0.00    -0.426 Cl 
HETATM    2  C   UNL     1     -10.560  13.318  66.442  1.00  0.00    -0.284 C  
HETATM    3  C   UNL     1     -10.867  13.023  64.978  1.00  0.00    -0.308 C  
ENDROOT
BRANCH   3   4
HETATM    4  N   UNL     1     -10.989  11.599  64.691  1.00  0.00    -0.310 N  
HETATM    5  H   UNL     1     -11.850  11.106  64.928  1.00  0.00     0.000 HD 
BRANCH   4   6
HETATM    6  C   UNL     1      -9.946  10.915  64.101  1.00  0.00    -0.344 C  
HETATM    7  O   UNL     1      -9.765  11.009  62.886  1.00  0.00    -0.319 OA 
BRANCH   6   8
HETATM    8  N   UNL     1      -9.172  10.129  64.952  1.00  0.00    -0.210 N  
BRANCH   8   9
HETATM    9  C   UNL     1      -7.734  10.288  65.212  1.00  0.00    -0.144 C  
HETATM   10 CL   UNL     1      -6.834   8.585  63.256  1.00  0.00    -0.089 Cl 
HETATM   11  C   UNL     1      -6.936   9.005  64.986  1.00  0.00    -0.080 C  
ENDBRANCH   8   9
BRANCH   8  12
HETATM   12  N   UNL     1      -9.869   9.085  65.593  1.00  0.00    -0.465 NA 
HETATM   13  H   UNL     1      -9.240   8.307  65.791  1.00  0.00     0.000 HD 
HETATM   14  H   UNL     1     -10.939   8.723  67.049  1.00  0.00     0.000 HD 
HETATM   15  O   UNL     1     -10.469   9.427  66.618  1.00  0.00    -0.233 OA 
ENDBRANCH   8  12
ENDBRANCH   6   8
ENDBRANCH   4   6
ENDBRANCH   3   4
TORSDOF 5
ENDMDL
MODEL      220
REMARK 921   NORMALIZED FREE ENERGY PREDICTED BY IDOCK:   -2.88 KCAL/MOL
REMARK 922        TOTAL FREE ENERGY PREDICTED BY IDOCK:   -3.80 KCAL/MOL
REMARK 923 INTER-LIGAND FREE ENERGY PREDICTED BY IDOCK:   -3.18 KCAL/MOL
REMARK 924 INTRA-LIGAND FREE ENERGY PREDICTED BY IDOCK:   -0.62 KCAL/MOL
REMARK 927      BINDING AFFINITY PREDICTED BY RF-SCORE:    0.00 PKD
ROOT
HETATM    1 CL   UNL     1      -8.091   7.040  73.732  1.00  0.00    -0.131 Cl 
HETATM    2  C   UNL     1      -7.892   7.326  71.983  1.00  0.00    -0.090 C  
HETATM    3  C   UNL     1      -8.472   8.673  71.567  1.00  0.00    -0.181 C  
ENDROOT
BRANCH   3   4
HETATM    4  N   UNL     1      -9.885   8.817  71.891  1.00  0.00    -0.314 N  
HETATM    5  H   UNL     1     -10.168   9.033  72.846  1.00  0.00     0.000 HD 
BRANCH   4   6
HETATM    6  C   UNL     1     -10.844   8.661  70.910  1.00  0.00    -0.239 C  
HETATM    7  O   UNL     1     -10.935   9.496  70.009  1.00  0.00    -0.234 OA 
BRANCH   6   8
HETATM    8  N   UNL     1     -11.674   7.549  71.038  1.00  0.00    -0.289 N  
BRANCH   8   9
HETATM    9  C   UNL     1     -11.720   6.392  70.133  1.00  0.00    -0.303 C  
HETATM   10 CL   UNL     1     -10.330   4.643  71.729  1.00  0.00    -0.245 Cl 
HETATM   11  C   UNL     1     -10.458   5.534  70.189  1.00  0.00    -0.300 C  
ENDBRANCH   8   9
BRANCH   8  12
HETATM   12  N   UNL     1     -12.546   7.585  72.145  1.00  0.00    -0.484 NA 
HETATM   13  H   UNL     1     -12.204   6.974  72.887  1.00  0.00     0.000 HD 
HETATM   14  H   UNL     1     -13.352   8.742  73.331  1.00  0.00     0.000 HD 
HETATM   15  O   UNL     1     -12.764   8.719  72.585  1.00  0.00    -0.375 OA 
ENDBRANCH   8  12
ENDBRANCH   6   8
ENDBRANCH   4   6
ENDBRANCH   3   4
TORSDOF 5
ENDMDL
MODEL      221
REMARK 921   NORMALIZED FREE ENERGY PREDICTED BY IDOCK:   -2.87 KCAL/MOL
REMARK 922        TOTAL FREE ENERGY PREDICTED BY IDOCK:   -3.79 KCAL/MOL
REMARK 923 INTER-LIGAND FREE ENERGY PREDICTED BY IDOCK:   -3.73 KCAL/MOL
REMARK 924 INTRA-LIGAND FREE ENERGY PREDICTED BY IDOCK:   -0.06 KCAL/MOL
REMARK 927      BINDING AFFINITY PREDICTED BY RF-SCORE:    0.00 PKD
ROOT
HETATM    1 CL   UNL     1     -11.038   6.996  67.740  1.00  0.00    -0.214 Cl 
HETATM    2  C   UNL     1     -10.013   8.292  67.070  1.00  0.00    -0.255 C  
HETATM    3  C   UNL     1      -9.970   9.504  67.993  1.00  0.00    -0.167 C  
ENDROOT
BRANCH   3   4
HETATM    4  N   UNL     1     -11.286  10.066  68.269  1.00  0.00    -0.531 N  
HETATM    5  H   UNL     1     -12.032   9.464  68.619  1.00  0.00     0.000 HD 
BRANCH   4   6
HETATM    6  C   UNL     1     -11.529  11.408  68.058  1.00  0.00    -0.307 C  
HETATM    7  O   UNL     1     -12.063  11.774  67.010  1.00  0.00    -0.575 OA 
BRANCH   6   8
HETATM    8  N   UNL     1     -11.113  12.270  69.071  1.00  0.00    -0.244 N  
BRANCH   8   9
HETATM    9  C   UNL     1     -11.920  12.718  70.215  1.00  0.00    -0.280 C  
HETATM   10 CL   UNL     1     -12.014  10.316  71.541  1.00  0.00    -0.414 Cl 
HETATM   11  C   UNL     1     -12.880  11.648  70.730  1.00  0.00    -0.109 C  
ENDBRANCH   8   9
BRANCH   8  12
HETATM   12  N   UNL     1      -9.792  12.745  68.940  1.00  0.00    -0.417 NA 
HETATM   13  H   UNL     1      -9.163  11.983  68.688  1.00  0.00     0.000 HD 
HETATM   14  H   UNL     1      -8.777  14.008  68.062  1.00  0.00     0.000 HD 
HETATM   15  O   UNL     1      -9.667  13.688  68.150  1.00  0.00    -0.217 OA 
ENDBRANCH   8  12
ENDBRANCH   6   8
ENDBRANCH   4   6
ENDBRANCH   3   4
TORSDOF 5
ENDMDL
MODEL      222
REMARK 921   NORMALIZED FREE ENERGY PREDICTED BY IDOCK:   -2.87 KCAL/MOL
REMARK 922        TOTAL FREE ENERGY PREDICTED BY IDOCK:   -3.78 KCAL/MOL
REMARK 923 INTER-LIGAND FREE ENERGY PREDICTED BY IDOCK:   -3.25 KCAL/MOL
REMARK 924 INTRA-LIGAND FREE ENERGY PREDICTED BY IDOCK:   -0.54 KCAL/MOL
REMARK 927      BINDING AFFINITY PREDICTED BY RF-SCORE:    0.00 PKD
ROOT
HETATM    1 CL   UNL     1     -11.096  16.115  69.838  1.00  0.00    -0.341 Cl 
HETATM    2  C   UNL     1     -10.060  16.050  68.389  1.00  0.00    -0.229 C  
HETATM    3  C   UNL     1     -10.136  14.689  67.707  1.00  0.00    -0.228 C  
ENDROOT
BRANCH   3   4
HETATM    4  N   UNL     1      -9.759  13.585  68.581  1.00  0.00    -0.385 N  
HETATM    5  H   UNL     1      -8.898  13.639  69.125  1.00  0.00     0.000 HD 
BRANCH   4   6
HETATM    6  C   UNL     1     -10.562  12.467  68.675  1.00  0.00    -0.218 C  
HETATM    7  O   UNL     1     -11.787  12.591  68.636  1.00  0.00    -0.304 OA 
BRANCH   6   8
HETATM    8  N   UNL     1      -9.900  11.252  68.839  1.00  0.00    -0.178 N  
BRANCH   8   9
HETATM    9  C   UNL     1     -10.505   9.915  68.750  1.00  0.00    -0.213 C  
HETATM   10 CL   UNL     1     -11.431   9.776  71.331  1.00  0.00    -0.450 Cl 
HETATM   11  C   UNL     1     -10.388   9.114  70.045  1.00  0.00    -0.207 C  
ENDBRANCH   8   9
BRANCH   8  12
HETATM   12  N   UNL     1      -8.526  11.360  69.132  1.00  0.00    -0.377 NA 
HETATM   13  H   UNL     1      -8.236  10.612  69.763  1.00  0.00     0.000 HD 
HETATM   14  H   UNL     1      -6.868  11.465  68.334  1.00  0.00     0.000 HD 
HETATM   15  O   UNL     1      -7.794  11.392  68.136  1.00  0.00    -0.115 OA 
ENDBRANCH   8  12
ENDBRANCH   6   8
ENDBRANCH   4   6
ENDBRANCH   3   4
TORSDOF 5
ENDMDL
MODEL      223
REMARK 921   NORMALIZED FREE ENERGY PREDICTED BY IDOCK:   -2.86 KCAL/MOL
REMARK 922        TOTAL FREE ENERGY PREDICTED BY IDOCK:   -3.77 KCAL/MOL
REMARK 923 INTER-LIGAND FREE ENERGY PREDICTED BY IDOCK:   -3.34 KCAL/MOL
REMARK 924 INTRA-LIGAND FREE ENERGY PREDICTED BY IDOCK:   -0.43 KCAL/MOL
REMARK 927      BINDING AFFINITY PREDICTED BY RF-SCORE:    0.00 PKD
ROOT
HETATM    1 CL   UNL     1     -12.673   8.365  71.521  1.00  0.00    -0.329 Cl 
HETATM    2  C   UNL     1     -12.346   6.613  71.581  1.00  0.00    -0.332 C  
HETATM    3  C   UNL     1     -11.299   6.204  70.552  1.00  0.00    -0.310 C  
ENDROOT
BRANCH   3   4
HETATM    4  N   UNL     1     -11.669   6.547  69.185  1.00  0.00    -0.565 N  
HETATM    5  H   UNL     1     -12.588   6.286  68.828  1.00  0.00     0.000 HD 
BRANCH   4   6
HETATM    6  C   UNL     1     -10.783   7.223  68.372  1.00  0.00    -0.121 C  
HETATM    7  O   UNL     1     -10.525   8.406  68.601  1.00  0.00    -0.208 OA 
BRANCH   6   8
HETATM    8  N   UNL     1     -10.254   6.496  67.308  1.00  0.00    -0.164 N  
BRANCH   8   9
HETATM    9  C   UNL     1      -8.829   6.230  67.062  1.00  0.00    -0.108 C  
HETATM   10 CL   UNL     1      -8.439   4.467  69.131  1.00  0.00    -0.086 Cl 
HETATM   11  C   UNL     1      -8.027   6.014  68.344  1.00  0.00    -0.107 C  
ENDBRANCH   8   9
BRANCH   8  12
HETATM   12  N   UNL     1     -11.207   5.999  66.396  1.00  0.00    -0.722 NA 
HETATM   13  H   UNL     1     -11.420   6.700  65.687  1.00  0.00     0.000 HD 
HETATM   14  H   UNL     1     -11.537   4.593  65.252  1.00  0.00     0.000 HD 
HETATM   15  O   UNL     1     -10.894   4.928  65.865  1.00  0.00    -0.289 OA 
ENDBRANCH   8  12
ENDBRANCH   6   8
ENDBRANCH   4   6
ENDBRANCH   3   4
TORSDOF 5
ENDMDL
MODEL      224
REMARK 921   NORMALIZED FREE ENERGY PREDICTED BY IDOCK:   -2.85 KCAL/MOL
REMARK 922        TOTAL FREE ENERGY PREDICTED BY IDOCK:   -3.77 KCAL/MOL
REMARK 923 INTER-LIGAND FREE ENERGY PREDICTED BY IDOCK:   -3.40 KCAL/MOL
REMARK 924 INTRA-LIGAND FREE ENERGY PREDICTED BY IDOCK:   -0.37 KCAL/MOL
REMARK 927      BINDING AFFINITY PREDICTED BY RF-SCORE:    0.00 PKD
ROOT
HETATM    1 CL   UNL     1      -9.792  11.916  66.184  1.00  0.00    -0.245 Cl 
HETATM    2  C   UNL     1     -10.705  10.837  67.270  1.00  0.00    -0.274 C  
HETATM    3  C   UNL     1     -11.659  11.620  68.165  1.00  0.00    -0.319 C  
ENDROOT
BRANCH   3   4
HETATM    4  N   UNL     1     -10.989  12.623  68.983  1.00  0.00    -0.363 N  
HETATM    5  H   UNL     1     -10.120  12.388  69.463  1.00  0.00     0.000 HD 
BRANCH   4   6
HETATM    6  C   UNL     1     -11.525  13.888  69.111  1.00  0.00    -0.299 C  
HETATM    7  O   UNL     1     -12.465  14.076  69.884  1.00  0.00    -0.333 OA 
BRANCH   6   8
HETATM    8  N   UNL     1     -10.956  14.876  68.311  1.00  0.00    -0.255 N  
BRANCH   8   9
HETATM    9  C   UNL     1      -9.960  15.871  68.736  1.00  0.00    -0.220 C  
HETATM   10 CL   UNL     1      -7.849  14.901  67.274  1.00  0.00    -0.227 Cl 
HETATM   11  C   UNL     1      -8.551  15.295  68.865  1.00  0.00    -0.207 C  
ENDBRANCH   8   9
BRANCH   8  12
HETATM   12  N   UNL     1     -11.416  14.899  66.979  1.00  0.00    -0.349 NA 
HETATM   13  H   UNL     1     -12.432  14.995  66.955  1.00  0.00     0.000 HD 
HETATM   14  H   UNL     1     -11.195  15.776  65.373  1.00  0.00     0.000 HD 
HETATM   15  O   UNL     1     -10.885  15.761  66.271  1.00  0.00    -0.306 OA 
ENDBRANCH   8  12
ENDBRANCH   6   8
ENDBRANCH   4   6
ENDBRANCH   3   4
TORSDOF 5
ENDMDL
MODEL      225
REMARK 921   NORMALIZED FREE ENERGY PREDICTED BY IDOCK:   -2.85 KCAL/MOL
REMARK 922        TOTAL FREE ENERGY PREDICTED BY IDOCK:   -3.77 KCAL/MOL
REMARK 923 INTER-LIGAND FREE ENERGY PREDICTED BY IDOCK:   -3.60 KCAL/MOL
REMARK 924 INTRA-LIGAND FREE ENERGY PREDICTED BY IDOCK:   -0.16 KCAL/MOL
REMARK 927      BINDING AFFINITY PREDICTED BY RF-SCORE:    0.00 PKD
ROOT
HETATM    1 CL   UNL     1     -10.634  18.705  65.889  1.00  0.00    -0.463 Cl 
HETATM    2  C   UNL     1      -9.944  18.175  67.445  1.00  0.00    -0.323 C  
HETATM    3  C   UNL     1      -8.829  17.155  67.245  1.00  0.00    -0.217 C  
ENDROOT
BRANCH   3   4
HETATM    4  N   UNL     1      -9.256  15.970  66.513  1.00  0.00    -0.250 N  
HETATM    5  H   UNL     1      -9.250  15.974  65.493  1.00  0.00     0.000 HD 
BRANCH   4   6
HETATM    6  C   UNL     1      -9.670  14.843  67.193  1.00  0.00    -0.228 C  
HETATM    7  O   UNL     1      -8.832  14.092  67.696  1.00  0.00    -0.175 OA 
BRANCH   6   8
HETATM    8  N   UNL     1     -11.045  14.625  67.235  1.00  0.00    -0.317 N  
BRANCH   8   9
HETATM    9  C   UNL     1     -11.822  14.203  68.410  1.00  0.00    -0.353 C  
HETATM   10 CL   UNL     1     -11.301  16.395  69.979  1.00  0.00    -0.266 Cl 
HETATM   11  C   UNL     1     -11.191  14.631  69.733  1.00  0.00    -0.259 C  
ENDBRANCH   8   9
BRANCH   8  12
HETATM   12  N   UNL     1     -11.715  14.824  66.010  1.00  0.00    -0.300 NA 
HETATM   13  H   UNL     1     -11.045  15.023  65.267  1.00  0.00     0.000 HD 
HETATM   14  H   UNL     1     -12.914  14.031  64.857  1.00  0.00     0.000 HD 
HETATM   15  O   UNL     1     -12.462  13.896  65.682  1.00  0.00    -0.453 OA 
ENDBRANCH   8  12
ENDBRANCH   6   8
ENDBRANCH   4   6
ENDBRANCH   3   4
TORSDOF 5
ENDMDL
MODEL      226
REMARK 921   NORMALIZED FREE ENERGY PREDICTED BY IDOCK:   -2.84 KCAL/MOL
REMARK 922        TOTAL FREE ENERGY PREDICTED BY IDOCK:   -3.76 KCAL/MOL
REMARK 923 INTER-LIGAND FREE ENERGY PREDICTED BY IDOCK:   -3.18 KCAL/MOL
REMARK 924 INTRA-LIGAND FREE ENERGY PREDICTED BY IDOCK:   -0.58 KCAL/MOL
REMARK 927      BINDING AFFINITY PREDICTED BY RF-SCORE:    0.00 PKD
ROOT
HETATM    1 CL   UNL     1      -8.656   5.868  70.601  1.00  0.00    -0.131 Cl 
HETATM    2  C   UNL     1     -10.163   5.156  69.967  1.00  0.00    -0.284 C  
HETATM    3  C   UNL     1     -10.883   6.116  69.026  1.00  0.00    -0.350 C  
ENDROOT
BRANCH   3   4
HETATM    4  N   UNL     1     -11.212   7.393  69.646  1.00  0.00    -0.456 N  
HETATM    5  H   UNL     1     -11.889   7.428  70.408  1.00  0.00     0.000 HD 
BRANCH   4   6
HETATM    6  C   UNL     1     -10.611   8.556  69.208  1.00  0.00    -0.181 C  
HETATM    7  O   UNL     1      -9.660   8.494  68.427  1.00  0.00    -0.144 OA 
BRANCH   6   8
HETATM    8  N   UNL     1     -11.130   9.742  69.721  1.00  0.00    -0.244 N  
BRANCH   8   9
HETATM    9  C   UNL     1     -11.709  10.845  68.941  1.00  0.00    -0.306 C  
HETATM   10 CL   UNL     1      -9.346  12.042  68.220  1.00  0.00    -0.198 Cl 
HETATM   11  C   UNL     1     -10.917  12.146  69.059  1.00  0.00    -0.205 C  
ENDBRANCH   8   9
BRANCH   8  12
HETATM   12  N   UNL     1     -11.060   9.862  71.124  1.00  0.00    -0.340 NA 
HETATM   13  H   UNL     1     -11.962   9.640  71.546  1.00  0.00     0.000 HD 
HETATM   14  H   UNL     1     -10.115   9.277  72.593  1.00  0.00     0.000 HD 
HETATM   15  O   UNL     1     -10.162   9.195  71.649  1.00  0.00    -0.336 OA 
ENDBRANCH   8  12
ENDBRANCH   6   8
ENDBRANCH   4   6
ENDBRANCH   3   4
TORSDOF 5
ENDMDL
MODEL      227
REMARK 921   NORMALIZED FREE ENERGY PREDICTED BY IDOCK:   -2.84 KCAL/MOL
REMARK 922        TOTAL FREE ENERGY PREDICTED BY IDOCK:   -3.75 KCAL/MOL
REMARK 923 INTER-LIGAND FREE ENERGY PREDICTED BY IDOCK:   -3.95 KCAL/MOL
REMARK 924 INTRA-LIGAND FREE ENERGY PREDICTED BY IDOCK:    0.19 KCAL/MOL
REMARK 927      BINDING AFFINITY PREDICTED BY RF-SCORE:    0.00 PKD
ROOT
HETATM    1 CL   UNL     1     -10.919   6.612  67.211  1.00  0.00    -0.446 Cl 
HETATM    2  C   UNL     1     -10.174   6.082  68.742  1.00  0.00    -0.188 C  
HETATM    3  C   UNL     1     -11.167   6.140  69.897  1.00  0.00    -0.414 C  
ENDROOT
BRANCH   3   4
HETATM    4  N   UNL     1     -11.732   7.467  70.105  1.00  0.00    -0.497 N  
HETATM    5  H   UNL     1     -12.561   7.753  69.584  1.00  0.00     0.000 HD 
BRANCH   4   6
HETATM    6  C   UNL     1     -11.151   8.339  71.003  1.00  0.00    -0.251 C  
HETATM    7  O   UNL     1     -10.424   9.244  70.590  1.00  0.00    -0.221 OA 
BRANCH   6   8
HETATM    8  N   UNL     1     -11.421   8.100  72.348  1.00  0.00    -0.373 N  
BRANCH   8   9
HETATM    9  C   UNL     1     -10.473   7.582  73.346  1.00  0.00    -0.348 C  
HETATM   10 CL   UNL     1      -8.343   7.222  71.651  1.00  0.00    -0.108 Cl 
HETATM   11  C   UNL     1      -9.529   6.521  72.784  1.00  0.00    -0.142 C  
ENDBRANCH   8   9
BRANCH   8  12
HETATM   12  N   UNL     1     -12.745   8.380  72.746  1.00  0.00    -0.623 NA 
HETATM   13  H   UNL     1     -12.841   9.365  72.992  1.00  0.00     0.000 HD 
HETATM   14  H   UNL     1     -14.496   8.242  72.189  1.00  0.00     0.000 HD 
HETATM   15  O   UNL     1     -13.604   8.054  71.921  1.00  0.00    -0.338 OA 
ENDBRANCH   8  12
ENDBRANCH   6   8
ENDBRANCH   4   6
ENDBRANCH   3   4
TORSDOF 5
ENDMDL
MODEL      228
REMARK 921   NORMALIZED FREE ENERGY PREDICTED BY IDOCK:   -2.83 KCAL/MOL
REMARK 922        TOTAL FREE ENERGY PREDICTED BY IDOCK:   -3.74 KCAL/MOL
REMARK 923 INTER-LIGAND FREE ENERGY PREDICTED BY IDOCK:   -3.38 KCAL/MOL
REMARK 924 INTRA-LIGAND FREE ENERGY PREDICTED BY IDOCK:   -0.36 KCAL/MOL
REMARK 927      BINDING AFFINITY PREDICTED BY RF-SCORE:    0.00 PKD
ROOT
HETATM    1 CL   UNL     1     -10.362  18.512  66.101  1.00  0.00    -0.455 Cl 
HETATM    2  C   UNL     1      -9.249  18.276  67.474  1.00  0.00    -0.254 C  
HETATM    3  C   UNL     1      -7.972  17.563  67.044  1.00  0.00    -0.216 C  
ENDROOT
BRANCH   3   4
HETATM    4  N   UNL     1      -8.217  16.263  66.432  1.00  0.00    -0.311 N  
HETATM    5  H   UNL     1      -8.550  16.209  65.470  1.00  0.00     0.000 HD 
BRANCH   4   6
HETATM    6  C   UNL     1      -8.000  15.104  67.149  1.00  0.00    -0.215 C  
HETATM    7  O   UNL     1      -6.848  14.761  67.420  1.00  0.00    -0.203 OA 
BRANCH   6   8
HETATM    8  N   UNL     1      -9.138  14.379  67.497  1.00  0.00    -0.187 N  
BRANCH   8   9
HETATM    9  C   UNL     1     -10.427  14.395  66.790  1.00  0.00    -0.273 C  
HETATM   10 CL   UNL     1     -11.859  15.745  68.704  1.00  0.00    -0.363 Cl 
HETATM   11  C   UNL     1     -11.627  14.271  67.726  1.00  0.00    -0.354 C  
ENDBRANCH   8   9
BRANCH   8  12
HETATM   12  N   UNL     1      -9.002  13.579  68.650  1.00  0.00    -0.367 NA 
HETATM   13  H   UNL     1      -9.801  13.713  69.271  1.00  0.00     0.000 HD 
HETATM   14  H   UNL     1      -8.739  11.839  69.197  1.00  0.00     0.000 HD 
HETATM   15  O   UNL     1      -8.831  12.378  68.420  1.00  0.00    -0.182 OA 
ENDBRANCH   8  12
ENDBRANCH   6   8
ENDBRANCH   4   6
ENDBRANCH   3   4
TORSDOF 5
ENDMDL
MODEL      229
REMARK 921   NORMALIZED FREE ENERGY PREDICTED BY IDOCK:   -2.83 KCAL/MOL
REMARK 922        TOTAL FREE ENERGY PREDICTED BY IDOCK:   -3.74 KCAL/MOL
REMARK 923 INTER-LIGAND FREE ENERGY PREDICTED BY IDOCK:   -3.36 KCAL/MOL
REMARK 924 INTRA-LIGAND FREE ENERGY PREDICTED BY IDOCK:   -0.38 KCAL/MOL
REMARK 927      BINDING AFFINITY PREDICTED BY RF-SCORE:    0.00 PKD
ROOT
HETATM    1 CL   UNL     1     -11.589  16.194  64.206  1.00  0.00    -0.294 Cl 
HETATM    2  C   UNL     1     -10.443  16.414  65.555  1.00  0.00    -0.330 C  
HETATM    3  C   UNL     1      -9.658  15.138  65.835  1.00  0.00    -0.338 C  
ENDROOT
BRANCH   3   4
HETATM    4  N   UNL     1     -10.507  13.995  66.145  1.00  0.00    -0.290 N  
HETATM    5  H   UNL     1     -11.180  14.055  66.909  1.00  0.00     0.000 HD 
BRANCH   4   6
HETATM    6  C   UNL     1     -10.405  12.831  65.410  1.00  0.00    -0.293 C  
HETATM    7  O   UNL     1     -10.806  12.809  64.245  1.00  0.00    -0.341 OA 
BRANCH   6   8
HETATM    8  N   UNL     1      -9.864  11.734  66.075  1.00  0.00    -0.226 N  
BRANCH   8   9
HETATM    9  C   UNL     1     -10.614  10.720  66.831  1.00  0.00    -0.258 C  
HETATM   10 CL   UNL     1     -11.047  12.218  69.091  1.00  0.00    -0.279 Cl 
HETATM   11  C   UNL     1     -10.341  10.765  68.333  1.00  0.00    -0.180 C  
ENDBRANCH   8   9
BRANCH   8  12
HETATM   12  N   UNL     1      -8.459  11.631  66.005  1.00  0.00    -0.380 NA 
HETATM   13  H   UNL     1      -8.052  11.681  66.939  1.00  0.00     0.000 HD 
HETATM   14  H   UNL     1      -7.105  10.560  65.361  1.00  0.00     0.000 HD 
HETATM   15  O   UNL     1      -8.051  10.629  65.409  1.00  0.00    -0.156 OA 
ENDBRANCH   8  12
ENDBRANCH   6   8
ENDBRANCH   4   6
ENDBRANCH   3   4
TORSDOF 5
ENDMDL
MODEL      230
REMARK 921   NORMALIZED FREE ENERGY PREDICTED BY IDOCK:   -2.82 KCAL/MOL
REMARK 922        TOTAL FREE ENERGY PREDICTED BY IDOCK:   -3.73 KCAL/MOL
REMARK 923 INTER-LIGAND FREE ENERGY PREDICTED BY IDOCK:   -3.36 KCAL/MOL
REMARK 924 INTRA-LIGAND FREE ENERGY PREDICTED BY IDOCK:   -0.37 KCAL/MOL
REMARK 927      BINDING AFFINITY PREDICTED BY RF-SCORE:    0.00 PKD
ROOT
HETATM    1 CL   UNL     1     -10.381   8.504  67.695  1.00  0.00    -0.303 Cl 
HETATM    2  C   UNL     1      -9.167   9.662  68.297  1.00  0.00    -0.129 C  
HETATM    3  C   UNL     1      -9.784  11.029  68.570  1.00  0.00    -0.189 C  
ENDROOT
BRANCH   3   4
HETATM    4  N   UNL     1     -10.427  11.615  67.400  1.00  0.00    -0.204 N  
HETATM    5  H   UNL     1     -11.210  11.134  66.957  1.00  0.00     0.000 HD 
BRANCH   4   6
HETATM    6  C   UNL     1      -9.981  12.817  66.889  1.00  0.00    -0.232 C  
HETATM    7  O   UNL     1      -8.780  13.086  66.925  1.00  0.00    -0.207 OA 
BRANCH   6   8
HETATM    8  N   UNL     1     -10.962  13.666  66.382  1.00  0.00    -0.296 N  
BRANCH   8   9
HETATM    9  C   UNL     1     -12.154  14.141  67.099  1.00  0.00    -0.397 C  
HETATM   10 CL   UNL     1     -11.050  16.434  68.131  1.00  0.00    -0.346 Cl 
HETATM   11  C   UNL     1     -11.823  14.851  68.411  1.00  0.00    -0.278 C  
ENDBRANCH   8   9
BRANCH   8  12
HETATM   12  N   UNL     1     -10.763  14.071  65.047  1.00  0.00    -0.372 NA 
HETATM   13  H   UNL     1     -11.539  13.761  64.461  1.00  0.00     0.000 HD 
HETATM   14  H   UNL     1     -10.439  15.557  64.006  1.00  0.00     0.000 HD 
HETATM   15  O   UNL     1     -10.574  15.284  64.906  1.00  0.00    -0.407 OA 
ENDBRANCH   8  12
ENDBRANCH   6   8
ENDBRANCH   4   6
ENDBRANCH   3   4
TORSDOF 5
ENDMDL
MODEL      231
REMARK 921   NORMALIZED FREE ENERGY PREDICTED BY IDOCK:   -2.82 KCAL/MOL
REMARK 922        TOTAL FREE ENERGY PREDICTED BY IDOCK:   -3.72 KCAL/MOL
REMARK 923 INTER-LIGAND FREE ENERGY PREDICTED BY IDOCK:   -3.30 KCAL/MOL
REMARK 924 INTRA-LIGAND FREE ENERGY PREDICTED BY IDOCK:   -0.43 KCAL/MOL
REMARK 927      BINDING AFFINITY PREDICTED BY RF-SCORE:    0.00 PKD
ROOT
HETATM    1 CL   UNL     1      -9.440  15.480  69.172  1.00  0.00    -0.229 Cl 
HETATM    2  C   UNL     1     -10.906  16.012  68.309  1.00  0.00    -0.319 C  
HETATM    3  C   UNL     1     -10.781  15.793  66.806  1.00  0.00    -0.293 C  
ENDROOT
BRANCH   3   4
HETATM    4  N   UNL     1      -9.637  16.477  66.217  1.00  0.00    -0.288 N  
HETATM    5  H   UNL     1      -8.884  15.934  65.794  1.00  0.00     0.000 HD 
BRANCH   4   6
HETATM    6  C   UNL     1      -9.567  17.855  66.229  1.00  0.00    -0.241 C  
HETATM    7  O   UNL     1     -10.574  18.518  65.975  1.00  0.00    -0.438 OA 
BRANCH   6   8
HETATM    8  N   UNL     1      -8.317  18.400  66.510  1.00  0.00    -0.269 N  
BRANCH   8   9
HETATM    9  C   UNL     1      -7.066  18.121  65.790  1.00  0.00    -0.221 C  
HETATM   10 CL   UNL     1      -6.235  16.009  67.335  1.00  0.00    -0.195 Cl 
HETATM   11  C   UNL     1      -5.937  17.651  66.705  1.00  0.00    -0.182 C  
ENDBRANCH   8   9
BRANCH   8  12
HETATM   12  N   UNL     1      -8.289  19.287  67.606  1.00  0.00    -0.285 NA 
HETATM   13  H   UNL     1      -7.555  19.020  68.261  1.00  0.00     0.000 HD 
HETATM   14  H   UNL     1      -8.160  21.075  68.033  1.00  0.00     0.000 HD 
HETATM   15  O   UNL     1      -8.178  20.478  67.295  1.00  0.00    -0.339 OA 
ENDBRANCH   8  12
ENDBRANCH   6   8
ENDBRANCH   4   6
ENDBRANCH   3   4
TORSDOF 5
ENDMDL
MODEL      232
REMARK 921   NORMALIZED FREE ENERGY PREDICTED BY IDOCK:   -2.82 KCAL/MOL
REMARK 922        TOTAL FREE ENERGY PREDICTED BY IDOCK:   -3.72 KCAL/MOL
REMARK 923 INTER-LIGAND FREE ENERGY PREDICTED BY IDOCK:   -3.32 KCAL/MOL
REMARK 924 INTRA-LIGAND FREE ENERGY PREDICTED BY IDOCK:   -0.40 KCAL/MOL
REMARK 927      BINDING AFFINITY PREDICTED BY RF-SCORE:    0.00 PKD
ROOT
HETATM    1 CL   UNL     1     -11.009  10.548  66.694  1.00  0.00    -0.172 Cl 
HETATM    2  C   UNL     1     -11.855  11.699  67.760  1.00  0.00    -0.176 C  
HETATM    3  C   UNL     1     -11.614  11.381  69.231  1.00  0.00    -0.317 C  
ENDROOT
BRANCH   3   4
HETATM    4  N   UNL     1     -12.025  10.034  69.605  1.00  0.00    -0.475 N  
HETATM    5  H   UNL     1     -12.910   9.660  69.261  1.00  0.00     0.000 HD 
BRANCH   4   6
HETATM    6  C   UNL     1     -11.224   9.262  70.421  1.00  0.00    -0.247 C  
HETATM    7  O   UNL     1     -10.717   9.761  71.426  1.00  0.00    -0.267 OA 
BRANCH   6   8
HETATM    8  N   UNL     1     -11.027   7.944  70.013  1.00  0.00    -0.238 N  
BRANCH   8   9
HETATM    9  C   UNL     1      -9.749   7.345  69.602  1.00  0.00    -0.163 C  
HETATM   10 CL   UNL     1     -10.548   6.485  67.120  1.00  0.00    -0.349 Cl 
HETATM   11  C   UNL     1      -9.920   6.093  68.743  1.00  0.00    -0.145 C  
ENDBRANCH   8   9
BRANCH   8  12
HETATM   12  N   UNL     1     -12.190   7.149  69.993  1.00  0.00    -0.433 NA 
HETATM   13  H   UNL     1     -11.956   6.181  69.768  1.00  0.00     0.000 HD 
HETATM   14  H   UNL     1     -13.645   6.665  71.016  1.00  0.00     0.000 HD 
HETATM   15  O   UNL     1     -12.861   7.201  71.030  1.00  0.00    -0.341 OA 
ENDBRANCH   8  12
ENDBRANCH   6   8
ENDBRANCH   4   6
ENDBRANCH   3   4
TORSDOF 5
ENDMDL
MODEL      233
REMARK 921   NORMALIZED FREE ENERGY PREDICTED BY IDOCK:   -2.81 KCAL/MOL
REMARK 922        TOTAL FREE ENERGY PREDICTED BY IDOCK:   -3.72 KCAL/MOL
REMARK 923 INTER-LIGAND FREE ENERGY PREDICTED BY IDOCK:   -3.37 KCAL/MOL
REMARK 924 INTRA-LIGAND FREE ENERGY PREDICTED BY IDOCK:   -0.35 KCAL/MOL
REMARK 927      BINDING AFFINITY PREDICTED BY RF-SCORE:    0.00 PKD
ROOT
HETATM    1 CL   UNL     1     -10.812  10.253  67.197  1.00  0.00    -0.308 Cl 
HETATM    2  C   UNL     1      -9.088  10.697  67.098  1.00  0.00    -0.143 C  
HETATM    3  C   UNL     1      -8.892  12.205  67.201  1.00  0.00    -0.191 C  
ENDROOT
BRANCH   3   4
HETATM    4  N   UNL     1      -9.611  12.951  66.175  1.00  0.00    -0.373 N  
HETATM    5  H   UNL     1      -9.363  12.831  65.193  1.00  0.00     0.000 HD 
BRANCH   4   6
HETATM    6  C   UNL     1     -10.624  13.819  66.526  1.00  0.00    -0.279 C  
HETATM    7  O   UNL     1     -11.724  13.726  65.980  1.00  0.00    -0.335 OA 
BRANCH   6   8
HETATM    8  N   UNL     1     -10.302  14.779  67.484  1.00  0.00    -0.238 N  
BRANCH   8   9
HETATM    9  C   UNL     1      -9.149  15.691  67.445  1.00  0.00    -0.194 C  
HETATM   10 CL   UNL     1     -10.363  17.730  66.064  1.00  0.00    -0.355 Cl 
HETATM   11  C   UNL     1      -9.070  16.505  66.155  1.00  0.00    -0.306 C  
ENDBRANCH   8   9
BRANCH   8  12
HETATM   12  N   UNL     1     -11.181  14.838  68.584  1.00  0.00    -0.260 NA 
HETATM   13  H   UNL     1     -10.668  14.703  69.456  1.00  0.00     0.000 HD 
HETATM   14  H   UNL     1     -12.453  15.907  69.380  1.00  0.00     0.000 HD 
HETATM   15  O   UNL     1     -11.861  15.868  68.638  1.00  0.00    -0.388 OA 
ENDBRANCH   8  12
ENDBRANCH   6   8
ENDBRANCH   4   6
ENDBRANCH   3   4
TORSDOF 5
ENDMDL
MODEL      234
REMARK 921   NORMALIZED FREE ENERGY PREDICTED BY IDOCK:   -2.81 KCAL/MOL
REMARK 922        TOTAL FREE ENERGY PREDICTED BY IDOCK:   -3.71 KCAL/MOL
REMARK 923 INTER-LIGAND FREE ENERGY PREDICTED BY IDOCK:   -3.53 KCAL/MOL
REMARK 924 INTRA-LIGAND FREE ENERGY PREDICTED BY IDOCK:   -0.18 KCAL/MOL
REMARK 927      BINDING AFFINITY PREDICTED BY RF-SCORE:    0.00 PKD
ROOT
HETATM    1 CL   UNL     1     -11.101   8.839  72.002  1.00  0.00    -0.433 Cl 
HETATM    2  C   UNL     1     -10.560   8.109  70.468  1.00  0.00    -0.220 C  
HETATM    3  C   UNL     1      -9.316   8.804  69.926  1.00  0.00    -0.162 C  
ENDROOT
BRANCH   3   4
HETATM    4  N   UNL     1      -9.504  10.232  69.706  1.00  0.00    -0.393 N  
HETATM    5  H   UNL     1      -9.221  10.898  70.425  1.00  0.00     0.000 HD 
BRANCH   4   6
HETATM    6  C   UNL     1     -10.063  10.688  68.529  1.00  0.00    -0.172 C  
HETATM    7  O   UNL     1     -10.043   9.972  67.527  1.00  0.00    -0.177 OA 
BRANCH   6   8
HETATM    8  N   UNL     1     -10.598  11.974  68.565  1.00  0.00    -0.225 N  
BRANCH   8   9
HETATM    9  C   UNL     1     -10.517  12.978  67.495  1.00  0.00    -0.227 C  
HETATM   10 CL   UNL     1     -11.805  15.008  68.822  1.00  0.00    -0.346 Cl 
HETATM   11  C   UNL     1     -11.741  13.890  67.433  1.00  0.00    -0.389 C  
ENDBRANCH   8   9
BRANCH   8  12
HETATM   12  N   UNL     1     -11.259  12.308  69.765  1.00  0.00    -0.486 NA 
HETATM   13  H   UNL     1     -11.588  13.273  69.733  1.00  0.00     0.000 HD 
HETATM   14  H   UNL     1     -12.629  11.771  70.875  1.00  0.00     0.000 HD 
HETATM   15  O   UNL     1     -12.184  11.546  70.066  1.00  0.00    -0.299 OA 
ENDBRANCH   8  12
ENDBRANCH   6   8
ENDBRANCH   4   6
ENDBRANCH   3   4
TORSDOF 5
ENDMDL
MODEL      235
REMARK 921   NORMALIZED FREE ENERGY PREDICTED BY IDOCK:   -2.81 KCAL/MOL
REMARK 922        TOTAL FREE ENERGY PREDICTED BY IDOCK:   -3.71 KCAL/MOL
REMARK 923 INTER-LIGAND FREE ENERGY PREDICTED BY IDOCK:   -3.71 KCAL/MOL
REMARK 924 INTRA-LIGAND FREE ENERGY PREDICTED BY IDOCK:    0.00 KCAL/MOL
REMARK 927      BINDING AFFINITY PREDICTED BY RF-SCORE:    0.00 PKD
ROOT
HETATM    1 CL   UNL     1      -7.589  16.881  66.234  1.00  0.00    -0.335 Cl 
HETATM    2  C   UNL     1      -8.875  16.359  67.352  1.00  0.00    -0.183 C  
HETATM    3  C   UNL     1      -9.067  14.847  67.318  1.00  0.00    -0.201 C  
ENDROOT
BRANCH   3   4
HETATM    4  N   UNL     1      -9.386  14.337  65.991  1.00  0.00    -0.521 N  
HETATM    5  H   UNL     1      -8.641  14.186  65.311  1.00  0.00     0.000 HD 
BRANCH   4   6
HETATM    6  C   UNL     1     -10.694  14.057  65.648  1.00  0.00    -0.303 C  
HETATM    7  O   UNL     1     -11.115  14.379  64.536  1.00  0.00    -0.362 OA 
BRANCH   6   8
HETATM    8  N   UNL     1     -11.462  13.435  66.630  1.00  0.00    -0.330 N  
BRANCH   8   9
HETATM    9  C   UNL     1     -11.775  12.000  66.709  1.00  0.00    -0.264 C  
HETATM   10 CL   UNL     1      -9.484  11.214  68.003  1.00  0.00    -0.168 Cl 
HETATM   11  C   UNL     1     -10.543  11.108  66.571  1.00  0.00    -0.262 C  
ENDBRANCH   8   9
BRANCH   8  12
HETATM   12  N   UNL     1     -11.982  14.301  67.613  1.00  0.00    -0.509 NA 
HETATM   13  H   UNL     1     -12.722  14.883  67.219  1.00  0.00     0.000 HD 
HETATM   14  H   UNL     1     -12.730  14.315  69.298  1.00  0.00     0.000 HD 
HETATM   15  O   UNL     1     -12.380  13.731  68.635  1.00  0.00    -0.271 OA 
ENDBRANCH   8  12
ENDBRANCH   6   8
ENDBRANCH   4   6
ENDBRANCH   3   4
TORSDOF 5
ENDMDL
MODEL      236
REMARK 921   NORMALIZED FREE ENERGY PREDICTED BY IDOCK:   -2.81 KCAL/MOL
REMARK 922        TOTAL FREE ENERGY PREDICTED BY IDOCK:   -3.71 KCAL/MOL
REMARK 923 INTER-LIGAND FREE ENERGY PREDICTED BY IDOCK:   -3.29 KCAL/MOL
REMARK 924 INTRA-LIGAND FREE ENERGY PREDICTED BY IDOCK:   -0.42 KCAL/MOL
REMARK 927      BINDING AFFINITY PREDICTED BY RF-SCORE:    0.00 PKD
ROOT
HETATM    1 CL   UNL     1     -14.330   8.456  71.569  1.00  0.00    -0.510 Cl 
HETATM    2  C   UNL     1     -12.848   9.320  72.053  1.00  0.00    -0.415 C  
HETATM    3  C   UNL     1     -12.015   9.724  70.842  1.00  0.00    -0.328 C  
ENDROOT
BRANCH   3   4
HETATM    4  N   UNL     1     -11.627   8.595  70.006  1.00  0.00    -0.452 N  
HETATM    5  H   UNL     1     -12.149   7.721  70.061  1.00  0.00     0.000 HD 
BRANCH   4   6
HETATM    6  C   UNL     1     -10.557   8.704  69.141  1.00  0.00    -0.178 C  
HETATM    7  O   UNL     1     -10.348   9.771  68.561  1.00  0.00    -0.186 OA 
BRANCH   6   8
HETATM    8  N   UNL     1      -9.792   7.553  68.969  1.00  0.00    -0.166 N  
BRANCH   8   9
HETATM    9  C   UNL     1      -8.731   7.074  69.868  1.00  0.00    -0.142 C  
HETATM   10 CL   UNL     1      -9.903   4.687  70.550  1.00  0.00    -0.286 Cl 
HETATM   11  C   UNL     1      -9.265   6.274  71.055  1.00  0.00    -0.154 C  
ENDBRANCH   8   9
BRANCH   8  12
HETATM   12  N   UNL     1     -10.082   6.815  67.803  1.00  0.00    -0.144 NA 
HETATM   13  H   UNL     1      -9.425   6.042  67.699  1.00  0.00     0.000 HD 
HETATM   14  H   UNL     1     -11.442   5.909  66.952  1.00  0.00     0.000 HD 
HETATM   15  O   UNL     1     -11.246   6.405  67.738  1.00  0.00    -0.323 OA 
ENDBRANCH   8  12
ENDBRANCH   6   8
ENDBRANCH   4   6
ENDBRANCH   3   4
TORSDOF 5
ENDMDL
MODEL      237
REMARK 921   NORMALIZED FREE ENERGY PREDICTED BY IDOCK:   -2.80 KCAL/MOL
REMARK 922        TOTAL FREE ENERGY PREDICTED BY IDOCK:   -3.71 KCAL/MOL
REMARK 923 INTER-LIGAND FREE ENERGY PREDICTED BY IDOCK:   -3.17 KCAL/MOL
REMARK 924 INTRA-LIGAND FREE ENERGY PREDICTED BY IDOCK:   -0.53 KCAL/MOL
REMARK 927      BINDING AFFINITY PREDICTED BY RF-SCORE:    0.00 PKD
ROOT
HETATM    1 CL   UNL     1     -10.616  11.923  64.647  1.00  0.00    -0.334 Cl 
HETATM    2  C   UNL     1     -12.024  12.434  65.614  1.00  0.00    -0.386 C  
HETATM    3  C   UNL     1     -11.597  13.118  66.907  1.00  0.00    -0.368 C  
ENDROOT
BRANCH   3   4
HETATM    4  N   UNL     1     -10.750  12.282  67.749  1.00  0.00    -0.211 N  
HETATM    5  H   UNL     1      -9.817  12.603  68.008  1.00  0.00     0.000 HD 
BRANCH   4   6
HETATM    6  C   UNL     1     -11.205  11.059  68.196  1.00  0.00    -0.302 C  
HETATM    7  O   UNL     1     -12.364  10.949  68.599  1.00  0.00    -0.501 OA 
BRANCH   6   8
HETATM    8  N   UNL     1     -10.277  10.019  68.179  1.00  0.00    -0.166 N  
BRANCH   8   9
HETATM    9  C   UNL     1     -10.565   8.595  68.403  1.00  0.00    -0.120 C  
HETATM   10 CL   UNL     1     -11.092   8.764  71.092  1.00  0.00    -0.315 Cl 
HETATM   11  C   UNL     1     -10.099   8.096  69.770  1.00  0.00    -0.197 C  
ENDBRANCH   8   9
BRANCH   8  12
HETATM   12  N   UNL     1      -8.946  10.416  67.935  1.00  0.00    -0.128 NA 
HETATM   13  H   UNL     1      -8.900  11.022  67.115  1.00  0.00     0.000 HD 
HETATM   14  H   UNL     1      -7.493  11.218  68.735  1.00  0.00     0.000 HD 
HETATM   15  O   UNL     1      -8.389  10.951  68.899  1.00  0.00    -0.145 OA 
ENDBRANCH   8  12
ENDBRANCH   6   8
ENDBRANCH   4   6
ENDBRANCH   3   4
TORSDOF 5
ENDMDL
MODEL      238
REMARK 921   NORMALIZED FREE ENERGY PREDICTED BY IDOCK:   -2.80 KCAL/MOL
REMARK 922        TOTAL FREE ENERGY PREDICTED BY IDOCK:   -3.70 KCAL/MOL
REMARK 923 INTER-LIGAND FREE ENERGY PREDICTED BY IDOCK:   -3.16 KCAL/MOL
REMARK 924 INTRA-LIGAND FREE ENERGY PREDICTED BY IDOCK:   -0.54 KCAL/MOL
REMARK 927      BINDING AFFINITY PREDICTED BY RF-SCORE:    0.00 PKD
ROOT
HETATM    1 CL   UNL     1      -8.392  10.133  69.876  1.00  0.00    -0.164 Cl 
HETATM    2  C   UNL     1      -9.966   9.794  69.111  1.00  0.00    -0.189 C  
HETATM    3  C   UNL     1     -10.363  10.896  68.135  1.00  0.00    -0.178 C  
ENDROOT
BRANCH   3   4
HETATM    4  N   UNL     1     -10.436  12.214  68.753  1.00  0.00    -0.338 N  
HETATM    5  H   UNL     1     -11.053  12.368  69.549  1.00  0.00     0.000 HD 
BRANCH   4   6
HETATM    6  C   UNL     1      -9.673  13.255  68.264  1.00  0.00    -0.225 C  
HETATM    7  O   UNL     1      -8.444  13.190  68.323  1.00  0.00    -0.164 OA 
BRANCH   6   8
HETATM    8  N   UNL     1     -10.379  14.340  67.749  1.00  0.00    -0.237 N  
BRANCH   8   9
HETATM    9  C   UNL     1     -10.504  15.667  68.370  1.00  0.00    -0.242 C  
HETATM   10 CL   UNL     1     -11.544  14.833  70.771  1.00  0.00    -0.329 Cl 
HETATM   11  C   UNL     1     -11.726  15.793  69.278  1.00  0.00    -0.374 C  
ENDBRANCH   8   9
BRANCH   8  12
HETATM   12  N   UNL     1     -11.032  14.096  66.524  1.00  0.00    -0.305 NA 
HETATM   13  H   UNL     1     -10.452  13.512  65.921  1.00  0.00     0.000 HD 
HETATM   14  H   UNL     1     -12.603  13.445  65.812  1.00  0.00     0.000 HD 
HETATM   15  O   UNL     1     -12.162  13.608  66.638  1.00  0.00    -0.415 OA 
ENDBRANCH   8  12
ENDBRANCH   6   8
ENDBRANCH   4   6
ENDBRANCH   3   4
TORSDOF 5
ENDMDL
MODEL      239
REMARK 921   NORMALIZED FREE ENERGY PREDICTED BY IDOCK:   -2.80 KCAL/MOL
REMARK 922        TOTAL FREE ENERGY PREDICTED BY IDOCK:   -3.70 KCAL/MOL
REMARK 923 INTER-LIGAND FREE ENERGY PREDICTED BY IDOCK:   -3.73 KCAL/MOL
REMARK 924 INTRA-LIGAND FREE ENERGY PREDICTED BY IDOCK:    0.02 KCAL/MOL
REMARK 927      BINDING AFFINITY PREDICTED BY RF-SCORE:    0.00 PKD
ROOT
HETATM    1 CL   UNL     1     -13.196  15.361  71.257  1.00  0.00    -0.544 Cl 
HETATM    2  C   UNL     1     -13.949  13.788  71.626  1.00  0.00    -0.178 C  
HETATM    3  C   UNL     1     -12.903  12.692  71.792  1.00  0.00    -0.238 C  
ENDROOT
BRANCH   3   4
HETATM    4  N   UNL     1     -12.054  12.523  70.619  1.00  0.00    -0.498 N  
HETATM    5  H   UNL     1     -11.381  13.248  70.371  1.00  0.00     0.000 HD 
BRANCH   4   6
HETATM    6  C   UNL     1     -12.158  11.387  69.842  1.00  0.00    -0.330 C  
HETATM    7  O   UNL     1     -12.580  11.474  68.688  1.00  0.00    -0.162 OA 
BRANCH   6   8
HETATM    8  N   UNL     1     -11.790  10.192  70.456  1.00  0.00    -0.301 N  
BRANCH   8   9
HETATM    9  C   UNL     1     -10.483   9.526  70.345  1.00  0.00    -0.278 C  
HETATM   10 CL   UNL     1     -10.731   8.701  67.738  1.00  0.00    -0.233 Cl 
HETATM   11  C   UNL     1     -10.516   8.282  69.458  1.00  0.00    -0.227 C  
ENDBRANCH   8   9
BRANCH   8  12
HETATM   12  N   UNL     1     -12.798   9.589  71.235  1.00  0.00    -0.385 NA 
HETATM   13  H   UNL     1     -13.469   9.106  70.637  1.00  0.00     0.000 HD 
HETATM   14  H   UNL     1     -13.056   8.423  72.638  1.00  0.00     0.000 HD 
HETATM   15  O   UNL     1     -12.377   8.829  72.113  1.00  0.00    -0.352 OA 
ENDBRANCH   8  12
ENDBRANCH   6   8
ENDBRANCH   4   6
ENDBRANCH   3   4
TORSDOF 5
ENDMDL
MODEL      240
REMARK 921   NORMALIZED FREE ENERGY PREDICTED BY IDOCK:   -2.79 KCAL/MOL
REMARK 922        TOTAL FREE ENERGY PREDICTED BY IDOCK:   -3.69 KCAL/MOL
REMARK 923 INTER-LIGAND FREE ENERGY PREDICTED BY IDOCK:   -3.33 KCAL/MOL
REMARK 924 INTRA-LIGAND FREE ENERGY PREDICTED BY IDOCK:   -0.36 KCAL/MOL
REMARK 927      BINDING AFFINITY PREDICTED BY RF-SCORE:    0.00 PKD
ROOT
HETATM    1 CL   UNL     1      -9.308   6.757  74.564  1.00  0.00    -0.248 Cl 
HETATM    2  C   UNL     1      -8.748   7.211  72.933  1.00  0.00    -0.122 C  
HETATM    3  C   UNL     1      -9.406   8.500  72.455  1.00  0.00    -0.278 C  
ENDROOT
BRANCH   3   4
HETATM    4  N   UNL     1     -10.861   8.430  72.430  1.00  0.00    -0.352 N  
HETATM    5  H   UNL     1     -11.355   7.882  73.135  1.00  0.00     0.000 HD 
BRANCH   4   6
HETATM    6  C   UNL     1     -11.574   9.101  71.457  1.00  0.00    -0.368 C  
HETATM    7  O   UNL     1     -12.415   9.939  71.787  1.00  0.00    -0.382 OA 
BRANCH   6   8
HETATM    8  N   UNL     1     -11.295   8.744  70.140  1.00  0.00    -0.158 N  
BRANCH   8   9
HETATM    9  C   UNL     1     -10.699   9.612  69.114  1.00  0.00    -0.217 C  
HETATM   10 CL   UNL     1      -8.198   8.479  69.105  1.00  0.00    -0.117 Cl 
HETATM   11  C   UNL     1      -9.223   9.915  69.365  1.00  0.00    -0.214 C  
ENDBRANCH   8   9
BRANCH   8  12
HETATM   12  N   UNL     1     -11.645   7.423  69.796  1.00  0.00    -0.487 NA 
HETATM   13  H   UNL     1     -10.831   6.919  69.444  1.00  0.00     0.000 HD 
HETATM   14  H   UNL     1     -12.423   5.896  70.473  1.00  0.00     0.000 HD 
HETATM   15  O   UNL     1     -12.187   6.786  70.706  1.00  0.00    -0.390 OA 
ENDBRANCH   8  12
ENDBRANCH   6   8
ENDBRANCH   4   6
ENDBRANCH   3   4
TORSDOF 5
ENDMDL
MODEL      241
REMARK 921   NORMALIZED FREE ENERGY PREDICTED BY IDOCK:   -2.78 KCAL/MOL
REMARK 922        TOTAL FREE ENERGY PREDICTED BY IDOCK:   -3.67 KCAL/MOL
REMARK 923 INTER-LIGAND FREE ENERGY PREDICTED BY IDOCK:   -3.10 KCAL/MOL
REMARK 924 INTRA-LIGAND FREE ENERGY PREDICTED BY IDOCK:   -0.57 KCAL/MOL
REMARK 927      BINDING AFFINITY PREDICTED BY RF-SCORE:    0.00 PKD
ROOT
HETATM    1 CL   UNL     1     -10.137  17.940  66.071  1.00  0.00    -0.297 Cl 
HETATM    2  C   UNL     1     -10.861  18.277  67.665  1.00  0.00    -0.244 C  
HETATM    3  C   UNL     1      -9.792  18.491  68.730  1.00  0.00    -0.376 C  
ENDROOT
BRANCH   3   4
HETATM    4  N   UNL     1      -8.886  17.359  68.875  1.00  0.00    -0.210 N  
HETATM    5  H   UNL     1      -7.878  17.505  68.823  1.00  0.00     0.000 HD 
BRANCH   4   6
HETATM    6  C   UNL     1      -9.387  16.089  69.081  1.00  0.00    -0.251 C  
HETATM    7  O   UNL     1     -10.173  15.887  70.008  1.00  0.00    -0.279 OA 
BRANCH   6   8
HETATM    8  N   UNL     1      -8.926  15.103  68.212  1.00  0.00    -0.170 N  
BRANCH   8   9
HETATM    9  C   UNL     1      -9.658  13.893  67.806  1.00  0.00    -0.222 C  
HETATM   10 CL   UNL     1     -10.067  14.596  65.183  1.00  0.00    -0.400 Cl 
HETATM   11  C   UNL     1     -10.750  14.169  66.775  1.00  0.00    -0.286 C  
ENDBRANCH   8   9
BRANCH   8  12
HETATM   12  N   UNL     1      -7.627  15.315  67.708  1.00  0.00    -0.140 NA 
HETATM   13  H   UNL     1      -7.207  14.430  67.424  1.00  0.00     0.000 HD 
HETATM   14  H   UNL     1      -6.690  16.280  66.449  1.00  0.00     0.000 HD 
HETATM   15  O   UNL     1      -7.565  16.137  66.788  1.00  0.00    -0.225 OA 
ENDBRANCH   8  12
ENDBRANCH   6   8
ENDBRANCH   4   6
ENDBRANCH   3   4
TORSDOF 5
ENDMDL
MODEL      242
REMARK 921   NORMALIZED FREE ENERGY PREDICTED BY IDOCK:   -2.78 KCAL/MOL
REMARK 922        TOTAL FREE ENERGY PREDICTED BY IDOCK:   -3.67 KCAL/MOL
REMARK 923 INTER-LIGAND FREE ENERGY PREDICTED BY IDOCK:   -3.29 KCAL/MOL
REMARK 924 INTRA-LIGAND FREE ENERGY PREDICTED BY IDOCK:   -0.38 KCAL/MOL
REMARK 927      BINDING AFFINITY PREDICTED BY RF-SCORE:    0.00 PKD
ROOT
HETATM    1 CL   UNL     1      -7.056  13.458  68.607  1.00  0.00    -0.102 Cl 
HETATM    2  C   UNL     1      -7.226  11.706  68.323  1.00  0.00    -0.085 C  
HETATM    3  C   UNL     1      -7.549  11.404  66.865  1.00  0.00    -0.151 C  
ENDROOT
BRANCH   3   4
HETATM    4  N   UNL     1      -8.766  12.057  66.397  1.00  0.00    -0.357 N  
HETATM    5  H   UNL     1      -8.712  12.980  65.966  1.00  0.00     0.000 HD 
BRANCH   4   6
HETATM    6  C   UNL     1      -9.989  11.433  66.536  1.00  0.00    -0.211 C  
HETATM    7  O   UNL     1     -10.148  10.298  66.086  1.00  0.00    -0.230 OA 
BRANCH   6   8
HETATM    8  N   UNL     1     -10.983  12.173  67.172  1.00  0.00    -0.254 N  
BRANCH   8   9
HETATM    9  C   UNL     1     -10.951  12.658  68.559  1.00  0.00    -0.261 C  
HETATM   10 CL   UNL     1     -10.290  10.273  69.749  1.00  0.00    -0.287 Cl 
HETATM   11  C   UNL     1     -11.443  11.623  69.569  1.00  0.00    -0.304 C  
ENDBRANCH   8   9
BRANCH   8  12
HETATM   12  N   UNL     1     -12.116  12.448  66.379  1.00  0.00    -0.614 NA 
HETATM   13  H   UNL     1     -12.921  11.917  66.713  1.00  0.00     0.000 HD 
HETATM   14  H   UNL     1     -13.161  13.833  65.758  1.00  0.00     0.000 HD 
HETATM   15  O   UNL     1     -12.398  13.648  66.292  1.00  0.00    -0.432 OA 
ENDBRANCH   8  12
ENDBRANCH   6   8
ENDBRANCH   4   6
ENDBRANCH   3   4
TORSDOF 5
ENDMDL
MODEL      243
REMARK 921   NORMALIZED FREE ENERGY PREDICTED BY IDOCK:   -2.77 KCAL/MOL
REMARK 922        TOTAL FREE ENERGY PREDICTED BY IDOCK:   -3.66 KCAL/MOL
REMARK 923 INTER-LIGAND FREE ENERGY PREDICTED BY IDOCK:   -3.47 KCAL/MOL
REMARK 924 INTRA-LIGAND FREE ENERGY PREDICTED BY IDOCK:   -0.19 KCAL/MOL
REMARK 927      BINDING AFFINITY PREDICTED BY RF-SCORE:    0.00 PKD
ROOT
HETATM    1 CL   UNL     1     -11.751  11.074  70.722  1.00  0.00    -0.372 Cl 
HETATM    2  C   UNL     1     -12.525   9.837  71.747  1.00  0.00    -0.398 C  
HETATM    3  C   UNL     1     -11.530   8.767  72.180  1.00  0.00    -0.351 C  
ENDROOT
BRANCH   3   4
HETATM    4  N   UNL     1     -10.889   8.089  71.060  1.00  0.00    -0.231 N  
HETATM    5  H   UNL     1     -10.280   8.613  70.431  1.00  0.00     0.000 HD 
BRANCH   4   6
HETATM    6  C   UNL     1     -11.102   6.742  70.847  1.00  0.00    -0.277 C  
HETATM    7  O   UNL     1     -11.628   6.367  69.798  1.00  0.00    -0.431 OA 
BRANCH   6   8
HETATM    8  N   UNL     1     -10.715   5.892  71.881  1.00  0.00    -0.231 N  
BRANCH   8   9
HETATM    9  C   UNL     1      -9.355   5.393  72.131  1.00  0.00    -0.143 C  
HETATM   10 CL   UNL     1      -8.968   6.633  74.550  1.00  0.00    -0.194 Cl 
HETATM   11  C   UNL     1      -8.467   6.405  72.853  1.00  0.00    -0.117 C  
ENDBRANCH   8   9
BRANCH   8  12
HETATM   12  N   UNL     1     -11.760   5.483  72.735  1.00  0.00    -0.468 NA 
HETATM   13  H   UNL     1     -12.656   5.533  72.250  1.00  0.00     0.000 HD 
HETATM   14  H   UNL     1     -12.304   4.088  73.808  1.00  0.00     0.000 HD 
HETATM   15  O   UNL     1     -11.601   4.363  73.233  1.00  0.00    -0.261 OA 
ENDBRANCH   8  12
ENDBRANCH   6   8
ENDBRANCH   4   6
ENDBRANCH   3   4
TORSDOF 5
ENDMDL
MODEL      244
REMARK 921   NORMALIZED FREE ENERGY PREDICTED BY IDOCK:   -2.77 KCAL/MOL
REMARK 922        TOTAL FREE ENERGY PREDICTED BY IDOCK:   -3.66 KCAL/MOL
REMARK 923 INTER-LIGAND FREE ENERGY PREDICTED BY IDOCK:   -3.52 KCAL/MOL
REMARK 924 INTRA-LIGAND FREE ENERGY PREDICTED BY IDOCK:   -0.14 KCAL/MOL
REMARK 927      BINDING AFFINITY PREDICTED BY RF-SCORE:    0.00 PKD
ROOT
HETATM    1 CL   UNL     1      -8.690   6.790  65.948  1.00  0.00    -0.159 Cl 
HETATM    2  C   UNL     1      -9.809   5.710  66.819  1.00  0.00    -0.164 C  
HETATM    3  C   UNL     1     -11.130   6.405  67.129  1.00  0.00    -0.341 C  
ENDROOT
BRANCH   3   4
HETATM    4  N   UNL     1     -10.970   7.621  67.917  1.00  0.00    -0.484 N  
HETATM    5  H   UNL     1     -11.237   8.522  67.521  1.00  0.00     0.000 HD 
BRANCH   4   6
HETATM    6  C   UNL     1     -10.458   7.559  69.197  1.00  0.00    -0.215 C  
HETATM    7  O   UNL     1      -9.558   8.332  69.532  1.00  0.00    -0.168 OA 
BRANCH   6   8
HETATM    8  N   UNL     1     -11.000   6.578  70.025  1.00  0.00    -0.299 N  
BRANCH   8   9
HETATM    9  C   UNL     1     -10.378   5.291  70.368  1.00  0.00    -0.275 C  
HETATM   10 CL   UNL     1     -11.289   5.141  72.954  1.00  0.00    -0.360 Cl 
HETATM   11  C   UNL     1      -9.913   5.217  71.821  1.00  0.00    -0.187 C  
ENDBRANCH   8   9
BRANCH   8  12
HETATM   12  N   UNL     1     -12.272   6.882  70.550  1.00  0.00    -0.601 NA 
HETATM   13  H   UNL     1     -12.553   6.178  71.232  1.00  0.00     0.000 HD 
HETATM   14  H   UNL     1     -13.223   8.219  71.389  1.00  0.00     0.000 HD 
HETATM   15  O   UNL     1     -12.366   8.015  71.036  1.00  0.00    -0.263 OA 
ENDBRANCH   8  12
ENDBRANCH   6   8
ENDBRANCH   4   6
ENDBRANCH   3   4
TORSDOF 5
ENDMDL
MODEL      245
REMARK 921   NORMALIZED FREE ENERGY PREDICTED BY IDOCK:   -2.76 KCAL/MOL
REMARK 922        TOTAL FREE ENERGY PREDICTED BY IDOCK:   -3.65 KCAL/MOL
REMARK 923 INTER-LIGAND FREE ENERGY PREDICTED BY IDOCK:   -3.50 KCAL/MOL
REMARK 924 INTRA-LIGAND FREE ENERGY PREDICTED BY IDOCK:   -0.15 KCAL/MOL
REMARK 927      BINDING AFFINITY PREDICTED BY RF-SCORE:    0.00 PKD
ROOT
HETATM    1 CL   UNL     1      -8.219  10.042  69.517  1.00  0.00    -0.156 Cl 
HETATM    2  C   UNL     1      -9.799   9.824  68.721  1.00  0.00    -0.169 C  
HETATM    3  C   UNL     1     -10.194  11.057  67.916  1.00  0.00    -0.182 C  
ENDROOT
BRANCH   3   4
HETATM    4  N   UNL     1     -10.256  12.273  68.717  1.00  0.00    -0.390 N  
HETATM    5  H   UNL     1     -10.372  12.209  69.728  1.00  0.00     0.000 HD 
BRANCH   4   6
HETATM    6  C   UNL     1     -10.158  13.510  68.114  1.00  0.00    -0.250 C  
HETATM    7  O   UNL     1      -9.048  14.012  67.929  1.00  0.00    -0.174 OA 
BRANCH   6   8
HETATM    8  N   UNL     1     -11.363  14.121  67.775  1.00  0.00    -0.291 N  
BRANCH   8   9
HETATM    9  C   UNL     1     -12.168  13.847  66.576  1.00  0.00    -0.442 C  
HETATM   10 CL   UNL     1     -10.188  14.265  64.721  1.00  0.00    -0.392 Cl 
HETATM   11  C   UNL     1     -11.783  14.716  65.380  1.00  0.00    -0.330 C  
ENDBRANCH   8   9
BRANCH   8  12
HETATM   12  N   UNL     1     -11.809  15.100  68.686  1.00  0.00    -0.492 NA 
HETATM   13  H   UNL     1     -11.320  15.006  69.577  1.00  0.00     0.000 HD 
HETATM   14  H   UNL     1     -12.028  16.919  68.883  1.00  0.00     0.000 HD 
HETATM   15  O   UNL     1     -11.727  16.260  68.269  1.00  0.00    -0.238 OA 
ENDBRANCH   8  12
ENDBRANCH   6   8
ENDBRANCH   4   6
ENDBRANCH   3   4
TORSDOF 5
ENDMDL
MODEL      246
REMARK 921   NORMALIZED FREE ENERGY PREDICTED BY IDOCK:   -2.76 KCAL/MOL
REMARK 922        TOTAL FREE ENERGY PREDICTED BY IDOCK:   -3.65 KCAL/MOL
REMARK 923 INTER-LIGAND FREE ENERGY PREDICTED BY IDOCK:   -3.53 KCAL/MOL
REMARK 924 INTRA-LIGAND FREE ENERGY PREDICTED BY IDOCK:   -0.13 KCAL/MOL
REMARK 927      BINDING AFFINITY PREDICTED BY RF-SCORE:    0.00 PKD
ROOT
HETATM    1 CL   UNL     1     -11.148   6.466  67.467  1.00  0.00    -0.443 Cl 
HETATM    2  C   UNL     1     -10.668   6.049  69.132  1.00  0.00    -0.331 C  
HETATM    3  C   UNL     1     -11.626   6.646  70.157  1.00  0.00    -0.386 C  
ENDROOT
BRANCH   3   4
HETATM    4  N   UNL     1     -11.736   8.097  70.067  1.00  0.00    -0.408 N  
HETATM    5  H   UNL     1     -12.420   8.516  69.438  1.00  0.00     0.000 HD 
BRANCH   4   6
HETATM    6  C   UNL     1     -10.917   8.905  70.829  1.00  0.00    -0.253 C  
HETATM    7  O   UNL     1     -11.351   9.406  71.868  1.00  0.00    -0.370 OA 
BRANCH   6   8
HETATM    8  N   UNL     1      -9.633   9.117  70.331  1.00  0.00    -0.206 N  
BRANCH   8   9
HETATM    9  C   UNL     1      -9.273   9.333  68.922  1.00  0.00    -0.143 C  
HETATM   10 CL   UNL     1     -10.171  11.920  68.724  1.00  0.00    -0.194 Cl 
HETATM   11  C   UNL     1     -10.265  10.224  68.178  1.00  0.00    -0.164 C  
ENDBRANCH   8   9
BRANCH   8  12
HETATM   12  N   UNL     1      -8.610   9.099  71.301  1.00  0.00    -0.320 NA 
HETATM   13  H   UNL     1      -8.418   8.142  71.599  1.00  0.00     0.000 HD 
HETATM   14  H   UNL     1      -6.878   9.648  71.605  1.00  0.00     0.000 HD 
HETATM   15  O   UNL     1      -7.566   9.660  70.951  1.00  0.00    -0.309 OA 
ENDBRANCH   8  12
ENDBRANCH   6   8
ENDBRANCH   4   6
ENDBRANCH   3   4
TORSDOF 5
ENDMDL
MODEL      247
REMARK 921   NORMALIZED FREE ENERGY PREDICTED BY IDOCK:   -2.75 KCAL/MOL
REMARK 922        TOTAL FREE ENERGY PREDICTED BY IDOCK:   -3.64 KCAL/MOL
REMARK 923 INTER-LIGAND FREE ENERGY PREDICTED BY IDOCK:   -3.16 KCAL/MOL
REMARK 924 INTRA-LIGAND FREE ENERGY PREDICTED BY IDOCK:   -0.48 KCAL/MOL
REMARK 927      BINDING AFFINITY PREDICTED BY RF-SCORE:    0.00 PKD
ROOT
HETATM    1 CL   UNL     1      -8.940   8.511  66.053  1.00  0.00    -0.211 Cl 
HETATM    2  C   UNL     1     -10.163   9.806  66.126  1.00  0.00    -0.208 C  
HETATM    3  C   UNL     1     -10.509  10.167  67.566  1.00  0.00    -0.253 C  
ENDROOT
BRANCH   3   4
HETATM    4  N   UNL     1     -11.002   9.036  68.342  1.00  0.00    -0.462 N  
HETATM    5  H   UNL     1     -11.760   8.460  67.974  1.00  0.00     0.000 HD 
BRANCH   4   6
HETATM    6  C   UNL     1     -10.449   8.740  69.571  1.00  0.00    -0.220 C  
HETATM    7  O   UNL     1      -9.350   9.208  69.873  1.00  0.00    -0.165 OA 
BRANCH   6   8
HETATM    8  N   UNL     1     -11.191   7.888  70.385  1.00  0.00    -0.261 N  
BRANCH   8   9
HETATM    9  C   UNL     1     -11.351   6.437  70.206  1.00  0.00    -0.403 C  
HETATM   10 CL   UNL     1      -9.575   5.646  72.144  1.00  0.00    -0.167 Cl 
HETATM   11  C   UNL     1     -10.057   5.657  70.427  1.00  0.00    -0.219 C  
ENDBRANCH   8   9
BRANCH   8  12
HETATM   12  N   UNL     1     -11.847   8.518  71.462  1.00  0.00    -0.284 NA 
HETATM   13  H   UNL     1     -11.168   8.968  72.077  1.00  0.00     0.000 HD 
HETATM   14  H   UNL     1     -13.166   9.745  71.851  1.00  0.00     0.000 HD 
HETATM   15  O   UNL     1     -12.724   9.321  71.125  1.00  0.00    -0.306 OA 
ENDBRANCH   8  12
ENDBRANCH   6   8
ENDBRANCH   4   6
ENDBRANCH   3   4
TORSDOF 5
ENDMDL
MODEL      248
REMARK 921   NORMALIZED FREE ENERGY PREDICTED BY IDOCK:   -2.74 KCAL/MOL
REMARK 922        TOTAL FREE ENERGY PREDICTED BY IDOCK:   -3.63 KCAL/MOL
REMARK 923 INTER-LIGAND FREE ENERGY PREDICTED BY IDOCK:   -3.48 KCAL/MOL
REMARK 924 INTRA-LIGAND FREE ENERGY PREDICTED BY IDOCK:   -0.15 KCAL/MOL
REMARK 927      BINDING AFFINITY PREDICTED BY RF-SCORE:    0.00 PKD
ROOT
HETATM    1 CL   UNL     1      -6.399  13.238  67.469  1.00  0.00    -0.164 Cl 
HETATM    2  C   UNL     1      -7.843  12.306  67.942  1.00  0.00    -0.146 C  
HETATM    3  C   UNL     1      -8.789  12.103  66.765  1.00  0.00    -0.198 C  
ENDROOT
BRANCH   3   4
HETATM    4  N   UNL     1      -9.236  13.352  66.162  1.00  0.00    -0.476 N  
HETATM    5  H   UNL     1      -8.597  13.890  65.577  1.00  0.00     0.000 HD 
BRANCH   4   6
HETATM    6  C   UNL     1     -10.519  13.811  66.381  1.00  0.00    -0.284 C  
HETATM    7  O   UNL     1     -11.442  13.399  65.677  1.00  0.00    -0.308 OA 
BRANCH   6   8
HETATM    8  N   UNL     1     -10.666  14.753  67.397  1.00  0.00    -0.275 N  
BRANCH   8   9
HETATM    9  C   UNL     1     -10.769  14.469  68.836  1.00  0.00    -0.254 C  
HETATM   10 CL   UNL     1     -11.846  11.952  68.619  1.00  0.00    -0.374 Cl 
HETATM   11  C   UNL     1     -11.996  13.634  69.197  1.00  0.00    -0.351 C  
ENDBRANCH   8   9
BRANCH   8  12
HETATM   12  N   UNL     1     -10.733  16.091  66.959  1.00  0.00    -0.308 NA 
HETATM   13  H   UNL     1     -11.433  16.191  66.225  1.00  0.00     0.000 HD 
HETATM   14  H   UNL     1     -10.977  17.814  67.567  1.00  0.00     0.000 HD 
HETATM   15  O   UNL     1     -10.933  16.912  67.861  1.00  0.00    -0.342 OA 
ENDBRANCH   8  12
ENDBRANCH   6   8
ENDBRANCH   4   6
ENDBRANCH   3   4
TORSDOF 5
ENDMDL
MODEL      249
REMARK 921   NORMALIZED FREE ENERGY PREDICTED BY IDOCK:   -2.71 KCAL/MOL
REMARK 922        TOTAL FREE ENERGY PREDICTED BY IDOCK:   -3.59 KCAL/MOL
REMARK 923 INTER-LIGAND FREE ENERGY PREDICTED BY IDOCK:   -3.56 KCAL/MOL
REMARK 924 INTRA-LIGAND FREE ENERGY PREDICTED BY IDOCK:   -0.03 KCAL/MOL
REMARK 927      BINDING AFFINITY PREDICTED BY RF-SCORE:    0.00 PKD
ROOT
HETATM    1 CL   UNL     1      -6.759  11.260  67.170  1.00  0.00    -0.103 Cl 
HETATM    2  C   UNL     1      -7.998  10.155  66.521  1.00  0.00    -0.118 C  
HETATM    3  C   UNL     1      -9.164  10.920  65.907  1.00  0.00    -0.191 C  
ENDROOT
BRANCH   3   4
HETATM    4  N   UNL     1      -9.815  11.827  66.844  1.00  0.00    -0.201 N  
HETATM    5  H   UNL     1      -9.258  12.322  67.541  1.00  0.00     0.000 HD 
BRANCH   4   6
HETATM    6  C   UNL     1     -11.180  12.021  66.792  1.00  0.00    -0.322 C  
HETATM    7  O   UNL     1     -11.756  12.012  65.704  1.00  0.00    -0.356 OA 
BRANCH   6   8
HETATM    8  N   UNL     1     -11.812  12.244  68.014  1.00  0.00    -0.348 N  
BRANCH   8   9
HETATM    9  C   UNL     1     -12.009  13.547  68.664  1.00  0.00    -0.343 C  
HETATM   10 CL   UNL     1     -11.269  15.116  66.535  1.00  0.00    -0.322 Cl 
HETATM   11  C   UNL     1     -10.995  14.600  68.221  1.00  0.00    -0.252 C  
ENDBRANCH   8   9
BRANCH   8  12
HETATM   12  N   UNL     1     -12.277  11.081  68.662  1.00  0.00    -0.771 NA 
HETATM   13  H   UNL     1     -12.976  10.610  68.088  1.00  0.00     0.000 HD 
HETATM   14  H   UNL     1     -11.700   9.509  69.430  1.00  0.00     0.000 HD 
HETATM   15  O   UNL     1     -11.386  10.292  68.993  1.00  0.00    -0.231 OA 
ENDBRANCH   8  12
ENDBRANCH   6   8
ENDBRANCH   4   6
ENDBRANCH   3   4
TORSDOF 5
ENDMDL
MODEL      250
REMARK 921   NORMALIZED FREE ENERGY PREDICTED BY IDOCK:   -2.71 KCAL/MOL
REMARK 922        TOTAL FREE ENERGY PREDICTED BY IDOCK:   -3.58 KCAL/MOL
REMARK 923 INTER-LIGAND FREE ENERGY PREDICTED BY IDOCK:   -3.27 KCAL/MOL
REMARK 924 INTRA-LIGAND FREE ENERGY PREDICTED BY IDOCK:   -0.31 KCAL/MOL
REMARK 927      BINDING AFFINITY PREDICTED BY RF-SCORE:    0.00 PKD
ROOT
HETATM    1 CL   UNL     1     -12.271   9.730  70.803  1.00  0.00    -0.353 Cl 
HETATM    2  C   UNL     1     -13.381   8.481  71.424  1.00  0.00    -0.217 C  
HETATM    3  C   UNL     1     -12.704   7.118  71.500  1.00  0.00    -0.393 C  
ENDROOT
BRANCH   3   4
HETATM    4  N   UNL     1     -12.182   6.661  70.218  1.00  0.00    -0.534 N  
HETATM    5  H   UNL     1     -12.825   6.456  69.453  1.00  0.00     0.000 HD 
BRANCH   4   6
HETATM    6  C   UNL     1     -10.824   6.504  70.036  1.00  0.00    -0.287 C  
HETATM    7  O   UNL     1     -10.049   6.783  70.952  1.00  0.00    -0.190 OA 
BRANCH   6   8
HETATM    8  N   UNL     1     -10.425   6.053  68.780  1.00  0.00    -0.220 N  
BRANCH   8   9
HETATM    9  C   UNL     1     -10.937   6.525  67.485  1.00  0.00    -0.359 C  
HETATM   10 CL   UNL     1      -8.926   8.314  66.944  1.00  0.00    -0.157 Cl 
HETATM   11  C   UNL     1     -10.659   8.005  67.231  1.00  0.00    -0.290 C  
ENDBRANCH   8   9
BRANCH   8  12
HETATM   12  N   UNL     1      -9.447   5.037  68.797  1.00  0.00    -0.130 NA 
HETATM   13  H   UNL     1      -9.161   4.835  69.755  1.00  0.00     0.000 HD 
HETATM   14  H   UNL     1      -9.123   3.315  68.229  1.00  0.00     0.000 HD 
HETATM   15  O   UNL     1      -9.782   3.998  68.218  1.00  0.00    -0.144 OA 
ENDBRANCH   8  12
ENDBRANCH   6   8
ENDBRANCH   4   6
ENDBRANCH   3   4
TORSDOF 5
ENDMDL
MODEL      251
REMARK 921   NORMALIZED FREE ENERGY PREDICTED BY IDOCK:   -2.71 KCAL/MOL
REMARK 922        TOTAL FREE ENERGY PREDICTED BY IDOCK:   -3.58 KCAL/MOL
REMARK 923 INTER-LIGAND FREE ENERGY PREDICTED BY IDOCK:   -3.93 KCAL/MOL
REMARK 924 INTRA-LIGAND FREE ENERGY PREDICTED BY IDOCK:    0.34 KCAL/MOL
REMARK 927      BINDING AFFINITY PREDICTED BY RF-SCORE:    0.00 PKD
ROOT
HETATM    1 CL   UNL     1     -11.965  15.783  70.516  1.00  0.00    -0.385 Cl 
HETATM    2  C   UNL     1     -12.295  14.036  70.395  1.00  0.00    -0.359 C  
HETATM    3  C   UNL     1     -11.775  13.457  69.084  1.00  0.00    -0.326 C  
ENDROOT
BRANCH   3   4
HETATM    4  N   UNL     1     -12.335  14.106  67.906  1.00  0.00    -0.533 N  
HETATM    5  H   UNL     1     -13.326  14.343  67.880  1.00  0.00     0.000 HD 
BRANCH   4   6
HETATM    6  C   UNL     1     -11.530  14.400  66.824  1.00  0.00    -0.370 C  
HETATM    7  O   UNL     1     -12.000  14.365  65.686  1.00  0.00    -0.364 OA 
BRANCH   6   8
HETATM    8  N   UNL     1     -10.201  14.699  67.116  1.00  0.00    -0.254 N  
BRANCH   8   9
HETATM    9  C   UNL     1      -9.720  15.503  68.249  1.00  0.00    -0.201 C  
HETATM   10 CL   UNL     1     -10.591  17.943  67.340  1.00  0.00    -0.389 Cl 
HETATM   11  C   UNL     1      -9.238  16.893  67.838  1.00  0.00    -0.234 C  
ENDBRANCH   8   9
BRANCH   8  12
HETATM   12  N   UNL     1      -9.261  14.173  66.206  1.00  0.00    -0.486 NA 
HETATM   13  H   UNL     1      -9.065  14.849  65.467  1.00  0.00     0.000 HD 
HETATM   14  H   UNL     1      -7.577  13.432  66.113  1.00  0.00     0.000 HD 
HETATM   15  O   UNL     1      -8.209  13.786  66.726  1.00  0.00    -0.023 OA 
ENDBRANCH   8  12
ENDBRANCH   6   8
ENDBRANCH   4   6
ENDBRANCH   3   4
TORSDOF 5
ENDMDL
MODEL      252
REMARK 921   NORMALIZED FREE ENERGY PREDICTED BY IDOCK:   -2.70 KCAL/MOL
REMARK 922        TOTAL FREE ENERGY PREDICTED BY IDOCK:   -3.56 KCAL/MOL
REMARK 923 INTER-LIGAND FREE ENERGY PREDICTED BY IDOCK:   -3.43 KCAL/MOL
REMARK 924 INTRA-LIGAND FREE ENERGY PREDICTED BY IDOCK:   -0.13 KCAL/MOL
REMARK 927      BINDING AFFINITY PREDICTED BY RF-SCORE:    0.00 PKD
ROOT
HETATM    1 CL   UNL     1      -9.650  12.100  65.280  1.00  0.00    -0.139 Cl 
HETATM    2  C   UNL     1     -11.182  11.563  66.017  1.00  0.00    -0.178 C  
HETATM    3  C   UNL     1     -11.809  12.662  66.868  1.00  0.00    -0.355 C  
ENDROOT
BRANCH   3   4
HETATM    4  N   UNL     1     -10.935  13.133  67.935  1.00  0.00    -0.241 N  
HETATM    5  H   UNL     1      -9.987  13.440  67.716  1.00  0.00     0.000 HD 
BRANCH   4   6
HETATM    6  C   UNL     1     -11.384  13.167  69.239  1.00  0.00    -0.253 C  
HETATM    7  O   UNL     1     -11.626  12.112  69.828  1.00  0.00    -0.297 OA 
BRANCH   6   8
HETATM    8  N   UNL     1     -11.557  14.434  69.793  1.00  0.00    -0.284 N  
BRANCH   8   9
HETATM    9  C   UNL     1     -10.503  15.279  70.373  1.00  0.00    -0.140 C  
HETATM   10 CL   UNL     1      -9.913  16.709  68.105  1.00  0.00    -0.251 Cl 
HETATM   11  C   UNL     1      -9.377  15.595  69.390  1.00  0.00    -0.279 C  
ENDBRANCH   8   9
BRANCH   8  12
HETATM   12  N   UNL     1     -12.885  14.906  69.791  1.00  0.00    -0.593 NA 
HETATM   13  H   UNL     1     -13.530  14.155  70.038  1.00  0.00     0.000 HD 
HETATM   14  H   UNL     1     -13.971  16.211  70.507  1.00  0.00     0.000 HD 
HETATM   15  O   UNL     1     -13.076  15.893  70.509  1.00  0.00    -0.421 OA 
ENDBRANCH   8  12
ENDBRANCH   6   8
ENDBRANCH   4   6
ENDBRANCH   3   4
TORSDOF 5
ENDMDL
MODEL      253
REMARK 921   NORMALIZED FREE ENERGY PREDICTED BY IDOCK:   -2.69 KCAL/MOL
REMARK 922        TOTAL FREE ENERGY PREDICTED BY IDOCK:   -3.56 KCAL/MOL
REMARK 923 INTER-LIGAND FREE ENERGY PREDICTED BY IDOCK:   -3.02 KCAL/MOL
REMARK 924 INTRA-LIGAND FREE ENERGY PREDICTED BY IDOCK:   -0.53 KCAL/MOL
REMARK 927      BINDING AFFINITY PREDICTED BY RF-SCORE:    0.00 PKD
ROOT
HETATM    1 CL   UNL     1     -11.592  12.757  68.803  1.00  0.00    -0.328 Cl 
HETATM    2  C   UNL     1     -10.654  13.331  67.399  1.00  0.00    -0.246 C  
HETATM    3  C   UNL     1     -11.123  12.675  66.106  1.00  0.00    -0.292 C  
ENDROOT
BRANCH   3   4
HETATM    4  N   UNL     1     -11.046  11.220  66.137  1.00  0.00    -0.204 N  
HETATM    5  H   UNL     1     -11.623  10.694  66.793  1.00  0.00     0.000 HD 
BRANCH   4   6
HETATM    6  C   UNL     1     -10.194  10.549  65.283  1.00  0.00    -0.282 C  
HETATM    7  O   UNL     1     -10.250  10.766  64.071  1.00  0.00    -0.332 OA 
BRANCH   6   8
HETATM    8  N   UNL     1      -9.329   9.633  65.878  1.00  0.00    -0.199 N  
BRANCH   8   9
HETATM    9  C   UNL     1      -7.979   9.917  66.385  1.00  0.00    -0.111 C  
HETATM   10 CL   UNL     1      -8.536   9.603  69.056  1.00  0.00    -0.125 Cl 
HETATM   11  C   UNL     1      -7.982  10.653  67.724  1.00  0.00    -0.110 C  
ENDBRANCH   8   9
BRANCH   8  12
HETATM   12  N   UNL     1      -9.829   8.318  65.968  1.00  0.00    -0.468 NA 
HETATM   13  H   UNL     1      -9.062   7.651  66.057  1.00  0.00     0.000 HD 
HETATM   14  H   UNL     1     -10.992   7.262  66.931  1.00  0.00     0.000 HD 
HETATM   15  O   UNL     1     -10.655   8.148  66.871  1.00  0.00    -0.329 OA 
ENDBRANCH   8  12
ENDBRANCH   6   8
ENDBRANCH   4   6
ENDBRANCH   3   4
TORSDOF 5
ENDMDL
MODEL      254
REMARK 921   NORMALIZED FREE ENERGY PREDICTED BY IDOCK:   -2.69 KCAL/MOL
REMARK 922        TOTAL FREE ENERGY PREDICTED BY IDOCK:   -3.56 KCAL/MOL
REMARK 923 INTER-LIGAND FREE ENERGY PREDICTED BY IDOCK:   -3.17 KCAL/MOL
REMARK 924 INTRA-LIGAND FREE ENERGY PREDICTED BY IDOCK:   -0.38 KCAL/MOL
REMARK 927      BINDING AFFINITY PREDICTED BY RF-SCORE:    0.00 PKD
ROOT
HETATM    1 CL   UNL     1      -8.759   8.165  68.166  1.00  0.00    -0.136 Cl 
HETATM    2  C   UNL     1      -7.892   9.653  68.626  1.00  0.00    -0.081 C  
HETATM    3  C   UNL     1      -8.496  10.882  67.955  1.00  0.00    -0.130 C  
ENDROOT
BRANCH   3   4
HETATM    4  N   UNL     1      -8.508  10.797  66.500  1.00  0.00    -0.141 N  
HETATM    5  H   UNL     1      -7.629  10.722  65.989  1.00  0.00     0.000 HD 
BRANCH   4   6
HETATM    6  C   UNL     1      -9.704  10.818  65.811  1.00  0.00    -0.228 C  
HETATM    7  O   UNL     1     -10.084   9.807  65.219  1.00  0.00    -0.286 OA 
BRANCH   6   8
HETATM    8  N   UNL     1     -10.393  12.029  65.821  1.00  0.00    -0.245 N  
BRANCH   8   9
HETATM    9  C   UNL     1     -11.745  12.254  66.352  1.00  0.00    -0.365 C  
HETATM   10 CL   UNL     1     -11.075  14.144  68.227  1.00  0.00    -0.261 Cl 
HETATM   11  C   UNL     1     -11.762  12.541  67.852  1.00  0.00    -0.359 C  
ENDBRANCH   8   9
BRANCH   8  12
HETATM   12  N   UNL     1      -9.698  13.111  65.244  1.00  0.00    -0.506 NA 
HETATM   13  H   UNL     1      -8.900  12.775  64.705  1.00  0.00     0.000 HD 
HETATM   14  H   UNL     1      -9.933  14.588  64.168  1.00  0.00     0.000 HD 
HETATM   15  O   UNL     1     -10.401  13.859  64.556  1.00  0.00    -0.436 OA 
ENDBRANCH   8  12
ENDBRANCH   6   8
ENDBRANCH   4   6
ENDBRANCH   3   4
TORSDOF 5
ENDMDL
MODEL      255
REMARK 921   NORMALIZED FREE ENERGY PREDICTED BY IDOCK:   -2.69 KCAL/MOL
REMARK 922        TOTAL FREE ENERGY PREDICTED BY IDOCK:   -3.55 KCAL/MOL
REMARK 923 INTER-LIGAND FREE ENERGY PREDICTED BY IDOCK:   -3.25 KCAL/MOL
REMARK 924 INTRA-LIGAND FREE ENERGY PREDICTED BY IDOCK:   -0.30 KCAL/MOL
REMARK 927      BINDING AFFINITY PREDICTED BY RF-SCORE:    0.00 PKD
ROOT
HETATM    1 CL   UNL     1     -11.921  12.138  65.140  1.00  0.00    -0.380 Cl 
HETATM    2  C   UNL     1     -12.725  13.694  65.473  1.00  0.00    -0.466 C  
HETATM    3  C   UNL     1     -11.911  14.869  64.945  1.00  0.00    -0.337 C  
ENDROOT
BRANCH   3   4
HETATM    4  N   UNL     1     -10.563  14.930  65.495  1.00  0.00    -0.330 N  
HETATM    5  H   UNL     1      -9.765  14.672  64.914  1.00  0.00     0.000 HD 
BRANCH   4   6
HETATM    6  C   UNL     1     -10.360  15.335  66.799  1.00  0.00    -0.279 C  
HETATM    7  O   UNL     1     -10.754  16.445  67.161  1.00  0.00    -0.307 OA 
BRANCH   6   8
HETATM    8  N   UNL     1      -9.682  14.436  67.619  1.00  0.00    -0.217 N  
BRANCH   8   9
HETATM    9  C   UNL     1      -8.365  13.840  67.351  1.00  0.00    -0.193 C  
HETATM   10 CL   UNL     1      -6.906  15.446  69.034  1.00  0.00    -0.127 Cl 
HETATM   11  C   UNL     1      -7.227  14.859  67.381  1.00  0.00    -0.183 C  
ENDBRANCH   8   9
BRANCH   8  12
HETATM   12  N   UNL     1     -10.365  14.079  68.800  1.00  0.00    -0.279 NA 
HETATM   13  H   UNL     1     -10.077  13.150  69.110  1.00  0.00     0.000 HD 
HETATM   14  H   UNL     1     -10.712  14.655  70.515  1.00  0.00     0.000 HD 
HETATM   15  O   UNL     1     -10.251  14.895  69.720  1.00  0.00    -0.154 OA 
ENDBRANCH   8  12
ENDBRANCH   6   8
ENDBRANCH   4   6
ENDBRANCH   3   4
TORSDOF 5
ENDMDL
MODEL      256
REMARK 921   NORMALIZED FREE ENERGY PREDICTED BY IDOCK:   -2.68 KCAL/MOL
REMARK 922        TOTAL FREE ENERGY PREDICTED BY IDOCK:   -3.55 KCAL/MOL
REMARK 923 INTER-LIGAND FREE ENERGY PREDICTED BY IDOCK:   -3.34 KCAL/MOL
REMARK 924 INTRA-LIGAND FREE ENERGY PREDICTED BY IDOCK:   -0.21 KCAL/MOL
REMARK 927      BINDING AFFINITY PREDICTED BY RF-SCORE:    0.00 PKD
ROOT
HETATM    1 CL   UNL     1     -11.326  12.235  64.774  1.00  0.00    -0.359 Cl 
HETATM    2  C   UNL     1     -11.797  13.914  65.145  1.00  0.00    -0.362 C  
HETATM    3  C   UNL     1     -10.627  14.875  64.972  1.00  0.00    -0.422 C  
ENDROOT
BRANCH   3   4
HETATM    4  N   UNL     1      -9.475  14.536  65.798  1.00  0.00    -0.531 N  
HETATM    5  H   UNL     1      -8.772  13.886  65.446  1.00  0.00     0.000 HD 
BRANCH   4   6
HETATM    6  C   UNL     1      -9.332  15.089  67.054  1.00  0.00    -0.224 C  
HETATM    7  O   UNL     1      -9.220  16.310  67.173  1.00  0.00    -0.208 OA 
BRANCH   6   8
HETATM    8  N   UNL     1      -9.299  14.190  68.117  1.00  0.00    -0.199 N  
BRANCH   8   9
HETATM    9  C   UNL     1      -9.910  12.853  68.143  1.00  0.00    -0.227 C  
HETATM   10 CL   UNL     1      -7.627  11.436  68.709  1.00  0.00    -0.129 Cl 
HETATM   11  C   UNL     1      -8.988  11.760  67.603  1.00  0.00    -0.169 C  
ENDBRANCH   8   9
BRANCH   8  12
HETATM   12  N   UNL     1      -8.619  14.650  69.263  1.00  0.00    -0.380 NA 
HETATM   13  H   UNL     1      -8.827  14.054  70.064  1.00  0.00     0.000 HD 
HETATM   14  H   UNL     1      -6.939  15.077  69.889  1.00  0.00     0.000 HD 
HETATM   15  O   UNL     1      -7.397  14.766  69.118  1.00  0.00    -0.133 OA 
ENDBRANCH   8  12
ENDBRANCH   6   8
ENDBRANCH   4   6
ENDBRANCH   3   4
TORSDOF 5
ENDMDL
MODEL      257
REMARK 921   NORMALIZED FREE ENERGY PREDICTED BY IDOCK:   -2.68 KCAL/MOL
REMARK 922        TOTAL FREE ENERGY PREDICTED BY IDOCK:   -3.55 KCAL/MOL
REMARK 923 INTER-LIGAND FREE ENERGY PREDICTED BY IDOCK:   -3.39 KCAL/MOL
REMARK 924 INTRA-LIGAND FREE ENERGY PREDICTED BY IDOCK:   -0.16 KCAL/MOL
REMARK 927      BINDING AFFINITY PREDICTED BY RF-SCORE:    0.00 PKD
ROOT
HETATM    1 CL   UNL     1     -12.516  14.132  64.482  1.00  0.00    -0.392 Cl 
HETATM    2  C   UNL     1     -10.776  13.773  64.630  1.00  0.00    -0.414 C  
HETATM    3  C   UNL     1     -10.304  13.874  66.076  1.00  0.00    -0.305 C  
ENDROOT
BRANCH   3   4
HETATM    4  N   UNL     1     -10.548  15.182  66.671  1.00  0.00    -0.298 N  
HETATM    5  H   UNL     1     -11.479  15.595  66.626  1.00  0.00     0.000 HD 
BRANCH   4   6
HETATM    6  C   UNL     1      -9.523  15.866  67.294  1.00  0.00    -0.212 C  
HETATM    7  O   UNL     1      -8.817  15.285  68.119  1.00  0.00    -0.166 OA 
BRANCH   6   8
HETATM    8  N   UNL     1      -9.383  17.207  66.945  1.00  0.00    -0.241 N  
BRANCH   8   9
HETATM    9  C   UNL     1     -10.018  18.349  67.619  1.00  0.00    -0.338 C  
HETATM   10 CL   UNL     1     -11.255  19.415  65.411  1.00  0.00     0.171 Cl 
HETATM   11  C   UNL     1     -10.086  19.601  66.746  1.00  0.00    -0.424 C  
ENDBRANCH   8   9
BRANCH   8  12
HETATM   12  N   UNL     1      -8.559  17.447  65.827  1.00  0.00    -0.488 NA 
HETATM   13  H   UNL     1      -8.636  18.421  65.531  1.00  0.00     0.000 HD 
HETATM   14  H   UNL     1      -6.820  17.299  65.238  1.00  0.00     0.000 HD 
HETATM   15  O   UNL     1      -7.374  17.138  65.992  1.00  0.00    -0.283 OA 
ENDBRANCH   8  12
ENDBRANCH   6   8
ENDBRANCH   4   6
ENDBRANCH   3   4
TORSDOF 5
ENDMDL
MODEL      258
REMARK 921   NORMALIZED FREE ENERGY PREDICTED BY IDOCK:   -2.67 KCAL/MOL
REMARK 922        TOTAL FREE ENERGY PREDICTED BY IDOCK:   -3.54 KCAL/MOL
REMARK 923 INTER-LIGAND FREE ENERGY PREDICTED BY IDOCK:   -3.15 KCAL/MOL
REMARK 924 INTRA-LIGAND FREE ENERGY PREDICTED BY IDOCK:   -0.39 KCAL/MOL
REMARK 927      BINDING AFFINITY PREDICTED BY RF-SCORE:    0.00 PKD
ROOT
HETATM    1 CL   UNL     1      -7.299  15.421  69.039  1.00  0.00    -0.144 Cl 
HETATM    2  C   UNL     1      -8.731  15.573  67.989  1.00  0.00    -0.163 C  
HETATM    3  C   UNL     1      -9.884  14.708  68.485  1.00  0.00    -0.228 C  
ENDROOT
BRANCH   3   4
HETATM    4  N   UNL     1      -9.544  13.295  68.583  1.00  0.00    -0.404 N  
HETATM    5  H   UNL     1      -9.061  12.945  69.411  1.00  0.00     0.000 HD 
BRANCH   4   6
HETATM    6  C   UNL     1      -9.871  12.427  67.561  1.00  0.00    -0.194 C  
HETATM    7  O   UNL     1      -9.366  12.578  66.448  1.00  0.00    -0.234 OA 
BRANCH   6   8
HETATM    8  N   UNL     1     -10.796  11.434  67.876  1.00  0.00    -0.210 N  
BRANCH   8   9
HETATM    9  C   UNL     1     -10.491  10.028  68.179  1.00  0.00    -0.211 C  
HETATM   10 CL   UNL     1      -9.612   9.313  65.679  1.00  0.00    -0.340 Cl 
HETATM   11  C   UNL     1     -10.776   9.086  67.012  1.00  0.00    -0.114 C  
ENDBRANCH   8   9
BRANCH   8  12
HETATM   12  N   UNL     1     -12.142  11.856  67.878  1.00  0.00    -0.522 NA 
HETATM   13  H   UNL     1     -12.430  12.122  68.820  1.00  0.00     0.000 HD 
HETATM   14  H   UNL     1     -13.299  13.047  67.079  1.00  0.00     0.000 HD 
HETATM   15  O   UNL     1     -12.392  12.763  67.078  1.00  0.00    -0.387 OA 
ENDBRANCH   8  12
ENDBRANCH   6   8
ENDBRANCH   4   6
ENDBRANCH   3   4
TORSDOF 5
ENDMDL
MODEL      259
REMARK 921   NORMALIZED FREE ENERGY PREDICTED BY IDOCK:   -2.67 KCAL/MOL
REMARK 922        TOTAL FREE ENERGY PREDICTED BY IDOCK:   -3.54 KCAL/MOL
REMARK 923 INTER-LIGAND FREE ENERGY PREDICTED BY IDOCK:   -3.20 KCAL/MOL
REMARK 924 INTRA-LIGAND FREE ENERGY PREDICTED BY IDOCK:   -0.34 KCAL/MOL
REMARK 927      BINDING AFFINITY PREDICTED BY RF-SCORE:    0.00 PKD
ROOT
HETATM    1 CL   UNL     1      -8.483   9.846  67.718  1.00  0.00    -0.118 Cl 
HETATM    2  C   UNL     1      -7.908  11.209  68.713  1.00  0.00    -0.142 C  
HETATM    3  C   UNL     1      -8.613  12.509  68.342  1.00  0.00    -0.123 C  
ENDROOT
BRANCH   3   4
HETATM    4  N   UNL     1      -8.451  12.873  66.940  1.00  0.00    -0.375 N  
HETATM    5  H   UNL     1      -7.554  12.725  66.478  1.00  0.00     0.000 HD 
BRANCH   4   6
HETATM    6  C   UNL     1      -9.506  13.417  66.236  1.00  0.00    -0.183 C  
HETATM    7  O   UNL     1      -9.528  14.628  66.010  1.00  0.00    -0.288 OA 
BRANCH   6   8
HETATM    8  N   UNL     1     -10.504  12.526  65.847  1.00  0.00    -0.259 N  
BRANCH   8   9
HETATM    9  C   UNL     1     -11.952  12.717  66.019  1.00  0.00    -0.417 C  
HETATM   10 CL   UNL     1     -12.498  13.571  63.467  1.00  0.00    -0.374 Cl 
HETATM   11  C   UNL     1     -12.502  13.897  65.221  1.00  0.00    -0.478 C  
ENDBRANCH   8   9
BRANCH   8  12
HETATM   12  N   UNL     1     -10.039  11.336  65.251  1.00  0.00    -0.253 NA 
HETATM   13  H   UNL     1     -10.808  10.677  65.127  1.00  0.00     0.000 HD 
HETATM   14  H   UNL     1      -9.123  10.701  63.784  1.00  0.00     0.000 HD 
HETATM   15  O   UNL     1      -9.437  11.502  64.185  1.00  0.00    -0.187 OA 
ENDBRANCH   8  12
ENDBRANCH   6   8
ENDBRANCH   4   6
ENDBRANCH   3   4
TORSDOF 5
ENDMDL
MODEL      260
REMARK 921   NORMALIZED FREE ENERGY PREDICTED BY IDOCK:   -2.67 KCAL/MOL
REMARK 922        TOTAL FREE ENERGY PREDICTED BY IDOCK:   -3.53 KCAL/MOL
REMARK 923 INTER-LIGAND FREE ENERGY PREDICTED BY IDOCK:   -3.24 KCAL/MOL
REMARK 924 INTRA-LIGAND FREE ENERGY PREDICTED BY IDOCK:   -0.30 KCAL/MOL
REMARK 927      BINDING AFFINITY PREDICTED BY RF-SCORE:    0.00 PKD
ROOT
HETATM    1 CL   UNL     1      -8.275  17.136  66.233  1.00  0.00    -0.314 Cl 
HETATM    2  C   UNL     1      -9.493  16.415  67.316  1.00  0.00    -0.227 C  
HETATM    3  C   UNL     1      -9.411  14.893  67.317  1.00  0.00    -0.204 C  
ENDROOT
BRANCH   3   4
HETATM    4  N   UNL     1      -9.578  14.306  65.994  1.00  0.00    -0.461 N  
HETATM    5  H   UNL     1      -9.661  14.911  65.177  1.00  0.00     0.000 HD 
BRANCH   4   6
HETATM    6  C   UNL     1      -9.624  12.935  65.841  1.00  0.00    -0.124 C  
HETATM    7  O   UNL     1      -8.694  12.244  66.258  1.00  0.00    -0.089 OA 
BRANCH   6   8
HETATM    8  N   UNL     1     -10.744  12.432  65.183  1.00  0.00    -0.283 N  
BRANCH   8   9
HETATM    9  C   UNL     1     -11.005  12.500  63.738  1.00  0.00    -0.447 C  
HETATM   10 CL   UNL     1     -12.367  14.885  63.741  1.00  0.00     0.014 Cl 
HETATM   11  C   UNL     1     -12.353  13.134  63.400  1.00  0.00    -0.362 C  
ENDBRANCH   8   9
BRANCH   8  12
HETATM   12  N   UNL     1     -11.699  11.820  66.020  1.00  0.00    -0.418 NA 
HETATM   13  H   UNL     1     -11.805  10.835  65.779  1.00  0.00     0.000 HD 
HETATM   14  H   UNL     1     -12.117  11.536  67.792  1.00  0.00     0.000 HD 
HETATM   15  O   UNL     1     -11.474  11.948  67.228  1.00  0.00    -0.319 OA 
ENDBRANCH   8  12
ENDBRANCH   6   8
ENDBRANCH   4   6
ENDBRANCH   3   4
TORSDOF 5
ENDMDL
MODEL      261
REMARK 921   NORMALIZED FREE ENERGY PREDICTED BY IDOCK:   -2.67 KCAL/MOL
REMARK 922        TOTAL FREE ENERGY PREDICTED BY IDOCK:   -3.53 KCAL/MOL
REMARK 923 INTER-LIGAND FREE ENERGY PREDICTED BY IDOCK:   -3.02 KCAL/MOL
REMARK 924 INTRA-LIGAND FREE ENERGY PREDICTED BY IDOCK:   -0.51 KCAL/MOL
REMARK 927      BINDING AFFINITY PREDICTED BY RF-SCORE:    0.00 PKD
ROOT
HETATM    1 CL   UNL     1      -6.781   8.579  67.394  1.00  0.00    -0.062 Cl 
HETATM    2  C   UNL     1      -7.431   9.143  65.833  1.00  0.00    -0.094 C  
HETATM    3  C   UNL     1      -8.306  10.379  66.005  1.00  0.00    -0.149 C  
ENDROOT
BRANCH   3   4
HETATM    4  N   UNL     1      -9.427  10.170  66.912  1.00  0.00    -0.165 N  
HETATM    5  H   UNL     1     -10.044   9.368  66.779  1.00  0.00     0.000 HD 
BRANCH   4   6
HETATM    6  C   UNL     1      -9.659  11.051  67.948  1.00  0.00    -0.172 C  
HETATM    7  O   UNL     1      -8.786  11.860  68.267  1.00  0.00    -0.168 OA 
BRANCH   6   8
HETATM    8  N   UNL     1     -10.891  10.932  68.587  1.00  0.00    -0.200 N  
BRANCH   8   9
HETATM    9  C   UNL     1     -11.105  10.697  70.022  1.00  0.00    -0.289 C  
HETATM   10 CL   UNL     1      -9.081   8.878  70.386  1.00  0.00    -0.193 Cl 
HETATM   11  C   UNL     1     -10.824   9.256  70.445  1.00  0.00    -0.254 C  
ENDBRANCH   8   9
BRANCH   8  12
HETATM   12  N   UNL     1     -12.012  11.038  67.738  1.00  0.00    -0.660 NA 
HETATM   13  H   UNL     1     -12.868  11.118  68.288  1.00  0.00     0.000 HD 
HETATM   14  H   UNL     1     -12.696  12.026  66.342  1.00  0.00     0.000 HD 
HETATM   15  O   UNL     1     -11.941  11.956  66.914  1.00  0.00    -0.614 OA 
ENDBRANCH   8  12
ENDBRANCH   6   8
ENDBRANCH   4   6
ENDBRANCH   3   4
TORSDOF 5
ENDMDL
MODEL      262
REMARK 921   NORMALIZED FREE ENERGY PREDICTED BY IDOCK:   -2.66 KCAL/MOL
REMARK 922        TOTAL FREE ENERGY PREDICTED BY IDOCK:   -3.52 KCAL/MOL
REMARK 923 INTER-LIGAND FREE ENERGY PREDICTED BY IDOCK:   -3.06 KCAL/MOL
REMARK 924 INTRA-LIGAND FREE ENERGY PREDICTED BY IDOCK:   -0.46 KCAL/MOL
REMARK 927      BINDING AFFINITY PREDICTED BY RF-SCORE:    0.00 PKD
ROOT
HETATM    1 CL   UNL     1     -13.123  10.512  71.680  1.00  0.00    -0.540 Cl 
HETATM    2  C   UNL     1     -13.217   8.787  72.121  1.00  0.00    -0.414 C  
HETATM    3  C   UNL     1     -11.835   8.147  72.175  1.00  0.00    -0.359 C  
ENDROOT
BRANCH   3   4
HETATM    4  N   UNL     1     -11.101   8.253  70.921  1.00  0.00    -0.256 N  
HETATM    5  H   UNL     1     -10.768   9.163  70.603  1.00  0.00     0.000 HD 
BRANCH   4   6
HETATM    6  C   UNL     1     -10.854   7.128  70.160  1.00  0.00    -0.257 C  
HETATM    7  O   UNL     1     -11.772   6.343  69.918  1.00  0.00    -0.426 OA 
BRANCH   6   8
HETATM    8  N   UNL     1      -9.538   6.954  69.736  1.00  0.00    -0.155 N  
BRANCH   8   9
HETATM    9  C   UNL     1      -8.851   7.734  68.697  1.00  0.00    -0.131 C  
HETATM   10 CL   UNL     1      -9.075   5.894  66.672  1.00  0.00    -0.130 Cl 
HETATM   11  C   UNL     1      -8.032   6.871  67.740  1.00  0.00    -0.114 C  
ENDBRANCH   8   9
BRANCH   8  12
HETATM   12  N   UNL     1      -8.841   5.911  70.379  1.00  0.00    -0.142 NA 
HETATM   13  H   UNL     1      -7.876   5.872  70.050  1.00  0.00     0.000 HD 
HETATM   14  H   UNL     1      -8.404   5.259  72.046  1.00  0.00     0.000 HD 
HETATM   15  O   UNL     1      -8.874   5.962  71.614  1.00  0.00    -0.138 OA 
ENDBRANCH   8  12
ENDBRANCH   6   8
ENDBRANCH   4   6
ENDBRANCH   3   4
TORSDOF 5
ENDMDL
MODEL      263
REMARK 921   NORMALIZED FREE ENERGY PREDICTED BY IDOCK:   -2.66 KCAL/MOL
REMARK 922        TOTAL FREE ENERGY PREDICTED BY IDOCK:   -3.52 KCAL/MOL
REMARK 923 INTER-LIGAND FREE ENERGY PREDICTED BY IDOCK:   -3.31 KCAL/MOL
REMARK 924 INTRA-LIGAND FREE ENERGY PREDICTED BY IDOCK:   -0.21 KCAL/MOL
REMARK 927      BINDING AFFINITY PREDICTED BY RF-SCORE:    0.00 PKD
ROOT
HETATM    1 CL   UNL     1     -12.182  10.366  71.232  1.00  0.00    -0.478 Cl 
HETATM    2  C   UNL     1     -11.152   9.086  70.541  1.00  0.00    -0.254 C  
HETATM    3  C   UNL     1      -9.716   9.562  70.355  1.00  0.00    -0.271 C  
ENDROOT
BRANCH   3   4
HETATM    4  N   UNL     1      -9.605  10.739  69.503  1.00  0.00    -0.429 N  
HETATM    5  H   UNL     1      -9.723  11.669  69.905  1.00  0.00     0.000 HD 
BRANCH   4   6
HETATM    6  C   UNL     1      -9.341  10.602  68.156  1.00  0.00    -0.151 C  
HETATM    7  O   UNL     1      -8.559   9.731  67.773  1.00  0.00    -0.124 OA 
BRANCH   6   8
HETATM    8  N   UNL     1      -9.983  11.507  67.313  1.00  0.00    -0.190 N  
BRANCH   8   9
HETATM    9  C   UNL     1     -11.322  12.079  67.512  1.00  0.00    -0.319 C  
HETATM   10 CL   UNL     1     -10.611  14.722  67.294  1.00  0.00    -0.269 Cl 
HETATM   11  C   UNL     1     -11.304  13.403  68.274  1.00  0.00    -0.295 C  
ENDBRANCH   8   9
BRANCH   8  12
HETATM   12  N   UNL     1      -9.249  11.871  66.165  1.00  0.00    -0.282 NA 
HETATM   13  H   UNL     1      -8.496  11.204  65.998  1.00  0.00     0.000 HD 
HETATM   14  H   UNL     1      -9.441  12.259  64.374  1.00  0.00     0.000 HD 
HETATM   15  O   UNL     1      -9.935  12.013  65.146  1.00  0.00    -0.252 OA 
ENDBRANCH   8  12
ENDBRANCH   6   8
ENDBRANCH   4   6
ENDBRANCH   3   4
TORSDOF 5
ENDMDL
MODEL      264
REMARK 921   NORMALIZED FREE ENERGY PREDICTED BY IDOCK:   -2.65 KCAL/MOL
REMARK 922        TOTAL FREE ENERGY PREDICTED BY IDOCK:   -3.51 KCAL/MOL
REMARK 923 INTER-LIGAND FREE ENERGY PREDICTED BY IDOCK:   -2.96 KCAL/MOL
REMARK 924 INTRA-LIGAND FREE ENERGY PREDICTED BY IDOCK:   -0.55 KCAL/MOL
REMARK 927      BINDING AFFINITY PREDICTED BY RF-SCORE:    0.00 PKD
ROOT
HETATM    1 CL   UNL     1     -11.770  12.464  67.843  1.00  0.00    -0.414 Cl 
HETATM    2  C   UNL     1     -10.169  11.704  67.649  1.00  0.00    -0.188 C  
HETATM    3  C   UNL     1     -10.290  10.226  67.298  1.00  0.00    -0.232 C  
ENDROOT
BRANCH   3   4
HETATM    4  N   UNL     1     -11.038   9.458  68.286  1.00  0.00    -0.495 N  
HETATM    5  H   UNL     1     -11.975   9.756  68.556  1.00  0.00     0.000 HD 
BRANCH   4   6
HETATM    6  C   UNL     1     -10.484   8.331  68.857  1.00  0.00    -0.191 C  
HETATM    7  O   UNL     1     -10.842   7.216  68.476  1.00  0.00    -0.177 OA 
BRANCH   6   8
HETATM    8  N   UNL     1      -9.553   8.554  69.870  1.00  0.00    -0.170 N  
BRANCH   8   9
HETATM    9  C   UNL     1      -8.324   7.782  70.105  1.00  0.00    -0.128 C  
HETATM   10 CL   UNL     1      -9.520   5.509  71.076  1.00  0.00    -0.192 Cl 
HETATM   11  C   UNL     1      -8.407   6.880  71.334  1.00  0.00    -0.115 C  
ENDBRANCH   8   9
BRANCH   8  12
HETATM   12  N   UNL     1      -9.865   9.621  70.738  1.00  0.00    -0.317 NA 
HETATM   13  H   UNL     1      -9.658  10.515  70.291  1.00  0.00     0.000 HD 
HETATM   14  H   UNL     1     -11.235  10.327  71.748  1.00  0.00     0.000 HD 
HETATM   15  O   UNL     1     -11.025   9.609  71.163  1.00  0.00    -0.336 OA 
ENDBRANCH   8  12
ENDBRANCH   6   8
ENDBRANCH   4   6
ENDBRANCH   3   4
TORSDOF 5
ENDMDL
MODEL      265
REMARK 921   NORMALIZED FREE ENERGY PREDICTED BY IDOCK:   -2.65 KCAL/MOL
REMARK 922        TOTAL FREE ENERGY PREDICTED BY IDOCK:   -3.50 KCAL/MOL
REMARK 923 INTER-LIGAND FREE ENERGY PREDICTED BY IDOCK:   -3.22 KCAL/MOL
REMARK 924 INTRA-LIGAND FREE ENERGY PREDICTED BY IDOCK:   -0.29 KCAL/MOL
REMARK 927      BINDING AFFINITY PREDICTED BY RF-SCORE:    0.00 PKD
ROOT
HETATM    1 CL   UNL     1      -9.485  11.204  63.488  1.00  0.00    -0.275 Cl 
HETATM    2  C   UNL     1     -11.191  11.705  63.625  1.00  0.00    -0.411 C  
HETATM    3  C   UNL     1     -11.359  12.856  64.609  1.00  0.00    -0.323 C  
ENDROOT
BRANCH   3   4
HETATM    4  N   UNL     1     -10.870  12.547  65.947  1.00  0.00    -0.263 N  
HETATM    5  H   UNL     1     -10.004  12.020  66.061  1.00  0.00     0.000 HD 
BRANCH   4   6
HETATM    6  C   UNL     1     -11.573  12.963  67.059  1.00  0.00    -0.362 C  
HETATM    7  O   UNL     1     -12.521  13.738  66.926  1.00  0.00    -0.338 OA 
BRANCH   6   8
HETATM    8  N   UNL     1     -11.122  12.476  68.284  1.00  0.00    -0.240 N  
BRANCH   8   9
HETATM    9  C   UNL     1      -9.723  12.215  68.652  1.00  0.00    -0.081 C  
HETATM   10 CL   UNL     1      -9.452   9.827  67.325  1.00  0.00    -0.174 Cl 
HETATM   11  C   UNL     1      -9.423  10.732  68.862  1.00  0.00    -0.181 C  
ENDBRANCH   8   9
BRANCH   8  12
HETATM   12  N   UNL     1     -12.137  12.207  69.225  1.00  0.00    -0.230 NA 
HETATM   13  H   UNL     1     -12.091  11.235  69.529  1.00  0.00     0.000 HD 
HETATM   14  H   UNL     1     -12.822  12.784  70.836  1.00  0.00     0.000 HD 
HETATM   15  O   UNL     1     -12.139  12.965  70.202  1.00  0.00    -0.340 OA 
ENDBRANCH   8  12
ENDBRANCH   6   8
ENDBRANCH   4   6
ENDBRANCH   3   4
TORSDOF 5
ENDMDL
MODEL      266
REMARK 921   NORMALIZED FREE ENERGY PREDICTED BY IDOCK:   -2.65 KCAL/MOL
REMARK 922        TOTAL FREE ENERGY PREDICTED BY IDOCK:   -3.50 KCAL/MOL
REMARK 923 INTER-LIGAND FREE ENERGY PREDICTED BY IDOCK:   -3.24 KCAL/MOL
REMARK 924 INTRA-LIGAND FREE ENERGY PREDICTED BY IDOCK:   -0.26 KCAL/MOL
REMARK 927      BINDING AFFINITY PREDICTED BY RF-SCORE:    0.00 PKD
ROOT
HETATM    1 CL   UNL     1      -8.210   7.347  66.929  1.00  0.00    -0.119 Cl 
HETATM    2  C   UNL     1      -9.836   7.968  66.539  1.00  0.00    -0.219 C  
HETATM    3  C   UNL     1     -10.634   8.275  67.801  1.00  0.00    -0.168 C  
ENDROOT
BRANCH   3   4
HETATM    4  N   UNL     1     -10.789   7.123  68.679  1.00  0.00    -0.400 N  
HETATM    5  H   UNL     1     -11.198   6.261  68.319  1.00  0.00     0.000 HD 
BRANCH   4   6
HETATM    6  C   UNL     1     -10.386   7.193  69.997  1.00  0.00    -0.208 C  
HETATM    7  O   UNL     1      -9.240   7.557  70.266  1.00  0.00    -0.157 OA 
BRANCH   6   8
HETATM    8  N   UNL     1     -11.331   6.809  70.946  1.00  0.00    -0.295 N  
BRANCH   8   9
HETATM    9  C   UNL     1     -12.588   7.508  71.252  1.00  0.00    -0.314 C  
HETATM   10 CL   UNL     1     -11.638  10.070  70.987  1.00  0.00    -0.452 Cl 
HETATM   11  C   UNL     1     -12.380   8.815  72.014  1.00  0.00    -0.377 C  
ENDBRANCH   8   9
BRANCH   8  12
HETATM   12  N   UNL     1     -11.006   5.644  71.670  1.00  0.00    -0.240 NA 
HETATM   13  H   UNL     1     -10.009   5.628  71.889  1.00  0.00     0.000 HD 
HETATM   14  H   UNL     1     -11.457   4.692  73.182  1.00  0.00     0.000 HD 
HETATM   15  O   UNL     1     -11.676   5.477  72.695  1.00  0.00    -0.293 OA 
ENDBRANCH   8  12
ENDBRANCH   6   8
ENDBRANCH   4   6
ENDBRANCH   3   4
TORSDOF 5
ENDMDL
MODEL      267
REMARK 921   NORMALIZED FREE ENERGY PREDICTED BY IDOCK:   -2.65 KCAL/MOL
REMARK 922        TOTAL FREE ENERGY PREDICTED BY IDOCK:   -3.50 KCAL/MOL
REMARK 923 INTER-LIGAND FREE ENERGY PREDICTED BY IDOCK:   -3.27 KCAL/MOL
REMARK 924 INTRA-LIGAND FREE ENERGY PREDICTED BY IDOCK:   -0.23 KCAL/MOL
REMARK 927      BINDING AFFINITY PREDICTED BY RF-SCORE:    0.00 PKD
ROOT
HETATM    1 CL   UNL     1      -9.522   2.982  69.120  1.00  0.00    -0.215 Cl 
HETATM    2  C   UNL     1      -8.921   3.677  70.648  1.00  0.00    -0.097 C  
HETATM    3  C   UNL     1      -9.992   4.511  71.343  1.00  0.00    -0.189 C  
ENDROOT
BRANCH   3   4
HETATM    4  N   UNL     1     -10.499   5.601  70.519  1.00  0.00    -0.259 N  
HETATM    5  H   UNL     1     -11.217   5.416  69.818  1.00  0.00     0.000 HD 
BRANCH   4   6
HETATM    6  C   UNL     1     -10.011   6.881  70.681  1.00  0.00    -0.186 C  
HETATM    7  O   UNL     1      -8.794   7.076  70.677  1.00  0.00    -0.148 OA 
BRANCH   6   8
HETATM    8  N   UNL     1     -10.965   7.879  70.868  1.00  0.00    -0.239 N  
BRANCH   8   9
HETATM    9  C   UNL     1     -11.607   8.239  72.141  1.00  0.00    -0.364 C  
HETATM   10 CL   UNL     1     -14.160   7.485  71.472  1.00  0.00    -0.542 Cl 
HETATM   11  C   UNL     1     -13.028   8.771  71.969  1.00  0.00    -0.390 C  
ENDBRANCH   8   9
BRANCH   8  12
HETATM   12  N   UNL     1     -11.334   8.574  69.698  1.00  0.00    -0.435 NA 
HETATM   13  H   UNL     1     -12.288   8.927  69.779  1.00  0.00     0.000 HD 
HETATM   14  H   UNL     1     -10.810   9.954  68.595  1.00  0.00     0.000 HD 
HETATM   15  O   UNL     1     -10.562   9.486  69.383  1.00  0.00    -0.207 OA 
ENDBRANCH   8  12
ENDBRANCH   6   8
ENDBRANCH   4   6
ENDBRANCH   3   4
TORSDOF 5
ENDMDL
MODEL      268
REMARK 921   NORMALIZED FREE ENERGY PREDICTED BY IDOCK:   -2.64 KCAL/MOL
REMARK 922        TOTAL FREE ENERGY PREDICTED BY IDOCK:   -3.50 KCAL/MOL
REMARK 923 INTER-LIGAND FREE ENERGY PREDICTED BY IDOCK:   -3.09 KCAL/MOL
REMARK 924 INTRA-LIGAND FREE ENERGY PREDICTED BY IDOCK:   -0.41 KCAL/MOL
REMARK 927      BINDING AFFINITY PREDICTED BY RF-SCORE:    0.00 PKD
ROOT
HETATM    1 CL   UNL     1     -11.098   6.696  67.140  1.00  0.00    -0.470 Cl 
HETATM    2  C   UNL     1      -9.689   6.325  66.113  1.00  0.00     0.031 C  
HETATM    3  C   UNL     1      -8.720   7.500  66.047  1.00  0.00    -0.158 C  
ENDROOT
BRANCH   3   4
HETATM    4  N   UNL     1      -9.332   8.725  65.550  1.00  0.00    -0.428 N  
HETATM    5  H   UNL     1     -10.052   8.676  64.830  1.00  0.00     0.000 HD 
BRANCH   4   6
HETATM    6  C   UNL     1      -8.940   9.951  66.048  1.00  0.00    -0.149 C  
HETATM    7  O   UNL     1      -8.241  10.003  67.061  1.00  0.00    -0.116 OA 
BRANCH   6   8
HETATM    8  N   UNL     1      -9.405  11.067  65.356  1.00  0.00    -0.210 N  
BRANCH   8   9
HETATM    9  C   UNL     1     -10.051  12.248  65.947  1.00  0.00    -0.251 C  
HETATM   10 CL   UNL     1     -11.528  10.924  67.846  1.00  0.00    -0.371 Cl 
HETATM   11  C   UNL     1     -11.483  11.981  66.410  1.00  0.00    -0.353 C  
ENDBRANCH   8   9
BRANCH   8  12
HETATM   12  N   UNL     1      -9.232  11.013  63.958  1.00  0.00    -0.319 NA 
HETATM   13  H   UNL     1      -8.421  10.442  63.721  1.00  0.00     0.000 HD 
HETATM   14  H   UNL     1     -10.112  10.590  62.395  1.00  0.00     0.000 HD 
HETATM   15  O   UNL     1     -10.228  10.626  63.337  1.00  0.00    -0.291 OA 
ENDBRANCH   8  12
ENDBRANCH   6   8
ENDBRANCH   4   6
ENDBRANCH   3   4
TORSDOF 5
ENDMDL
MODEL      269
REMARK 921   NORMALIZED FREE ENERGY PREDICTED BY IDOCK:   -2.64 KCAL/MOL
REMARK 922        TOTAL FREE ENERGY PREDICTED BY IDOCK:   -3.50 KCAL/MOL
REMARK 923 INTER-LIGAND FREE ENERGY PREDICTED BY IDOCK:   -2.93 KCAL/MOL
REMARK 924 INTRA-LIGAND FREE ENERGY PREDICTED BY IDOCK:   -0.56 KCAL/MOL
REMARK 927      BINDING AFFINITY PREDICTED BY RF-SCORE:    0.00 PKD
ROOT
HETATM    1 CL   UNL     1     -10.089  12.299  65.538  1.00  0.00    -0.274 Cl 
HETATM    2  C   UNL     1     -11.106  12.094  66.988  1.00  0.00    -0.294 C  
HETATM    3  C   UNL     1     -10.313  11.504  68.149  1.00  0.00    -0.195 C  
ENDROOT
BRANCH   3   4
HETATM    4  N   UNL     1      -9.706  10.217  67.837  1.00  0.00    -0.145 N  
HETATM    5  H   UNL     1      -8.778  10.182  67.415  1.00  0.00     0.000 HD 
BRANCH   4   6
HETATM    6  C   UNL     1     -10.381   9.044  68.109  1.00  0.00    -0.214 C  
HETATM    7  O   UNL     1     -10.864   8.864  69.228  1.00  0.00    -0.197 OA 
BRANCH   6   8
HETATM    8  N   UNL     1     -10.441   8.119  67.069  1.00  0.00    -0.332 N  
BRANCH   8   9
HETATM    9  C   UNL     1     -11.127   6.819  67.102  1.00  0.00    -0.333 C  
HETATM   10 CL   UNL     1      -9.598   5.667  69.070  1.00  0.00    -0.161 Cl 
HETATM   11  C   UNL     1     -10.186   5.650  67.386  1.00  0.00    -0.205 C  
ENDBRANCH   8   9
BRANCH   8  12
HETATM   12  N   UNL     1      -9.754   8.498  65.897  1.00  0.00    -0.466 NA 
HETATM   13  H   UNL     1      -9.997   9.453  65.635  1.00  0.00     0.000 HD 
HETATM   14  H   UNL     1      -8.064   8.621  65.173  1.00  0.00     0.000 HD 
HETATM   15  O   UNL     1      -8.527   8.366  65.962  1.00  0.00    -0.117 OA 
ENDBRANCH   8  12
ENDBRANCH   6   8
ENDBRANCH   4   6
ENDBRANCH   3   4
TORSDOF 5
ENDMDL
MODEL      270
REMARK 921   NORMALIZED FREE ENERGY PREDICTED BY IDOCK:   -2.64 KCAL/MOL
REMARK 922        TOTAL FREE ENERGY PREDICTED BY IDOCK:   -3.49 KCAL/MOL
REMARK 923 INTER-LIGAND FREE ENERGY PREDICTED BY IDOCK:   -3.02 KCAL/MOL
REMARK 924 INTRA-LIGAND FREE ENERGY PREDICTED BY IDOCK:   -0.48 KCAL/MOL
REMARK 927      BINDING AFFINITY PREDICTED BY RF-SCORE:    0.00 PKD
ROOT
HETATM    1 CL   UNL     1     -12.641  11.568  70.974  1.00  0.00    -0.484 Cl 
HETATM    2  C   UNL     1     -11.690  12.358  69.689  1.00  0.00    -0.307 C  
HETATM    3  C   UNL     1     -11.786  11.596  68.372  1.00  0.00    -0.278 C  
ENDROOT
BRANCH   3   4
HETATM    4  N   UNL     1     -11.344  10.210  68.475  1.00  0.00    -0.491 N  
HETATM    5  H   UNL     1     -12.031   9.456  68.456  1.00  0.00     0.000 HD 
BRANCH   4   6
HETATM    6  C   UNL     1     -10.002   9.915  68.597  1.00  0.00    -0.164 C  
HETATM    7  O   UNL     1      -9.530   9.671  69.709  1.00  0.00    -0.191 OA 
BRANCH   6   8
HETATM    8  N   UNL     1      -9.261   9.942  67.418  1.00  0.00    -0.134 N  
BRANCH   8   9
HETATM    9  C   UNL     1      -7.909  10.496  67.255  1.00  0.00    -0.107 C  
HETATM   10 CL   UNL     1      -8.388  12.936  68.419  1.00  0.00    -0.146 Cl 
HETATM   11  C   UNL     1      -7.904  11.999  66.981  1.00  0.00    -0.138 C  
ENDBRANCH   8   9
BRANCH   8  12
HETATM   12  N   UNL     1      -9.911   9.389  66.296  1.00  0.00    -0.280 NA 
HETATM   13  H   UNL     1     -10.735   8.862  66.585  1.00  0.00     0.000 HD 
HETATM   14  H   UNL     1     -10.647   9.840  64.668  1.00  0.00     0.000 HD 
HETATM   15  O   UNL     1     -10.210  10.213  65.424  1.00  0.00    -0.298 OA 
ENDBRANCH   8  12
ENDBRANCH   6   8
ENDBRANCH   4   6
ENDBRANCH   3   4
TORSDOF 5
ENDMDL
MODEL      271
REMARK 921   NORMALIZED FREE ENERGY PREDICTED BY IDOCK:   -2.64 KCAL/MOL
REMARK 922        TOTAL FREE ENERGY PREDICTED BY IDOCK:   -3.49 KCAL/MOL
REMARK 923 INTER-LIGAND FREE ENERGY PREDICTED BY IDOCK:   -3.26 KCAL/MOL
REMARK 924 INTRA-LIGAND FREE ENERGY PREDICTED BY IDOCK:   -0.23 KCAL/MOL
REMARK 927      BINDING AFFINITY PREDICTED BY RF-SCORE:    0.00 PKD
ROOT
HETATM    1 CL   UNL     1      -8.999  17.425  68.528  1.00  0.00    -0.272 Cl 
HETATM    2  C   UNL     1      -8.991  16.762  66.873  1.00  0.00    -0.223 C  
HETATM    3  C   UNL     1     -10.218  15.895  66.612  1.00  0.00    -0.288 C  
ENDROOT
BRANCH   3   4
HETATM    4  N   UNL     1     -10.347  14.783  67.544  1.00  0.00    -0.238 N  
HETATM    5  H   UNL     1      -9.707  14.706  68.334  1.00  0.00     0.000 HD 
BRANCH   4   6
HETATM    6  C   UNL     1     -11.331  13.832  67.363  1.00  0.00    -0.324 C  
HETATM    7  O   UNL     1     -12.354  14.125  66.741  1.00  0.00    -0.438 OA 
BRANCH   6   8
HETATM    8  N   UNL     1     -11.090  12.587  67.938  1.00  0.00    -0.231 N  
BRANCH   8   9
HETATM    9  C   UNL     1     -10.099  12.290  68.983  1.00  0.00     0.139 C  
HETATM   10 CL   UNL     1      -7.876  12.311  67.372  1.00  0.00    -0.162 Cl 
HETATM   11  C   UNL     1      -8.945  11.420  68.487  1.00  0.00    -0.158 C  
ENDBRANCH   8   9
BRANCH   8  12
HETATM   12  N   UNL     1     -11.882  11.536  67.432  1.00  0.00    -0.620 NA 
HETATM   13  H   UNL     1     -11.397  11.058  66.673  1.00  0.00     0.000 HD 
HETATM   14  H   UNL     1     -12.790  10.016  67.944  1.00  0.00     0.000 HD 
HETATM   15  O   UNL     1     -12.256  10.724  68.285  1.00  0.00    -0.449 OA 
ENDBRANCH   8  12
ENDBRANCH   6   8
ENDBRANCH   4   6
ENDBRANCH   3   4
TORSDOF 5
ENDMDL
MODEL      272
REMARK 921   NORMALIZED FREE ENERGY PREDICTED BY IDOCK:   -2.64 KCAL/MOL
REMARK 922        TOTAL FREE ENERGY PREDICTED BY IDOCK:   -3.49 KCAL/MOL
REMARK 923 INTER-LIGAND FREE ENERGY PREDICTED BY IDOCK:   -2.98 KCAL/MOL
REMARK 924 INTRA-LIGAND FREE ENERGY PREDICTED BY IDOCK:   -0.51 KCAL/MOL
REMARK 927      BINDING AFFINITY PREDICTED BY RF-SCORE:    0.00 PKD
ROOT
HETATM    1 CL   UNL     1      -7.129   8.711  69.830  1.00  0.00    -0.050 Cl 
HETATM    2  C   UNL     1      -7.652   8.120  68.231  1.00  0.00    -0.102 C  
HETATM    3  C   UNL     1      -8.114   9.264  67.335  1.00  0.00    -0.110 C  
ENDROOT
BRANCH   3   4
HETATM    4  N   UNL     1      -9.205  10.040  67.909  1.00  0.00    -0.137 N  
HETATM    5  H   UNL     1      -9.924   9.574  68.462  1.00  0.00     0.000 HD 
BRANCH   4   6
HETATM    6  C   UNL     1      -9.271  11.404  67.708  1.00  0.00    -0.159 C  
HETATM    7  O   UNL     1      -8.455  12.142  68.262  1.00  0.00    -0.170 OA 
BRANCH   6   8
HETATM    8  N   UNL     1     -10.305  11.851  66.888  1.00  0.00    -0.208 N  
BRANCH   8   9
HETATM    9  C   UNL     1     -10.201  12.881  65.843  1.00  0.00    -0.290 C  
HETATM   10 CL   UNL     1     -11.558  14.864  67.171  1.00  0.00    -0.357 Cl 
HETATM   11  C   UNL     1     -11.433  13.779  65.760  1.00  0.00    -0.318 C  
ENDBRANCH   8   9
BRANCH   8  12
HETATM   12  N   UNL     1     -11.555  11.245  67.125  1.00  0.00    -0.513 NA 
HETATM   13  H   UNL     1     -11.512  10.247  66.915  1.00  0.00     0.000 HD 
HETATM   14  H   UNL     1     -12.844  11.019  68.422  1.00  0.00     0.000 HD 
HETATM   15  O   UNL     1     -12.002  11.427  68.263  1.00  0.00    -0.566 OA 
ENDBRANCH   8  12
ENDBRANCH   6   8
ENDBRANCH   4   6
ENDBRANCH   3   4
TORSDOF 5
ENDMDL
MODEL      273
REMARK 921   NORMALIZED FREE ENERGY PREDICTED BY IDOCK:   -2.63 KCAL/MOL
REMARK 922        TOTAL FREE ENERGY PREDICTED BY IDOCK:   -3.48 KCAL/MOL
REMARK 923 INTER-LIGAND FREE ENERGY PREDICTED BY IDOCK:   -3.05 KCAL/MOL
REMARK 924 INTRA-LIGAND FREE ENERGY PREDICTED BY IDOCK:   -0.43 KCAL/MOL
REMARK 927      BINDING AFFINITY PREDICTED BY RF-SCORE:    0.00 PKD
ROOT
HETATM    1 CL   UNL     1     -11.152   6.592  66.880  1.00  0.00    -0.435 Cl 
HETATM    2  C   UNL     1      -9.536   5.904  67.186  1.00  0.00    -0.117 C  
HETATM    3  C   UNL     1      -9.327   5.604  68.666  1.00  0.00    -0.123 C  
ENDROOT
BRANCH   3   4
HETATM    4  N   UNL     1      -9.489   6.773  69.520  1.00  0.00    -0.149 N  
HETATM    5  H   UNL     1      -8.760   7.485  69.550  1.00  0.00     0.000 HD 
BRANCH   4   6
HETATM    6  C   UNL     1     -10.625   6.921  70.290  1.00  0.00    -0.218 C  
HETATM    7  O   UNL     1     -11.576   6.155  70.126  1.00  0.00    -0.375 OA 
BRANCH   6   8
HETATM    8  N   UNL     1     -10.612   7.975  71.201  1.00  0.00    -0.202 N  
BRANCH   8   9
HETATM    9  C   UNL     1     -11.051   7.915  72.603  1.00  0.00    -0.385 C  
HETATM   10 CL   UNL     1      -8.560   7.712  73.740  1.00  0.00    -0.249 Cl 
HETATM   11  C   UNL     1     -10.177   7.009  73.469  1.00  0.00    -0.333 C  
ENDBRANCH   8   9
BRANCH   8  12
HETATM   12  N   UNL     1     -10.142   9.199  70.686  1.00  0.00    -0.227 NA 
HETATM   13  H   UNL     1     -10.805   9.948  70.887  1.00  0.00     0.000 HD 
HETATM   14  H   UNL     1      -8.692  10.336  70.720  1.00  0.00     0.000 HD 
HETATM   15  O   UNL     1      -9.009   9.511  71.068  1.00  0.00    -0.241 OA 
ENDBRANCH   8  12
ENDBRANCH   6   8
ENDBRANCH   4   6
ENDBRANCH   3   4
TORSDOF 5
ENDMDL
MODEL      274
REMARK 921   NORMALIZED FREE ENERGY PREDICTED BY IDOCK:   -2.61 KCAL/MOL
REMARK 922        TOTAL FREE ENERGY PREDICTED BY IDOCK:   -3.46 KCAL/MOL
REMARK 923 INTER-LIGAND FREE ENERGY PREDICTED BY IDOCK:   -3.13 KCAL/MOL
REMARK 924 INTRA-LIGAND FREE ENERGY PREDICTED BY IDOCK:   -0.34 KCAL/MOL
REMARK 927      BINDING AFFINITY PREDICTED BY RF-SCORE:    0.00 PKD
ROOT
HETATM    1 CL   UNL     1      -8.456   6.390  65.901  1.00  0.00    -0.142 Cl 
HETATM    2  C   UNL     1      -7.993   7.780  66.917  1.00  0.00    -0.112 C  
HETATM    3  C   UNL     1      -9.216   8.483  67.495  1.00  0.00    -0.133 C  
ENDROOT
BRANCH   3   4
HETATM    4  N   UNL     1     -10.143   8.957  66.476  1.00  0.00    -0.292 N  
HETATM    5  H   UNL     1     -10.499   8.310  65.773  1.00  0.00     0.000 HD 
BRANCH   4   6
HETATM    6  C   UNL     1     -10.541  10.279  66.458  1.00  0.00    -0.132 C  
HETATM    7  O   UNL     1     -11.420  10.661  67.232  1.00  0.00    -0.412 OA 
BRANCH   6   8
HETATM    8  N   UNL     1      -9.914  11.092  65.517  1.00  0.00    -0.236 N  
BRANCH   8   9
HETATM    9  C   UNL     1     -10.485  11.539  64.238  1.00  0.00    -0.338 C  
HETATM   10 CL   UNL     1     -10.684  14.207  64.857  1.00  0.00    -0.419 Cl 
HETATM   11  C   UNL     1     -11.486  12.682  64.393  1.00  0.00    -0.349 C  
ENDBRANCH   8   9
BRANCH   8  12
HETATM   12  N   UNL     1      -8.604  11.490  65.854  1.00  0.00    -0.367 NA 
HETATM   13  H   UNL     1      -8.135  11.893  65.043  1.00  0.00     0.000 HD 
HETATM   14  H   UNL     1      -7.656  12.527  67.046  1.00  0.00     0.000 HD 
HETATM   15  O   UNL     1      -8.538  12.260  66.819  1.00  0.00    -0.194 OA 
ENDBRANCH   8  12
ENDBRANCH   6   8
ENDBRANCH   4   6
ENDBRANCH   3   4
TORSDOF 5
ENDMDL
MODEL      275
REMARK 921   NORMALIZED FREE ENERGY PREDICTED BY IDOCK:   -2.61 KCAL/MOL
REMARK 922        TOTAL FREE ENERGY PREDICTED BY IDOCK:   -3.45 KCAL/MOL
REMARK 923 INTER-LIGAND FREE ENERGY PREDICTED BY IDOCK:   -3.17 KCAL/MOL
REMARK 924 INTRA-LIGAND FREE ENERGY PREDICTED BY IDOCK:   -0.29 KCAL/MOL
REMARK 927      BINDING AFFINITY PREDICTED BY RF-SCORE:    0.00 PKD
ROOT
HETATM    1 CL   UNL     1      -7.599   8.902  67.303  1.00  0.00    -0.088 Cl 
HETATM    2  C   UNL     1      -9.096   8.388  66.482  1.00  0.00    -0.176 C  
HETATM    3  C   UNL     1      -9.702   9.522  65.662  1.00  0.00    -0.290 C  
ENDROOT
BRANCH   3   4
HETATM    4  N   UNL     1     -10.005  10.707  66.453  1.00  0.00    -0.214 N  
HETATM    5  H   UNL     1      -9.545  10.849  67.352  1.00  0.00     0.000 HD 
BRANCH   4   6
HETATM    6  C   UNL     1     -10.911  11.640  65.991  1.00  0.00    -0.286 C  
HETATM    7  O   UNL     1     -11.276  11.606  64.815  1.00  0.00    -0.297 OA 
BRANCH   6   8
HETATM    8  N   UNL     1     -11.335  12.591  66.917  1.00  0.00    -0.306 N  
BRANCH   8   9
HETATM    9  C   UNL     1     -10.816  12.764  68.282  1.00  0.00    -0.248 C  
HETATM   10 CL   UNL     1     -12.035  10.573  69.401  1.00  0.00    -0.275 Cl 
HETATM   11  C   UNL     1     -11.810  12.343  69.362  1.00  0.00    -0.304 C  
ENDBRANCH   8   9
BRANCH   8  12
HETATM   12  N   UNL     1     -12.370  13.436  66.469  1.00  0.00    -0.345 NA 
HETATM   13  H   UNL     1     -13.227  13.256  66.992  1.00  0.00     0.000 HD 
HETATM   14  H   UNL     1     -12.790  15.209  66.194  1.00  0.00     0.000 HD 
HETATM   15  O   UNL     1     -12.092  14.640  66.497  1.00  0.00    -0.340 OA 
ENDBRANCH   8  12
ENDBRANCH   6   8
ENDBRANCH   4   6
ENDBRANCH   3   4
TORSDOF 5
ENDMDL
MODEL      276
REMARK 921   NORMALIZED FREE ENERGY PREDICTED BY IDOCK:   -2.60 KCAL/MOL
REMARK 922        TOTAL FREE ENERGY PREDICTED BY IDOCK:   -3.45 KCAL/MOL
REMARK 923 INTER-LIGAND FREE ENERGY PREDICTED BY IDOCK:   -2.96 KCAL/MOL
REMARK 924 INTRA-LIGAND FREE ENERGY PREDICTED BY IDOCK:   -0.49 KCAL/MOL
REMARK 927      BINDING AFFINITY PREDICTED BY RF-SCORE:    0.00 PKD
ROOT
HETATM    1 CL   UNL     1     -11.842   7.989  72.676  1.00  0.00    -0.421 Cl 
HETATM    2  C   UNL     1     -12.570   6.731  71.643  1.00  0.00    -0.333 C  
HETATM    3  C   UNL     1     -11.632   6.322  70.514  1.00  0.00    -0.287 C  
ENDROOT
BRANCH   3   4
HETATM    4  N   UNL     1     -11.238   7.435  69.660  1.00  0.00    -0.456 N  
HETATM    5  H   UNL     1     -11.398   8.393  69.970  1.00  0.00     0.000 HD 
BRANCH   4   6
HETATM    6  C   UNL     1     -10.649   7.198  68.434  1.00  0.00    -0.186 C  
HETATM    7  O   UNL     1     -11.012   6.234  67.760  1.00  0.00    -0.308 OA 
BRANCH   6   8
HETATM    8  N   UNL     1      -9.642   8.085  68.060  1.00  0.00    -0.149 N  
BRANCH   8   9
HETATM    9  C   UNL     1      -8.251   8.069  68.536  1.00  0.00    -0.126 C  
HETATM   10 CL   UNL     1      -7.431   5.843  67.154  1.00  0.00    -0.083 Cl 
HETATM   11  C   UNL     1      -7.693   6.659  68.719  1.00  0.00    -0.109 C  
ENDBRANCH   8   9
BRANCH   8  12
HETATM   12  N   UNL     1     -10.039   9.084  67.148  1.00  0.00    -0.221 NA 
HETATM   13  H   UNL     1     -10.213   8.677  66.228  1.00  0.00     0.000 HD 
HETATM   14  H   UNL     1     -11.279  10.425  66.901  1.00  0.00     0.000 HD 
HETATM   15  O   UNL     1     -11.012   9.751  67.516  1.00  0.00    -0.275 OA 
ENDBRANCH   8  12
ENDBRANCH   6   8
ENDBRANCH   4   6
ENDBRANCH   3   4
TORSDOF 5
ENDMDL
MODEL      277
REMARK 921   NORMALIZED FREE ENERGY PREDICTED BY IDOCK:   -2.60 KCAL/MOL
REMARK 922        TOTAL FREE ENERGY PREDICTED BY IDOCK:   -3.45 KCAL/MOL
REMARK 923 INTER-LIGAND FREE ENERGY PREDICTED BY IDOCK:   -2.99 KCAL/MOL
REMARK 924 INTRA-LIGAND FREE ENERGY PREDICTED BY IDOCK:   -0.45 KCAL/MOL
REMARK 927      BINDING AFFINITY PREDICTED BY RF-SCORE:    0.00 PKD
ROOT
HETATM    1 CL   UNL     1      -9.040  11.122  67.034  1.00  0.00    -0.153 Cl 
HETATM    2  C   UNL     1     -10.801  11.292  66.811  1.00  0.00    -0.282 C  
HETATM    3  C   UNL     1     -11.552  11.108  68.124  1.00  0.00    -0.280 C  
ENDROOT
BRANCH   3   4
HETATM    4  N   UNL     1     -11.299   9.820  68.757  1.00  0.00    -0.482 N  
HETATM    5  H   UNL     1     -10.900   9.056  68.211  1.00  0.00     0.000 HD 
BRANCH   4   6
HETATM    6  C   UNL     1     -11.597   9.628  70.091  1.00  0.00    -0.141 C  
HETATM    7  O   UNL     1     -12.551  10.223  70.594  1.00  0.00    -0.313 OA 
BRANCH   6   8
HETATM    8  N   UNL     1     -10.750   8.769  70.788  1.00  0.00    -0.217 N  
BRANCH   8   9
HETATM    9  C   UNL     1      -9.315   8.976  71.034  1.00  0.00    -0.271 C  
HETATM   10 CL   UNL     1      -8.389   7.740  68.764  1.00  0.00    -0.128 Cl 
HETATM   11  C   UNL     1      -8.449   7.817  70.546  1.00  0.00    -0.127 C  
ENDBRANCH   8   9
BRANCH   8  12
HETATM   12  N   UNL     1     -11.364   7.597  71.274  1.00  0.00    -0.259 NA 
HETATM   13  H   UNL     1     -12.091   7.829  71.950  1.00  0.00     0.000 HD 
HETATM   14  H   UNL     1     -12.227   6.065  70.721  1.00  0.00     0.000 HD 
HETATM   15  O   UNL     1     -11.814   6.855  70.393  1.00  0.00    -0.342 OA 
ENDBRANCH   8  12
ENDBRANCH   6   8
ENDBRANCH   4   6
ENDBRANCH   3   4
TORSDOF 5
ENDMDL
MODEL      278
REMARK 921   NORMALIZED FREE ENERGY PREDICTED BY IDOCK:   -2.59 KCAL/MOL
REMARK 922        TOTAL FREE ENERGY PREDICTED BY IDOCK:   -3.44 KCAL/MOL
REMARK 923 INTER-LIGAND FREE ENERGY PREDICTED BY IDOCK:   -3.07 KCAL/MOL
REMARK 924 INTRA-LIGAND FREE ENERGY PREDICTED BY IDOCK:   -0.37 KCAL/MOL
REMARK 927      BINDING AFFINITY PREDICTED BY RF-SCORE:    0.00 PKD
ROOT
HETATM    1 CL   UNL     1     -12.400  13.354  63.767  1.00  0.00    -0.457 Cl 
HETATM    2  C   UNL     1     -11.163  14.060  64.839  1.00  0.00    -0.362 C  
HETATM    3  C   UNL     1      -9.999  13.101  65.058  1.00  0.00    -0.142 C  
ENDROOT
BRANCH   3   4
HETATM    4  N   UNL     1     -10.405  11.819  65.620  1.00  0.00    -0.243 N  
HETATM    5  H   UNL     1     -11.379  11.523  65.555  1.00  0.00     0.000 HD 
BRANCH   4   6
HETATM    6  C   UNL     1      -9.479  11.005  66.239  1.00  0.00    -0.193 C  
HETATM    7  O   UNL     1      -8.495  11.506  66.786  1.00  0.00    -0.159 OA 
BRANCH   6   8
HETATM    8  N   UNL     1      -9.728   9.636  66.171  1.00  0.00    -0.232 N  
BRANCH   8   9
HETATM    9  C   UNL     1     -10.318   8.807  67.232  1.00  0.00    -0.290 C  
HETATM   10 CL   UNL     1      -8.254   7.010  67.460  1.00  0.00    -0.116 Cl 
HETATM   11  C   UNL     1      -9.972   7.325  67.099  1.00  0.00    -0.215 C  
ENDBRANCH   8   9
BRANCH   8  12
HETATM   12  N   UNL     1      -9.350   9.024  64.958  1.00  0.00    -0.443 NA 
HETATM   13  H   UNL     1     -10.124   8.479  64.578  1.00  0.00     0.000 HD 
HETATM   14  H   UNL     1      -8.659   9.394  63.291  1.00  0.00     0.000 HD 
HETATM   15  O   UNL     1      -8.914   9.806  64.107  1.00  0.00    -0.214 OA 
ENDBRANCH   8  12
ENDBRANCH   6   8
ENDBRANCH   4   6
ENDBRANCH   3   4
TORSDOF 5
ENDMDL
MODEL      279
REMARK 921   NORMALIZED FREE ENERGY PREDICTED BY IDOCK:   -2.59 KCAL/MOL
REMARK 922        TOTAL FREE ENERGY PREDICTED BY IDOCK:   -3.43 KCAL/MOL
REMARK 923 INTER-LIGAND FREE ENERGY PREDICTED BY IDOCK:   -3.55 KCAL/MOL
REMARK 924 INTRA-LIGAND FREE ENERGY PREDICTED BY IDOCK:    0.11 KCAL/MOL
REMARK 927      BINDING AFFINITY PREDICTED BY RF-SCORE:    0.00 PKD
ROOT
HETATM    1 CL   UNL     1     -11.954  13.451  67.516  1.00  0.00    -0.399 Cl 
HETATM    2  C   UNL     1     -11.218  13.666  65.906  1.00  0.00    -0.304 C  
HETATM    3  C   UNL     1      -9.705  13.818  65.998  1.00  0.00    -0.237 C  
ENDROOT
BRANCH   3   4
HETATM    4  N   UNL     1      -9.288  14.934  66.837  1.00  0.00    -0.229 N  
HETATM    5  H   UNL     1      -8.937  14.757  67.779  1.00  0.00     0.000 HD 
BRANCH   4   6
HETATM    6  C   UNL     1      -9.365  16.228  66.365  1.00  0.00    -0.292 C  
HETATM    7  O   UNL     1     -10.092  16.484  65.404  1.00  0.00    -0.570 OA 
BRANCH   6   8
HETATM    8  N   UNL     1      -8.569  17.166  67.019  1.00  0.00    -0.210 N  
BRANCH   8   9
HETATM    9  C   UNL     1      -9.010  18.102  68.063  1.00  0.00    -0.283 C  
HETATM   10 CL   UNL     1     -10.368  16.285  69.610  1.00  0.00    -0.276 Cl 
HETATM   11  C   UNL     1     -10.392  17.770  68.623  1.00  0.00    -0.350 C  
ENDBRANCH   8   9
BRANCH   8  12
HETATM   12  N   UNL     1      -7.223  17.197  66.599  1.00  0.00    -0.219 NA 
HETATM   13  H   UNL     1      -7.160  17.034  65.594  1.00  0.00     0.000 HD 
HETATM   14  H   UNL     1      -5.711  18.250  66.625  1.00  0.00     0.000 HD 
HETATM   15  O   UNL     1      -6.618  18.229  66.908  1.00  0.00    -0.178 OA 
ENDBRANCH   8  12
ENDBRANCH   6   8
ENDBRANCH   4   6
ENDBRANCH   3   4
TORSDOF 5
ENDMDL
MODEL      280
REMARK 921   NORMALIZED FREE ENERGY PREDICTED BY IDOCK:   -2.58 KCAL/MOL
REMARK 922        TOTAL FREE ENERGY PREDICTED BY IDOCK:   -3.42 KCAL/MOL
REMARK 923 INTER-LIGAND FREE ENERGY PREDICTED BY IDOCK:   -3.56 KCAL/MOL
REMARK 924 INTRA-LIGAND FREE ENERGY PREDICTED BY IDOCK:    0.14 KCAL/MOL
REMARK 927      BINDING AFFINITY PREDICTED BY RF-SCORE:    0.00 PKD
ROOT
HETATM    1 CL   UNL     1     -14.398  15.413  71.226  1.00  0.00    -0.513 Cl 
HETATM    2  C   UNL     1     -13.953  14.036  72.267  1.00  0.00    -0.553 C  
HETATM    3  C   UNL     1     -12.615  13.433  71.858  1.00  0.00    -0.078 C  
ENDROOT
BRANCH   3   4
HETATM    4  N   UNL     1     -12.586  12.980  70.473  1.00  0.00    -0.204 N  
HETATM    5  H   UNL     1     -13.210  12.233  70.170  1.00  0.00     0.000 HD 
BRANCH   4   6
HETATM    6  C   UNL     1     -11.718  13.558  69.569  1.00  0.00    -0.322 C  
HETATM    7  O   UNL     1     -10.916  14.411  69.953  1.00  0.00    -0.182 OA 
BRANCH   6   8
HETATM    8  N   UNL     1     -11.842  13.135  68.247  1.00  0.00    -0.350 N  
BRANCH   8   9
HETATM    9  C   UNL     1     -11.357  11.861  67.695  1.00  0.00    -0.304 C  
HETATM   10 CL   UNL     1     -10.386  10.810  70.039  1.00  0.00    -0.004 Cl 
HETATM   11  C   UNL     1     -10.081  11.360  68.369  1.00  0.00    -0.201 C  
ENDBRANCH   8   9
BRANCH   8  12
HETATM   12  N   UNL     1     -12.484  14.050  67.389  1.00  0.00    -0.478 NA 
HETATM   13  H   UNL     1     -13.004  14.740  67.930  1.00  0.00     0.000 HD 
HETATM   14  H   UNL     1     -12.164  15.225  66.006  1.00  0.00     0.000 HD 
HETATM   15  O   UNL     1     -11.731  14.609  66.585  1.00  0.00    -0.372 OA 
ENDBRANCH   8  12
ENDBRANCH   6   8
ENDBRANCH   4   6
ENDBRANCH   3   4
TORSDOF 5
ENDMDL
MODEL      281
REMARK 921   NORMALIZED FREE ENERGY PREDICTED BY IDOCK:   -2.58 KCAL/MOL
REMARK 922        TOTAL FREE ENERGY PREDICTED BY IDOCK:   -3.42 KCAL/MOL
REMARK 923 INTER-LIGAND FREE ENERGY PREDICTED BY IDOCK:   -3.14 KCAL/MOL
REMARK 924 INTRA-LIGAND FREE ENERGY PREDICTED BY IDOCK:   -0.27 KCAL/MOL
REMARK 927      BINDING AFFINITY PREDICTED BY RF-SCORE:    0.00 PKD
ROOT
HETATM    1 CL   UNL     1     -10.627   4.720  65.904  1.00  0.00    -0.337 Cl 
HETATM    2  C   UNL     1      -9.800   5.209  67.406  1.00  0.00    -0.166 C  
HETATM    3  C   UNL     1     -10.721   6.012  68.316  1.00  0.00    -0.279 C  
ENDROOT
BRANCH   3   4
HETATM    4  N   UNL     1     -11.254   7.212  67.683  1.00  0.00    -0.548 N  
HETATM    5  H   UNL     1     -12.221   7.226  67.357  1.00  0.00     0.000 HD 
BRANCH   4   6
HETATM    6  C   UNL     1     -10.458   8.327  67.522  1.00  0.00    -0.255 C  
HETATM    7  O   UNL     1     -10.039   8.620  66.401  1.00  0.00    -0.284 OA 
BRANCH   6   8
HETATM    8  N   UNL     1     -10.162   9.039  68.682  1.00  0.00    -0.200 N  
BRANCH   8   9
HETATM    9  C   UNL     1     -11.134   9.545  69.662  1.00  0.00    -0.171 C  
HETATM   10 CL   UNL     1      -9.768   8.805  71.925  1.00  0.00    -0.379 Cl 
HETATM   11  C   UNL     1     -11.232   8.678  70.915  1.00  0.00    -0.267 C  
ENDBRANCH   8   9
BRANCH   8  12
HETATM   12  N   UNL     1      -8.790   9.289  68.891  1.00  0.00    -0.134 NA 
HETATM   13  H   UNL     1      -8.224   8.701  68.279  1.00  0.00     0.000 HD 
HETATM   14  H   UNL     1      -7.541  10.643  68.914  1.00  0.00     0.000 HD 
HETATM   15  O   UNL     1      -8.465  10.475  68.772  1.00  0.00    -0.125 OA 
ENDBRANCH   8  12
ENDBRANCH   6   8
ENDBRANCH   4   6
ENDBRANCH   3   4
TORSDOF 5
ENDMDL
MODEL      282
REMARK 921   NORMALIZED FREE ENERGY PREDICTED BY IDOCK:   -2.58 KCAL/MOL
REMARK 922        TOTAL FREE ENERGY PREDICTED BY IDOCK:   -3.41 KCAL/MOL
REMARK 923 INTER-LIGAND FREE ENERGY PREDICTED BY IDOCK:   -2.90 KCAL/MOL
REMARK 924 INTRA-LIGAND FREE ENERGY PREDICTED BY IDOCK:   -0.52 KCAL/MOL
REMARK 927      BINDING AFFINITY PREDICTED BY RF-SCORE:    0.00 PKD
ROOT
HETATM    1 CL   UNL     1     -11.093  11.632  64.511  1.00  0.00    -0.379 Cl 
HETATM    2  C   UNL     1     -11.926  12.866  65.492  1.00  0.00    -0.436 C  
HETATM    3  C   UNL     1     -11.154  13.182  66.768  1.00  0.00    -0.289 C  
ENDROOT
BRANCH   3   4
HETATM    4  N   UNL     1     -10.928  12.013  67.609  1.00  0.00    -0.226 N  
HETATM    5  H   UNL     1     -11.722  11.530  68.030  1.00  0.00     0.000 HD 
BRANCH   4   6
HETATM    6  C   UNL     1      -9.646  11.556  67.837  1.00  0.00    -0.177 C  
HETATM    7  O   UNL     1      -8.783  11.702  66.970  1.00  0.00    -0.160 OA 
BRANCH   6   8
HETATM    8  N   UNL     1      -9.432  10.924  69.060  1.00  0.00    -0.181 N  
BRANCH   8   9
HETATM    9  C   UNL     1      -8.171  10.323  69.517  1.00  0.00    -0.155 C  
HETATM   10 CL   UNL     1      -8.128   8.217  67.756  1.00  0.00    -0.126 Cl 
HETATM   11  C   UNL     1      -8.170   8.797  69.443  1.00  0.00    -0.108 C  
ENDBRANCH   8   9
BRANCH   8  12
HETATM   12  N   UNL     1     -10.561  10.863  69.902  1.00  0.00    -0.451 NA 
HETATM   13  H   UNL     1     -10.977  11.789  70.007  1.00  0.00     0.000 HD 
HETATM   14  H   UNL     1     -12.176  10.002  70.117  1.00  0.00     0.000 HD 
HETATM   15  O   UNL     1     -11.416  10.043  69.550  1.00  0.00    -0.208 OA 
ENDBRANCH   8  12
ENDBRANCH   6   8
ENDBRANCH   4   6
ENDBRANCH   3   4
TORSDOF 5
ENDMDL
MODEL      283
REMARK 921   NORMALIZED FREE ENERGY PREDICTED BY IDOCK:   -2.57 KCAL/MOL
REMARK 922        TOTAL FREE ENERGY PREDICTED BY IDOCK:   -3.40 KCAL/MOL
REMARK 923 INTER-LIGAND FREE ENERGY PREDICTED BY IDOCK:   -3.25 KCAL/MOL
REMARK 924 INTRA-LIGAND FREE ENERGY PREDICTED BY IDOCK:   -0.15 KCAL/MOL
REMARK 927      BINDING AFFINITY PREDICTED BY RF-SCORE:    0.00 PKD
ROOT
HETATM    1 CL   UNL     1     -10.772  14.811  64.885  1.00  0.00    -0.439 Cl 
HETATM    2  C   UNL     1     -11.197  13.190  64.276  1.00  0.00    -0.388 C  
HETATM    3  C   UNL     1     -11.819  12.327  65.368  1.00  0.00    -0.360 C  
ENDROOT
BRANCH   3   4
HETATM    4  N   UNL     1     -10.958  12.162  66.532  1.00  0.00    -0.270 N  
HETATM    5  H   UNL     1     -10.993  12.843  67.291  1.00  0.00     0.000 HD 
BRANCH   4   6
HETATM    6  C   UNL     1     -10.095  11.088  66.613  1.00  0.00    -0.220 C  
HETATM    7  O   UNL     1      -9.215  10.948  65.763  1.00  0.00    -0.186 OA 
BRANCH   6   8
HETATM    8  N   UNL     1     -10.314  10.206  67.670  1.00  0.00    -0.203 N  
BRANCH   8   9
HETATM    9  C   UNL     1      -9.833  10.369  69.049  1.00  0.00    -0.212 C  
HETATM   10 CL   UNL     1     -12.281  10.265  70.288  1.00  0.00    -0.321 Cl 
HETATM   11  C   UNL     1     -10.788  11.173  69.929  1.00  0.00    -0.006 C  
ENDBRANCH   8   9
BRANCH   8  12
HETATM   12  N   UNL     1     -11.059   9.056  67.338  1.00  0.00    -0.343 NA 
HETATM   13  H   UNL     1     -11.820   9.296  66.702  1.00  0.00     0.000 HD 
HETATM   14  H   UNL     1     -10.887   7.354  66.653  1.00  0.00     0.000 HD 
HETATM   15  O   UNL     1     -10.386   8.129  66.876  1.00  0.00    -0.303 OA 
ENDBRANCH   8  12
ENDBRANCH   6   8
ENDBRANCH   4   6
ENDBRANCH   3   4
TORSDOF 5
ENDMDL
MODEL      284
REMARK 921   NORMALIZED FREE ENERGY PREDICTED BY IDOCK:   -2.56 KCAL/MOL
REMARK 922        TOTAL FREE ENERGY PREDICTED BY IDOCK:   -3.39 KCAL/MOL
REMARK 923 INTER-LIGAND FREE ENERGY PREDICTED BY IDOCK:   -2.89 KCAL/MOL
REMARK 924 INTRA-LIGAND FREE ENERGY PREDICTED BY IDOCK:   -0.50 KCAL/MOL
REMARK 927      BINDING AFFINITY PREDICTED BY RF-SCORE:    0.00 PKD
ROOT
HETATM    1 CL   UNL     1      -8.562   7.072  74.142  1.00  0.00    -0.179 Cl 
HETATM    2  C   UNL     1      -8.048   6.718  72.472  1.00  0.00    -0.104 C  
HETATM    3  C   UNL     1      -7.927   7.990  71.642  1.00  0.00    -0.112 C  
ENDROOT
BRANCH   3   4
HETATM    4  N   UNL     1      -9.163   8.759  71.581  1.00  0.00    -0.253 N  
HETATM    5  H   UNL     1      -9.587   9.107  72.441  1.00  0.00     0.000 HD 
BRANCH   4   6
HETATM    6  C   UNL     1      -9.764   9.018  70.366  1.00  0.00    -0.206 C  
HETATM    7  O   UNL     1      -9.070   9.123  69.353  1.00  0.00    -0.141 OA 
BRANCH   6   8
HETATM    8  N   UNL     1     -11.148   9.171  70.389  1.00  0.00    -0.247 N  
BRANCH   8   9
HETATM    9  C   UNL     1     -11.880  10.428  70.604  1.00  0.00    -0.350 C  
HETATM   10 CL   UNL     1     -11.892  11.276  67.992  1.00  0.00    -0.304 Cl 
HETATM   11  C   UNL     1     -11.415  11.558  69.688  1.00  0.00    -0.301 C  
ENDBRANCH   8   9
BRANCH   8  12
HETATM   12  N   UNL     1     -11.880   7.980  70.200  1.00  0.00    -0.421 NA 
HETATM   13  H   UNL     1     -12.260   7.943  69.254  1.00  0.00     0.000 HD 
HETATM   14  H   UNL     1     -11.740   6.147  70.326  1.00  0.00     0.000 HD 
HETATM   15  O   UNL     1     -11.247   6.949  70.453  1.00  0.00    -0.276 OA 
ENDBRANCH   8  12
ENDBRANCH   6   8
ENDBRANCH   4   6
ENDBRANCH   3   4
TORSDOF 5
ENDMDL
MODEL      285
REMARK 921   NORMALIZED FREE ENERGY PREDICTED BY IDOCK:   -2.56 KCAL/MOL
REMARK 922        TOTAL FREE ENERGY PREDICTED BY IDOCK:   -3.39 KCAL/MOL
REMARK 923 INTER-LIGAND FREE ENERGY PREDICTED BY IDOCK:   -3.18 KCAL/MOL
REMARK 924 INTRA-LIGAND FREE ENERGY PREDICTED BY IDOCK:   -0.21 KCAL/MOL
REMARK 927      BINDING AFFINITY PREDICTED BY RF-SCORE:    0.00 PKD
ROOT
HETATM    1 CL   UNL     1      -7.870   6.086  69.387  1.00  0.00    -0.098 Cl 
HETATM    2  C   UNL     1      -9.166   4.879  69.186  1.00  0.00    -0.118 C  
HETATM    3  C   UNL     1     -10.356   5.179  70.091  1.00  0.00    -0.270 C  
ENDROOT
BRANCH   3   4
HETATM    4  N   UNL     1     -10.006   5.235  71.504  1.00  0.00    -0.176 N  
HETATM    5  H   UNL     1      -9.035   5.114  71.792  1.00  0.00     0.000 HD 
BRANCH   4   6
HETATM    6  C   UNL     1     -10.982   5.451  72.455  1.00  0.00    -0.256 C  
HETATM    7  O   UNL     1     -11.310   4.535  73.211  1.00  0.00    -0.296 OA 
BRANCH   6   8
HETATM    8  N   UNL     1     -11.552   6.722  72.467  1.00  0.00    -0.236 N  
BRANCH   8   9
HETATM    9  C   UNL     1     -10.941   7.943  73.012  1.00  0.00    -0.333 C  
HETATM   10 CL   UNL     1     -10.127   9.024  70.623  1.00  0.00    -0.259 Cl 
HETATM   11  C   UNL     1      -9.704   8.394  72.238  1.00  0.00    -0.316 C  
ENDBRANCH   8   9
BRANCH   8  12
HETATM   12  N   UNL     1     -12.844   6.798  71.907  1.00  0.00    -0.509 NA 
HETATM   13  H   UNL     1     -13.547   6.532  72.597  1.00  0.00     0.000 HD 
HETATM   14  H   UNL     1     -13.990   7.946  71.032  1.00  0.00     0.000 HD 
HETATM   15  O   UNL     1     -13.120   7.895  71.410  1.00  0.00    -0.313 OA 
ENDBRANCH   8  12
ENDBRANCH   6   8
ENDBRANCH   4   6
ENDBRANCH   3   4
TORSDOF 5
ENDMDL
MODEL      286
REMARK 921   NORMALIZED FREE ENERGY PREDICTED BY IDOCK:   -2.52 KCAL/MOL
REMARK 922        TOTAL FREE ENERGY PREDICTED BY IDOCK:   -3.34 KCAL/MOL
REMARK 923 INTER-LIGAND FREE ENERGY PREDICTED BY IDOCK:   -3.27 KCAL/MOL
REMARK 924 INTRA-LIGAND FREE ENERGY PREDICTED BY IDOCK:   -0.07 KCAL/MOL
REMARK 927      BINDING AFFINITY PREDICTED BY RF-SCORE:    0.00 PKD
ROOT
HETATM    1 CL   UNL     1     -11.222   6.175  72.585  1.00  0.00    -0.307 Cl 
HETATM    2  C   UNL     1     -12.169   6.744  71.186  1.00  0.00    -0.360 C  
HETATM    3  C   UNL     1     -11.405   6.558  69.880  1.00  0.00    -0.406 C  
ENDROOT
BRANCH   3   4
HETATM    4  N   UNL     1     -10.119   7.242  69.862  1.00  0.00    -0.191 N  
HETATM    5  H   UNL     1      -9.688   7.534  70.739  1.00  0.00     0.000 HD 
BRANCH   4   6
HETATM    6  C   UNL     1      -9.481   7.495  68.665  1.00  0.00    -0.146 C  
HETATM    7  O   UNL     1      -8.280   7.248  68.550  1.00  0.00    -0.123 OA 
BRANCH   6   8
HETATM    8  N   UNL     1     -10.268   8.053  67.660  1.00  0.00    -0.211 N  
BRANCH   8   9
HETATM    9  C   UNL     1     -10.814   9.418  67.642  1.00  0.00    -0.154 C  
HETATM   10 CL   UNL     1      -9.913  10.122  65.146  1.00  0.00    -0.395 Cl 
HETATM   11  C   UNL     1      -9.920  10.413  66.906  1.00  0.00    -0.206 C  
ENDBRANCH   8   9
BRANCH   8  12
HETATM   12  N   UNL     1     -10.559   7.188  66.585  1.00  0.00    -0.520 NA 
HETATM   13  H   UNL     1      -9.895   7.332  65.824  1.00  0.00     0.000 HD 
HETATM   14  H   UNL     1     -10.805   5.410  66.169  1.00  0.00     0.000 HD 
HETATM   15  O   UNL     1     -10.609   5.992  66.893  1.00  0.00    -0.251 OA 
ENDBRANCH   8  12
ENDBRANCH   6   8
ENDBRANCH   4   6
ENDBRANCH   3   4
TORSDOF 5
ENDMDL
MODEL      287
REMARK 921   NORMALIZED FREE ENERGY PREDICTED BY IDOCK:   -2.52 KCAL/MOL
REMARK 922        TOTAL FREE ENERGY PREDICTED BY IDOCK:   -3.34 KCAL/MOL
REMARK 923 INTER-LIGAND FREE ENERGY PREDICTED BY IDOCK:   -3.36 KCAL/MOL
REMARK 924 INTRA-LIGAND FREE ENERGY PREDICTED BY IDOCK:    0.02 KCAL/MOL
REMARK 927      BINDING AFFINITY PREDICTED BY RF-SCORE:    0.00 PKD
ROOT
HETATM    1 CL   UNL     1      -6.650  14.872  69.572  1.00  0.00    -0.141 Cl 
HETATM    2  C   UNL     1      -7.141  14.372  67.932  1.00  0.00    -0.159 C  
HETATM    3  C   UNL     1      -7.801  15.517  67.172  1.00  0.00    -0.221 C  
ENDROOT
BRANCH   3   4
HETATM    4  N   UNL     1      -8.972  16.059  67.849  1.00  0.00    -0.185 N  
HETATM    5  H   UNL     1      -8.854  16.727  68.610  1.00  0.00     0.000 HD 
BRANCH   4   6
HETATM    6  C   UNL     1     -10.240  15.672  67.464  1.00  0.00    -0.263 C  
HETATM    7  O   UNL     1     -10.668  16.002  66.357  1.00  0.00    -0.301 OA 
BRANCH   6   8
HETATM    8  N   UNL     1     -10.964  14.937  68.400  1.00  0.00    -0.252 N  
BRANCH   8   9
HETATM    9  C   UNL     1     -10.607  14.739  69.813  1.00  0.00    -0.112 C  
HETATM   10 CL   UNL     1     -13.154  14.829  70.834  1.00  0.00    -0.417 Cl 
HETATM   11  C   UNL     1     -11.507  15.512  70.775  1.00  0.00    -0.367 C  
ENDBRANCH   8   9
BRANCH   8  12
HETATM   12  N   UNL     1     -12.135  14.331  67.902  1.00  0.00    -0.567 NA 
HETATM   13  H   UNL     1     -12.750  15.032  67.489  1.00  0.00     0.000 HD 
HETATM   14  H   UNL     1     -12.720  13.002  66.767  1.00  0.00     0.000 HD 
HETATM   15  O   UNL     1     -11.931  13.411  67.103  1.00  0.00    -0.375 OA 
ENDBRANCH   8  12
ENDBRANCH   6   8
ENDBRANCH   4   6
ENDBRANCH   3   4
TORSDOF 5
ENDMDL
MODEL      288
REMARK 921   NORMALIZED FREE ENERGY PREDICTED BY IDOCK:   -2.51 KCAL/MOL
REMARK 922        TOTAL FREE ENERGY PREDICTED BY IDOCK:   -3.33 KCAL/MOL
REMARK 923 INTER-LIGAND FREE ENERGY PREDICTED BY IDOCK:   -3.09 KCAL/MOL
REMARK 924 INTRA-LIGAND FREE ENERGY PREDICTED BY IDOCK:   -0.24 KCAL/MOL
REMARK 927      BINDING AFFINITY PREDICTED BY RF-SCORE:    0.00 PKD
ROOT
HETATM    1 CL   UNL     1      -9.404   2.450  73.040  1.00  0.00    -0.107 Cl 
HETATM    2  C   UNL     1      -8.436   3.812  72.420  1.00  0.00    -0.090 C  
HETATM    3  C   UNL     1      -9.178   5.136  72.560  1.00  0.00    -0.132 C  
ENDROOT
BRANCH   3   4
HETATM    4  N   UNL     1     -10.465   5.150  71.877  1.00  0.00    -0.215 N  
HETATM    5  H   UNL     1     -11.322   4.988  72.407  1.00  0.00     0.000 HD 
BRANCH   4   6
HETATM    6  C   UNL     1     -10.531   5.381  70.518  1.00  0.00    -0.265 C  
HETATM    7  O   UNL     1     -10.273   4.468  69.732  1.00  0.00    -0.201 OA 
BRANCH   6   8
HETATM    8  N   UNL     1     -10.869   6.676  70.135  1.00  0.00    -0.257 N  
BRANCH   8   9
HETATM    9  C   UNL     1      -9.940   7.711  69.659  1.00  0.00    -0.185 C  
HETATM   10 CL   UNL     1     -10.938   9.791  71.148  1.00  0.00    -0.422 Cl 
HETATM   11  C   UNL     1     -10.584   9.092  69.546  1.00  0.00    -0.225 C  
ENDBRANCH   8   9
BRANCH   8  12
HETATM   12  N   UNL     1     -12.240   6.989  70.243  1.00  0.00    -0.622 NA 
HETATM   13  H   UNL     1     -12.799   6.325  69.706  1.00  0.00     0.000 HD 
HETATM   14  H   UNL     1     -13.578   7.274  71.477  1.00  0.00     0.000 HD 
HETATM   15  O   UNL     1     -12.655   7.063  71.404  1.00  0.00    -0.366 OA 
ENDBRANCH   8  12
ENDBRANCH   6   8
ENDBRANCH   4   6
ENDBRANCH   3   4
TORSDOF 5
ENDMDL
MODEL      289
REMARK 921   NORMALIZED FREE ENERGY PREDICTED BY IDOCK:   -2.51 KCAL/MOL
REMARK 922        TOTAL FREE ENERGY PREDICTED BY IDOCK:   -3.32 KCAL/MOL
REMARK 923 INTER-LIGAND FREE ENERGY PREDICTED BY IDOCK:   -2.78 KCAL/MOL
REMARK 924 INTRA-LIGAND FREE ENERGY PREDICTED BY IDOCK:   -0.54 KCAL/MOL
REMARK 927      BINDING AFFINITY PREDICTED BY RF-SCORE:    0.00 PKD
ROOT
HETATM    1 CL   UNL     1      -7.951   9.093  68.927  1.00  0.00    -0.097 Cl 
HETATM    2  C   UNL     1      -7.188  10.700  69.046  1.00  0.00    -0.095 C  
HETATM    3  C   UNL     1      -8.019  11.767  68.342  1.00  0.00    -0.147 C  
ENDROOT
BRANCH   3   4
HETATM    4  N   UNL     1      -8.250  11.480  66.932  1.00  0.00    -0.162 N  
HETATM    5  H   UNL     1      -7.572  10.927  66.409  1.00  0.00     0.000 HD 
BRANCH   4   6
HETATM    6  C   UNL     1      -9.383  11.953  66.302  1.00  0.00    -0.227 C  
HETATM    7  O   UNL     1      -9.778  13.097  66.535  1.00  0.00    -0.257 OA 
BRANCH   6   8
HETATM    8  N   UNL     1     -10.023  11.061  65.444  1.00  0.00    -0.245 N  
BRANCH   8   9
HETATM    9  C   UNL     1     -10.662  11.395  64.163  1.00  0.00    -0.371 C  
HETATM   10 CL   UNL     1      -9.075   9.829  62.561  1.00  0.00    -0.285 Cl 
HETATM   11  C   UNL     1      -9.678  11.450  62.996  1.00  0.00    -0.371 C  
ENDBRANCH   8   9
BRANCH   8  12
HETATM   12  N   UNL     1     -10.050   9.724  65.892  1.00  0.00    -0.273 NA 
HETATM   13  H   UNL     1      -9.103   9.352  65.959  1.00  0.00     0.000 HD 
HETATM   14  H   UNL     1     -10.676   8.655  67.256  1.00  0.00     0.000 HD 
HETATM   15  O   UNL     1     -10.657   9.556  66.955  1.00  0.00    -0.248 OA 
ENDBRANCH   8  12
ENDBRANCH   6   8
ENDBRANCH   4   6
ENDBRANCH   3   4
TORSDOF 5
ENDMDL
MODEL      290
REMARK 921   NORMALIZED FREE ENERGY PREDICTED BY IDOCK:   -2.49 KCAL/MOL
REMARK 922        TOTAL FREE ENERGY PREDICTED BY IDOCK:   -3.30 KCAL/MOL
REMARK 923 INTER-LIGAND FREE ENERGY PREDICTED BY IDOCK:   -3.06 KCAL/MOL
REMARK 924 INTRA-LIGAND FREE ENERGY PREDICTED BY IDOCK:   -0.25 KCAL/MOL
REMARK 927      BINDING AFFINITY PREDICTED BY RF-SCORE:    0.00 PKD
ROOT
HETATM    1 CL   UNL     1      -8.575   6.103  67.489  1.00  0.00    -0.107 Cl 
HETATM    2  C   UNL     1      -9.654   5.919  68.897  1.00  0.00    -0.132 C  
HETATM    3  C   UNL     1     -10.389   7.217  69.211  1.00  0.00    -0.205 C  
ENDROOT
BRANCH   3   4
HETATM    4  N   UNL     1      -9.494   8.338  69.471  1.00  0.00    -0.161 N  
HETATM    5  H   UNL     1      -8.644   8.447  68.918  1.00  0.00     0.000 HD 
BRANCH   4   6
HETATM    6  C   UNL     1      -9.792   9.252  70.461  1.00  0.00    -0.253 C  
HETATM    7  O   UNL     1      -9.224   9.176  71.552  1.00  0.00    -0.290 OA 
BRANCH   6   8
HETATM    8  N   UNL     1     -10.761  10.201  70.144  1.00  0.00    -0.291 N  
BRANCH   8   9
HETATM    9  C   UNL     1     -12.186  10.138  70.497  1.00  0.00    -0.264 C  
HETATM   10 CL   UNL     1     -12.551  12.819  70.963  1.00  0.00    -0.422 Cl 
HETATM   11  C   UNL     1     -12.584  11.144  71.575  1.00  0.00    -0.325 C  
ENDBRANCH   8   9
BRANCH   8  12
HETATM   12  N   UNL     1     -10.290  11.304  69.401  1.00  0.00    -0.435 NA 
HETATM   13  H   UNL     1      -9.384  11.611  69.755  1.00  0.00     0.000 HD 
HETATM   14  H   UNL     1      -9.918  11.852  67.682  1.00  0.00     0.000 HD 
HETATM   15  O   UNL     1     -10.235  11.110  68.182  1.00  0.00    -0.171 OA 
ENDBRANCH   8  12
ENDBRANCH   6   8
ENDBRANCH   4   6
ENDBRANCH   3   4
TORSDOF 5
ENDMDL
MODEL      291
REMARK 921   NORMALIZED FREE ENERGY PREDICTED BY IDOCK:   -2.47 KCAL/MOL
REMARK 922        TOTAL FREE ENERGY PREDICTED BY IDOCK:   -3.27 KCAL/MOL
REMARK 923 INTER-LIGAND FREE ENERGY PREDICTED BY IDOCK:   -2.80 KCAL/MOL
REMARK 924 INTRA-LIGAND FREE ENERGY PREDICTED BY IDOCK:   -0.47 KCAL/MOL
REMARK 927      BINDING AFFINITY PREDICTED BY RF-SCORE:    0.00 PKD
ROOT
HETATM    1 CL   UNL     1      -9.470  17.212  67.735  1.00  0.00    -0.250 Cl 
HETATM    2  C   UNL     1      -8.889  16.473  66.220  1.00  0.00    -0.329 C  
HETATM    3  C   UNL     1      -9.723  15.256  65.836  1.00  0.00    -0.355 C  
ENDROOT
BRANCH   3   4
HETATM    4  N   UNL     1      -9.744  14.224  66.864  1.00  0.00    -0.255 N  
HETATM    5  H   UNL     1      -9.749  14.488  67.849  1.00  0.00     0.000 HD 
BRANCH   4   6
HETATM    6  C   UNL     1      -9.757  12.889  66.511  1.00  0.00    -0.257 C  
HETATM    7  O   UNL     1     -10.409  12.524  65.532  1.00  0.00    -0.270 OA 
BRANCH   6   8
HETATM    8  N   UNL     1      -9.028  12.033  67.334  1.00  0.00    -0.170 N  
BRANCH   8   9
HETATM    9  C   UNL     1      -8.632  10.653  67.017  1.00  0.00    -0.128 C  
HETATM   10 CL   UNL     1      -6.015  11.180  66.372  1.00  0.00    -0.142 Cl 
HETATM   11  C   UNL     1      -7.616  10.566  65.880  1.00  0.00    -0.148 C  
ENDBRANCH   8   9
BRANCH   8  12
HETATM   12  N   UNL     1      -8.669  12.575  68.585  1.00  0.00    -0.373 NA 
HETATM   13  H   UNL     1      -8.652  11.845  69.297  1.00  0.00     0.000 HD 
HETATM   14  H   UNL     1      -7.362  13.566  69.425  1.00  0.00     0.000 HD 
HETATM   15  O   UNL     1      -7.603  13.201  68.582  1.00  0.00    -0.126 OA 
ENDBRANCH   8  12
ENDBRANCH   6   8
ENDBRANCH   4   6
ENDBRANCH   3   4
TORSDOF 5
ENDMDL
MODEL      292
REMARK 921   NORMALIZED FREE ENERGY PREDICTED BY IDOCK:   -2.47 KCAL/MOL
REMARK 922        TOTAL FREE ENERGY PREDICTED BY IDOCK:   -3.27 KCAL/MOL
REMARK 923 INTER-LIGAND FREE ENERGY PREDICTED BY IDOCK:   -2.98 KCAL/MOL
REMARK 924 INTRA-LIGAND FREE ENERGY PREDICTED BY IDOCK:   -0.28 KCAL/MOL
REMARK 927      BINDING AFFINITY PREDICTED BY RF-SCORE:    0.00 PKD
ROOT
HETATM    1 CL   UNL     1      -7.692  15.881  68.064  1.00  0.00    -0.133 Cl 
HETATM    2  C   UNL     1      -6.611  14.475  68.248  1.00  0.00    -0.119 C  
HETATM    3  C   UNL     1      -7.305  13.180  67.844  1.00  0.00    -0.131 C  
ENDROOT
BRANCH   3   4
HETATM    4  N   UNL     1      -8.521  12.917  68.602  1.00  0.00    -0.354 N  
HETATM    5  H   UNL     1      -8.592  13.224  69.571  1.00  0.00     0.000 HD 
BRANCH   4   6
HETATM    6  C   UNL     1      -9.578  12.252  68.013  1.00  0.00    -0.206 C  
HETATM    7  O   UNL     1      -9.449  11.781  66.883  1.00  0.00    -0.185 OA 
BRANCH   6   8
HETATM    8  N   UNL     1     -10.753  12.190  68.761  1.00  0.00    -0.230 N  
BRANCH   8   9
HETATM    9  C   UNL     1     -11.659  11.037  68.859  1.00  0.00    -0.314 C  
HETATM   10 CL   UNL     1     -10.400   9.781  70.951  1.00  0.00    -0.323 Cl 
HETATM   11  C   UNL     1     -10.946   9.744  69.253  1.00  0.00    -0.193 C  
ENDBRANCH   8   9
BRANCH   8  12
HETATM   12  N   UNL     1     -11.073  13.371  69.461  1.00  0.00    -0.460 NA 
HETATM   13  H   UNL     1     -11.155  14.157  68.815  1.00  0.00     0.000 HD 
HETATM   14  H   UNL     1     -12.299  14.081  70.639  1.00  0.00     0.000 HD 
HETATM   15  O   UNL     1     -12.084  13.286  70.167  1.00  0.00    -0.336 OA 
ENDBRANCH   8  12
ENDBRANCH   6   8
ENDBRANCH   4   6
ENDBRANCH   3   4
TORSDOF 5
ENDMDL
MODEL      293
REMARK 921   NORMALIZED FREE ENERGY PREDICTED BY IDOCK:   -2.47 KCAL/MOL
REMARK 922        TOTAL FREE ENERGY PREDICTED BY IDOCK:   -3.27 KCAL/MOL
REMARK 923 INTER-LIGAND FREE ENERGY PREDICTED BY IDOCK:   -2.84 KCAL/MOL
REMARK 924 INTRA-LIGAND FREE ENERGY PREDICTED BY IDOCK:   -0.43 KCAL/MOL
REMARK 927      BINDING AFFINITY PREDICTED BY RF-SCORE:    0.00 PKD
ROOT
HETATM    1 CL   UNL     1     -10.955   6.281  66.876  1.00  0.00    -0.437 Cl 
HETATM    2  C   UNL     1      -9.551   5.578  67.721  1.00  0.00    -0.123 C  
HETATM    3  C   UNL     1      -9.923   5.094  69.118  1.00  0.00    -0.203 C  
ENDROOT
BRANCH   3   4
HETATM    4  N   UNL     1     -10.479   6.144  69.962  1.00  0.00    -0.213 N  
HETATM    5  H   UNL     1     -11.434   6.467  69.807  1.00  0.00     0.000 HD 
BRANCH   4   6
HETATM    6  C   UNL     1      -9.719   6.704  70.969  1.00  0.00    -0.175 C  
HETATM    7  O   UNL     1      -8.496   6.560  70.961  1.00  0.00    -0.125 OA 
BRANCH   6   8
HETATM    8  N   UNL     1     -10.424   7.387  71.957  1.00  0.00    -0.196 N  
BRANCH   8   9
HETATM    9  C   UNL     1      -9.911   7.771  73.281  1.00  0.00    -0.307 C  
HETATM   10 CL   UNL     1      -9.137   5.265  74.095  1.00  0.00    -0.118 Cl 
HETATM   11  C   UNL     1     -10.155   6.708  74.351  1.00  0.00    -0.315 C  
ENDBRANCH   8   9
BRANCH   8  12
HETATM   12  N   UNL     1     -11.755   7.709  71.622  1.00  0.00    -0.271 NA 
HETATM   13  H   UNL     1     -11.799   8.106  70.683  1.00  0.00     0.000 HD 
HETATM   14  H   UNL     1     -13.446   6.987  71.507  1.00  0.00     0.000 HD 
HETATM   15  O   UNL     1     -12.549   6.769  71.732  1.00  0.00    -0.357 OA 
ENDBRANCH   8  12
ENDBRANCH   6   8
ENDBRANCH   4   6
ENDBRANCH   3   4
TORSDOF 5
ENDMDL
MODEL      294
REMARK 921   NORMALIZED FREE ENERGY PREDICTED BY IDOCK:   -2.45 KCAL/MOL
REMARK 922        TOTAL FREE ENERGY PREDICTED BY IDOCK:   -3.25 KCAL/MOL
REMARK 923 INTER-LIGAND FREE ENERGY PREDICTED BY IDOCK:   -2.86 KCAL/MOL
REMARK 924 INTRA-LIGAND FREE ENERGY PREDICTED BY IDOCK:   -0.39 KCAL/MOL
REMARK 927      BINDING AFFINITY PREDICTED BY RF-SCORE:    0.00 PKD
ROOT
HETATM    1 CL   UNL     1      -9.202   5.821  65.849  1.00  0.00    -0.158 Cl 
HETATM    2  C   UNL     1      -9.559   6.767  67.317  1.00  0.00    -0.137 C  
HETATM    3  C   UNL     1     -10.516   7.917  67.023  1.00  0.00    -0.349 C  
ENDROOT
BRANCH   3   4
HETATM    4  N   UNL     1     -10.020   8.833  66.004  1.00  0.00    -0.456 N  
HETATM    5  H   UNL     1     -10.230   8.660  65.021  1.00  0.00     0.000 HD 
BRANCH   4   6
HETATM    6  C   UNL     1      -9.268   9.933  66.363  1.00  0.00    -0.158 C  
HETATM    7  O   UNL     1      -8.074   9.979  66.065  1.00  0.00    -0.117 OA 
BRANCH   6   8
HETATM    8  N   UNL     1      -9.938  10.923  67.079  1.00  0.00    -0.187 N  
BRANCH   8   9
HETATM    9  C   UNL     1     -11.160  11.623  66.657  1.00  0.00    -0.307 C  
HETATM   10 CL   UNL     1      -9.996  14.042  66.079  1.00  0.00    -0.321 Cl 
HETATM   11  C   UNL     1     -11.169  13.102  67.040  1.00  0.00    -0.294 C  
ENDBRANCH   8   9
BRANCH   8  12
HETATM   12  N   UNL     1      -9.347  11.267  68.312  1.00  0.00    -0.173 NA 
HETATM   13  H   UNL     1      -9.579  12.228  68.562  1.00  0.00     0.000 HD 
HETATM   14  H   UNL     1      -9.223  10.731  70.070  1.00  0.00     0.000 HD 
HETATM   15  O   UNL     1      -9.622  10.499  69.240  1.00  0.00    -0.208 OA 
ENDBRANCH   8  12
ENDBRANCH   6   8
ENDBRANCH   4   6
ENDBRANCH   3   4
TORSDOF 5
ENDMDL
MODEL      295
REMARK 921   NORMALIZED FREE ENERGY PREDICTED BY IDOCK:   -2.45 KCAL/MOL
REMARK 922        TOTAL FREE ENERGY PREDICTED BY IDOCK:   -3.25 KCAL/MOL
REMARK 923 INTER-LIGAND FREE ENERGY PREDICTED BY IDOCK:   -2.89 KCAL/MOL
REMARK 924 INTRA-LIGAND FREE ENERGY PREDICTED BY IDOCK:   -0.36 KCAL/MOL
REMARK 927      BINDING AFFINITY PREDICTED BY RF-SCORE:    0.00 PKD
ROOT
HETATM    1 CL   UNL     1      -8.896   5.531  65.603  1.00  0.00    -0.153 Cl 
HETATM    2  C   UNL     1      -9.777   5.529  67.153  1.00  0.00    -0.142 C  
HETATM    3  C   UNL     1     -11.035   6.387  67.083  1.00  0.00    -0.399 C  
ENDROOT
BRANCH   3   4
HETATM    4  N   UNL     1     -10.768   7.772  66.718  1.00  0.00    -0.455 N  
HETATM    5  H   UNL     1     -10.971   8.096  65.772  1.00  0.00     0.000 HD 
BRANCH   4   6
HETATM    6  C   UNL     1     -10.241   8.648  67.645  1.00  0.00    -0.239 C  
HETATM    7  O   UNL     1     -10.044   8.268  68.800  1.00  0.00    -0.189 OA 
BRANCH   6   8
HETATM    8  N   UNL     1      -9.992   9.942  67.190  1.00  0.00    -0.189 N  
BRANCH   8   9
HETATM    9  C   UNL     1     -11.000  10.981  66.933  1.00  0.00    -0.249 C  
HETATM   10 CL   UNL     1     -10.793  11.001  64.196  1.00  0.00    -0.367 Cl 
HETATM   11  C   UNL     1     -10.653  11.875  65.745  1.00  0.00    -0.267 C  
ENDBRANCH   8   9
BRANCH   8  12
HETATM   12  N   UNL     1      -8.634  10.235  66.951  1.00  0.00    -0.126 NA 
HETATM   13  H   UNL     1      -8.108  10.220  67.825  1.00  0.00     0.000 HD 
HETATM   14  H   UNL     1      -7.181   9.705  65.950  1.00  0.00     0.000 HD 
HETATM   15  O   UNL     1      -8.096   9.507  66.111  1.00  0.00    -0.109 OA 
ENDBRANCH   8  12
ENDBRANCH   6   8
ENDBRANCH   4   6
ENDBRANCH   3   4
TORSDOF 5
ENDMDL
MODEL      296
REMARK 921   NORMALIZED FREE ENERGY PREDICTED BY IDOCK:   -2.45 KCAL/MOL
REMARK 922        TOTAL FREE ENERGY PREDICTED BY IDOCK:   -3.24 KCAL/MOL
REMARK 923 INTER-LIGAND FREE ENERGY PREDICTED BY IDOCK:   -2.75 KCAL/MOL
REMARK 924 INTRA-LIGAND FREE ENERGY PREDICTED BY IDOCK:   -0.49 KCAL/MOL
REMARK 927      BINDING AFFINITY PREDICTED BY RF-SCORE:    0.00 PKD
ROOT
HETATM    1 CL   UNL     1      -8.946   4.127  63.500  1.00  0.00    -0.122 Cl 
HETATM    2  C   UNL     1      -7.519   5.071  64.001  1.00  0.00    -0.061 C  
HETATM    3  C   UNL     1      -7.695   5.650  65.401  1.00  0.00    -0.087 C  
ENDROOT
BRANCH   3   4
HETATM    4  N   UNL     1      -8.869   6.504  65.528  1.00  0.00    -0.344 N  
HETATM    5  H   UNL     1      -9.654   6.387  64.887  1.00  0.00     0.000 HD 
BRANCH   4   6
HETATM    6  C   UNL     1      -8.924   7.470  66.512  1.00  0.00    -0.162 C  
HETATM    7  O   UNL     1      -7.898   7.780  67.120  1.00  0.00    -0.109 OA 
BRANCH   6   8
HETATM    8  N   UNL     1     -10.181   8.016  66.762  1.00  0.00    -0.300 N  
BRANCH   8   9
HETATM    9  C   UNL     1     -10.523   9.446  66.755  1.00  0.00    -0.195 C  
HETATM   10 CL   UNL     1      -9.523  10.057  69.238  1.00  0.00    -0.211 Cl 
HETATM   11  C   UNL     1     -10.920   9.976  68.132  1.00  0.00    -0.235 C  
ENDBRANCH   8   9
BRANCH   8  12
HETATM   12  N   UNL     1     -11.188   7.075  67.060  1.00  0.00    -0.616 NA 
HETATM   13  H   UNL     1     -11.423   6.531  66.230  1.00  0.00     0.000 HD 
HETATM   14  H   UNL     1     -11.599   5.693  68.207  1.00  0.00     0.000 HD 
HETATM   15  O   UNL     1     -10.921   6.326  68.006  1.00  0.00    -0.307 OA 
ENDBRANCH   8  12
ENDBRANCH   6   8
ENDBRANCH   4   6
ENDBRANCH   3   4
TORSDOF 5
ENDMDL
MODEL      297
REMARK 921   NORMALIZED FREE ENERGY PREDICTED BY IDOCK:   -2.44 KCAL/MOL
REMARK 922        TOTAL FREE ENERGY PREDICTED BY IDOCK:   -3.24 KCAL/MOL
REMARK 923 INTER-LIGAND FREE ENERGY PREDICTED BY IDOCK:   -2.81 KCAL/MOL
REMARK 924 INTRA-LIGAND FREE ENERGY PREDICTED BY IDOCK:   -0.42 KCAL/MOL
REMARK 927      BINDING AFFINITY PREDICTED BY RF-SCORE:    0.00 PKD
ROOT
HETATM    1 CL   UNL     1      -8.973   7.082  73.193  1.00  0.00    -0.147 Cl 
HETATM    2  C   UNL     1     -10.731   6.892  73.420  1.00  0.00    -0.324 C  
HETATM    3  C   UNL     1     -11.443   6.651  72.094  1.00  0.00    -0.287 C  
ENDROOT
BRANCH   3   4
HETATM    4  N   UNL     1     -11.226   7.714  71.121  1.00  0.00    -0.256 N  
HETATM    5  H   UNL     1     -11.233   8.688  71.423  1.00  0.00     0.000 HD 
BRANCH   4   6
HETATM    6  C   UNL     1     -11.011   7.409  69.793  1.00  0.00    -0.200 C  
HETATM    7  O   UNL     1     -11.504   6.386  69.315  1.00  0.00    -0.381 OA 
BRANCH   6   8
HETATM    8  N   UNL     1     -10.206   8.298  69.084  1.00  0.00    -0.214 N  
BRANCH   8   9
HETATM    9  C   UNL     1     -10.624   9.594  68.529  1.00  0.00    -0.220 C  
HETATM   10 CL   UNL     1      -9.905   9.108  65.925  1.00  0.00    -0.352 Cl 
HETATM   11  C   UNL     1      -9.717  10.087  67.404  1.00  0.00    -0.161 C  
ENDBRANCH   8   9
BRANCH   8  12
HETATM   12  N   UNL     1      -8.876   7.871  68.891  1.00  0.00    -0.141 NA 
HETATM   13  H   UNL     1      -8.277   8.664  68.662  1.00  0.00     0.000 HD 
HETATM   14  H   UNL     1      -7.509   6.943  69.706  1.00  0.00     0.000 HD 
HETATM   15  O   UNL     1      -8.404   7.231  69.837  1.00  0.00    -0.131 OA 
ENDBRANCH   8  12
ENDBRANCH   6   8
ENDBRANCH   4   6
ENDBRANCH   3   4
TORSDOF 5
ENDMDL
MODEL      298
REMARK 921   NORMALIZED FREE ENERGY PREDICTED BY IDOCK:   -2.44 KCAL/MOL
REMARK 922        TOTAL FREE ENERGY PREDICTED BY IDOCK:   -3.23 KCAL/MOL
REMARK 923 INTER-LIGAND FREE ENERGY PREDICTED BY IDOCK:   -2.96 KCAL/MOL
REMARK 924 INTRA-LIGAND FREE ENERGY PREDICTED BY IDOCK:   -0.27 KCAL/MOL
REMARK 927      BINDING AFFINITY PREDICTED BY RF-SCORE:    0.00 PKD
ROOT
HETATM    1 CL   UNL     1     -11.995  12.302  69.888  1.00  0.00    -0.397 Cl 
HETATM    2  C   UNL     1     -12.494  10.743  70.593  1.00  0.00    -0.370 C  
HETATM    3  C   UNL     1     -11.315  10.010  71.223  1.00  0.00    -0.263 C  
ENDROOT
BRANCH   3   4
HETATM    4  N   UNL     1     -10.228   9.756  70.287  1.00  0.00    -0.277 N  
HETATM    5  H   UNL     1      -9.382  10.324  70.325  1.00  0.00     0.000 HD 
BRANCH   4   6
HETATM    6  C   UNL     1     -10.337   8.749  69.350  1.00  0.00    -0.214 C  
HETATM    7  O   UNL     1     -10.496   9.036  68.162  1.00  0.00    -0.215 OA 
BRANCH   6   8
HETATM    8  N   UNL     1     -10.283   7.447  69.843  1.00  0.00    -0.206 N  
BRANCH   8   9
HETATM    9  C   UNL     1     -11.080   6.306  69.370  1.00  0.00    -0.410 C  
HETATM   10 CL   UNL     1      -8.984   4.630  68.791  1.00  0.00    -0.131 Cl 
HETATM   11  C   UNL     1     -10.414   5.537  68.231  1.00  0.00    -0.157 C  
ENDBRANCH   8   9
BRANCH   8  12
HETATM   12  N   UNL     1      -9.376   7.252  70.905  1.00  0.00    -0.159 NA 
HETATM   13  H   UNL     1      -9.211   8.130  71.397  1.00  0.00     0.000 HD 
HETATM   14  H   UNL     1      -9.097   6.235  72.416  1.00  0.00     0.000 HD 
HETATM   15  O   UNL     1      -9.708   6.367  71.701  1.00  0.00    -0.162 OA 
ENDBRANCH   8  12
ENDBRANCH   6   8
ENDBRANCH   4   6
ENDBRANCH   3   4
TORSDOF 5
ENDMDL
MODEL      299
REMARK 921   NORMALIZED FREE ENERGY PREDICTED BY IDOCK:   -2.44 KCAL/MOL
REMARK 922        TOTAL FREE ENERGY PREDICTED BY IDOCK:   -3.23 KCAL/MOL
REMARK 923 INTER-LIGAND FREE ENERGY PREDICTED BY IDOCK:   -2.89 KCAL/MOL
REMARK 924 INTRA-LIGAND FREE ENERGY PREDICTED BY IDOCK:   -0.34 KCAL/MOL
REMARK 927      BINDING AFFINITY PREDICTED BY RF-SCORE:    0.00 PKD
ROOT
HETATM    1 CL   UNL     1     -10.500   2.573  72.745  1.00  0.00    -0.236 Cl 
HETATM    2  C   UNL     1      -9.255   3.587  73.520  1.00  0.00    -0.100 C  
HETATM    3  C   UNL     1      -9.644   5.061  73.504  1.00  0.00    -0.133 C  
ENDROOT
BRANCH   3   4
HETATM    4  N   UNL     1      -9.881   5.580  72.163  1.00  0.00    -0.161 N  
HETATM    5  H   UNL     1      -9.097   5.713  71.525  1.00  0.00     0.000 HD 
BRANCH   4   6
HETATM    6  C   UNL     1     -11.161   5.894  71.754  1.00  0.00    -0.265 C  
HETATM    7  O   UNL     1     -12.098   5.786  72.546  1.00  0.00    -0.241 OA 
BRANCH   6   8
HETATM    8  N   UNL     1     -11.296   6.295  70.426  1.00  0.00    -0.369 N  
BRANCH   8   9
HETATM    9  C   UNL     1     -10.647   5.674  69.262  1.00  0.00    -0.288 C  
HETATM   10 CL   UNL     1      -8.624   7.508  68.969  1.00  0.00    -0.135 Cl 
HETATM   11  C   UNL     1     -10.058   6.693  68.288  1.00  0.00    -0.159 C  
ENDBRANCH   8   9
BRANCH   8  12
HETATM   12  N   UNL     1     -12.129   7.414  70.226  1.00  0.00    -0.526 NA 
HETATM   13  H   UNL     1     -13.075   7.216  70.554  1.00  0.00     0.000 HD 
HETATM   14  H   UNL     1     -12.269   9.214  70.597  1.00  0.00     0.000 HD 
HETATM   15  O   UNL     1     -11.707   8.460  70.732  1.00  0.00    -0.276 OA 
ENDBRANCH   8  12
ENDBRANCH   6   8
ENDBRANCH   4   6
ENDBRANCH   3   4
TORSDOF 5
ENDMDL
MODEL      300
REMARK 921   NORMALIZED FREE ENERGY PREDICTED BY IDOCK:   -2.43 KCAL/MOL
REMARK 922        TOTAL FREE ENERGY PREDICTED BY IDOCK:   -3.22 KCAL/MOL
REMARK 923 INTER-LIGAND FREE ENERGY PREDICTED BY IDOCK:   -2.75 KCAL/MOL
REMARK 924 INTRA-LIGAND FREE ENERGY PREDICTED BY IDOCK:   -0.47 KCAL/MOL
REMARK 927      BINDING AFFINITY PREDICTED BY RF-SCORE:    0.00 PKD
ROOT
HETATM    1 CL   UNL     1     -10.473   5.393  67.905  1.00  0.00    -0.227 Cl 
HETATM    2  C   UNL     1     -10.023   6.127  69.466  1.00  0.00    -0.166 C  
HETATM    3  C   UNL     1     -10.993   7.233  69.865  1.00  0.00    -0.243 C  
ENDROOT
BRANCH   3   4
HETATM    4  N   UNL     1     -11.090   8.299  68.876  1.00  0.00    -0.403 N  
HETATM    5  H   UNL     1     -11.749   8.215  68.102  1.00  0.00     0.000 HD 
BRANCH   4   6
HETATM    6  C   UNL     1     -10.294   9.422  68.981  1.00  0.00    -0.210 C  
HETATM    7  O   UNL     1      -9.664   9.627  70.020  1.00  0.00    -0.213 OA 
BRANCH   6   8
HETATM    8  N   UNL     1     -10.287  10.271  67.877  1.00  0.00    -0.183 N  
BRANCH   8   9
HETATM    9  C   UNL     1     -11.380  11.163  67.462  1.00  0.00    -0.278 C  
HETATM   10 CL   UNL     1     -10.488  13.426  68.736  1.00  0.00    -0.233 Cl 
HETATM   11  C   UNL     1     -11.757  12.189  68.529  1.00  0.00    -0.330 C  
ENDBRANCH   8   9
BRANCH   8  12
HETATM   12  N   UNL     1      -9.109  10.231  67.104  1.00  0.00    -0.142 NA 
HETATM   13  H   UNL     1      -8.318  10.586  67.641  1.00  0.00     0.000 HD 
HETATM   14  H   UNL     1      -8.053   9.091  66.113  1.00  0.00     0.000 HD 
HETATM   15  O   UNL     1      -8.847   9.118  66.634  1.00  0.00    -0.124 OA 
ENDBRANCH   8  12
ENDBRANCH   6   8
ENDBRANCH   4   6
ENDBRANCH   3   4
TORSDOF 5
ENDMDL
MODEL      301
REMARK 921   NORMALIZED FREE ENERGY PREDICTED BY IDOCK:   -2.43 KCAL/MOL
REMARK 922        TOTAL FREE ENERGY PREDICTED BY IDOCK:   -3.22 KCAL/MOL
REMARK 923 INTER-LIGAND FREE ENERGY PREDICTED BY IDOCK:   -3.37 KCAL/MOL
REMARK 924 INTRA-LIGAND FREE ENERGY PREDICTED BY IDOCK:    0.16 KCAL/MOL
REMARK 927      BINDING AFFINITY PREDICTED BY RF-SCORE:    0.00 PKD
ROOT
HETATM    1 CL   UNL     1     -11.159   6.197  67.855  1.00  0.00    -0.394 Cl 
HETATM    2  C   UNL     1      -9.910   6.714  69.018  1.00  0.00    -0.144 C  
HETATM    3  C   UNL     1     -10.491   7.618  70.099  1.00  0.00    -0.227 C  
ENDROOT
BRANCH   3   4
HETATM    4  N   UNL     1     -11.135   8.812  69.566  1.00  0.00    -0.434 N  
HETATM    5  H   UNL     1     -11.289   8.901  68.562  1.00  0.00     0.000 HD 
BRANCH   4   6
HETATM    6  C   UNL     1     -11.535   9.824  70.415  1.00  0.00    -0.280 C  
HETATM    7  O   UNL     1     -11.415   9.683  71.632  1.00  0.00    -0.380 OA 
BRANCH   6   8
HETATM    8  N   UNL     1     -12.085  10.950  69.805  1.00  0.00    -0.330 N  
BRANCH   8   9
HETATM    9  C   UNL     1     -12.017  11.283  68.375  1.00  0.00    -0.185 C  
HETATM   10 CL   UNL     1      -9.488  12.353  68.386  1.00  0.00    -0.199 Cl 
HETATM   11  C   UNL     1     -11.235  12.565  68.093  1.00  0.00    -0.267 C  
ENDBRANCH   8   9
BRANCH   8  12
HETATM   12  N   UNL     1     -12.748  11.834  70.680  1.00  0.00    -0.169 NA 
HETATM   13  H   UNL     1     -12.871  11.403  71.596  1.00  0.00     0.000 HD 
HETATM   14  H   UNL     1     -12.655  13.536  71.381  1.00  0.00     0.000 HD 
HETATM   15  O   UNL     1     -12.208  12.940  70.792  1.00  0.00    -0.367 OA 
ENDBRANCH   8  12
ENDBRANCH   6   8
ENDBRANCH   4   6
ENDBRANCH   3   4
TORSDOF 5
ENDMDL
MODEL      302
REMARK 921   NORMALIZED FREE ENERGY PREDICTED BY IDOCK:   -2.42 KCAL/MOL
REMARK 922        TOTAL FREE ENERGY PREDICTED BY IDOCK:   -3.21 KCAL/MOL
REMARK 923 INTER-LIGAND FREE ENERGY PREDICTED BY IDOCK:   -2.70 KCAL/MOL
REMARK 924 INTRA-LIGAND FREE ENERGY PREDICTED BY IDOCK:   -0.52 KCAL/MOL
REMARK 927      BINDING AFFINITY PREDICTED BY RF-SCORE:    0.00 PKD
ROOT
HETATM    1 CL   UNL     1      -9.816  12.247  67.181  1.00  0.00    -0.202 Cl 
HETATM    2  C   UNL     1     -11.443  12.500  67.866  1.00  0.00    -0.315 C  
HETATM    3  C   UNL     1     -11.688  11.599  69.071  1.00  0.00    -0.324 C  
ENDROOT
BRANCH   3   4
HETATM    4  N   UNL     1     -11.540  10.181  68.771  1.00  0.00    -0.512 N  
HETATM    5  H   UNL     1     -11.926   9.802  67.906  1.00  0.00     0.000 HD 
BRANCH   4   6
HETATM    6  C   UNL     1     -10.879   9.348  69.650  1.00  0.00    -0.228 C  
HETATM    7  O   UNL     1     -11.087   9.451  70.860  1.00  0.00    -0.265 OA 
BRANCH   6   8
HETATM    8  N   UNL     1      -9.982   8.446  69.081  1.00  0.00    -0.191 N  
BRANCH   8   9
HETATM    9  C   UNL     1      -8.519   8.584  69.043  1.00  0.00    -0.126 C  
HETATM   10 CL   UNL     1      -8.286   9.107  66.358  1.00  0.00    -0.113 Cl 
HETATM   11  C   UNL     1      -7.899   8.060  67.749  1.00  0.00    -0.126 C  
ENDBRANCH   8   9
BRANCH   8  12
HETATM   12  N   UNL     1     -10.576   7.317  68.482  1.00  0.00    -0.294 NA 
HETATM   13  H   UNL     1     -11.139   6.807  69.163  1.00  0.00     0.000 HD 
HETATM   14  H   UNL     1     -11.643   6.806  67.068  1.00  0.00     0.000 HD 
HETATM   15  O   UNL     1     -11.243   7.567  67.472  1.00  0.00    -0.003 OA 
ENDBRANCH   8  12
ENDBRANCH   6   8
ENDBRANCH   4   6
ENDBRANCH   3   4
TORSDOF 5
ENDMDL
MODEL      303
REMARK 921   NORMALIZED FREE ENERGY PREDICTED BY IDOCK:   -2.41 KCAL/MOL
REMARK 922        TOTAL FREE ENERGY PREDICTED BY IDOCK:   -3.20 KCAL/MOL
REMARK 923 INTER-LIGAND FREE ENERGY PREDICTED BY IDOCK:   -2.71 KCAL/MOL
REMARK 924 INTRA-LIGAND FREE ENERGY PREDICTED BY IDOCK:   -0.49 KCAL/MOL
REMARK 927      BINDING AFFINITY PREDICTED BY RF-SCORE:    0.00 PKD
ROOT
HETATM    1 CL   UNL     1     -11.247   6.376  67.337  1.00  0.00    -0.386 Cl 
HETATM    2  C   UNL     1     -10.061   5.419  68.262  1.00  0.00    -0.167 C  
HETATM    3  C   UNL     1     -10.504   5.224  69.707  1.00  0.00    -0.269 C  
ENDROOT
BRANCH   3   4
HETATM    4  N   UNL     1     -10.726   6.477  70.417  1.00  0.00    -0.238 N  
HETATM    5  H   UNL     1     -11.627   6.949  70.344  1.00  0.00     0.000 HD 
BRANCH   4   6
HETATM    6  C   UNL     1      -9.721   7.029  71.186  1.00  0.00    -0.172 C  
HETATM    7  O   UNL     1      -8.942   6.292  71.791  1.00  0.00    -0.140 OA 
BRANCH   6   8
HETATM    8  N   UNL     1      -9.686   8.421  71.236  1.00  0.00    -0.176 N  
BRANCH   8   9
HETATM    9  C   UNL     1      -8.612   9.281  70.718  1.00  0.00    -0.203 C  
HETATM   10 CL   UNL     1      -9.447   9.347  68.103  1.00  0.00    -0.142 Cl 
HETATM   11  C   UNL     1      -8.189   8.923  69.294  1.00  0.00    -0.114 C  
ENDBRANCH   8   9
BRANCH   8  12
HETATM   12  N   UNL     1     -10.796   9.020  71.865  1.00  0.00    -0.362 NA 
HETATM   13  H   UNL     1     -10.562   9.288  72.821  1.00  0.00     0.000 HD 
HETATM   14  H   UNL     1     -12.019  10.385  71.674  1.00  0.00     0.000 HD 
HETATM   15  O   UNL     1     -11.271   9.982  71.251  1.00  0.00    -0.341 OA 
ENDBRANCH   8  12
ENDBRANCH   6   8
ENDBRANCH   4   6
ENDBRANCH   3   4
TORSDOF 5
ENDMDL
MODEL      304
REMARK 921   NORMALIZED FREE ENERGY PREDICTED BY IDOCK:   -2.40 KCAL/MOL
REMARK 922        TOTAL FREE ENERGY PREDICTED BY IDOCK:   -3.18 KCAL/MOL
REMARK 923 INTER-LIGAND FREE ENERGY PREDICTED BY IDOCK:   -2.90 KCAL/MOL
REMARK 924 INTRA-LIGAND FREE ENERGY PREDICTED BY IDOCK:   -0.28 KCAL/MOL
REMARK 927      BINDING AFFINITY PREDICTED BY RF-SCORE:    0.00 PKD
ROOT
HETATM    1 CL   UNL     1     -11.230   1.998  63.034  1.00  0.00    -0.264 Cl 
HETATM    2  C   UNL     1     -10.360   3.479  62.556  1.00  0.00    -0.169 C  
HETATM    3  C   UNL     1      -9.653   4.121  63.745  1.00  0.00    -0.137 C  
ENDROOT
BRANCH   3   4
HETATM    4  N   UNL     1     -10.556   4.459  64.838  1.00  0.00    -0.549 N  
HETATM    5  H   UNL     1     -11.551   4.584  64.654  1.00  0.00     0.000 HD 
BRANCH   4   6
HETATM    6  C   UNL     1     -10.069   4.612  66.121  1.00  0.00    -0.266 C  
HETATM    7  O   UNL     1      -9.780   3.616  66.785  1.00  0.00    -0.189 OA 
BRANCH   6   8
HETATM    8  N   UNL     1      -9.967   5.922  66.583  1.00  0.00    -0.167 N  
BRANCH   8   9
HETATM    9  C   UNL     1     -11.028   6.693  67.249  1.00  0.00    -0.385 C  
HETATM   10 CL   UNL     1      -9.738   7.067  69.644  1.00  0.00    -0.157 Cl 
HETATM   11  C   UNL     1     -11.130   6.406  68.745  1.00  0.00    -0.326 C  
ENDBRANCH   8   9
BRANCH   8  12
HETATM   12  N   UNL     1      -8.717   6.534  66.358  1.00  0.00    -0.135 NA 
HETATM   13  H   UNL     1      -8.084   5.888  65.888  1.00  0.00     0.000 HD 
HETATM   14  H   UNL     1      -7.936   8.017  65.591  1.00  0.00     0.000 HD 
HETATM   15  O   UNL     1      -8.778   7.604  65.742  1.00  0.00    -0.156 OA 
ENDBRANCH   8  12
ENDBRANCH   6   8
ENDBRANCH   4   6
ENDBRANCH   3   4
TORSDOF 5
ENDMDL
MODEL      305
REMARK 921   NORMALIZED FREE ENERGY PREDICTED BY IDOCK:   -2.39 KCAL/MOL
REMARK 922        TOTAL FREE ENERGY PREDICTED BY IDOCK:   -3.17 KCAL/MOL
REMARK 923 INTER-LIGAND FREE ENERGY PREDICTED BY IDOCK:   -2.77 KCAL/MOL
REMARK 924 INTRA-LIGAND FREE ENERGY PREDICTED BY IDOCK:   -0.40 KCAL/MOL
REMARK 927      BINDING AFFINITY PREDICTED BY RF-SCORE:    0.00 PKD
ROOT
HETATM    1 CL   UNL     1      -6.536   8.767  67.634  1.00  0.00    -0.061 Cl 
HETATM    2  C   UNL     1      -5.385   9.822  66.773  1.00  0.00    -0.045 C  
HETATM    3  C   UNL     1      -6.066  11.080  66.245  1.00  0.00    -0.136 C  
ENDROOT
BRANCH   3   4
HETATM    4  N   UNL     1      -7.180  10.799  65.349  1.00  0.00    -0.351 N  
HETATM    5  H   UNL     1      -7.010  10.328  64.460  1.00  0.00     0.000 HD 
BRANCH   4   6
HETATM    6  C   UNL     1      -8.463  11.169  65.696  1.00  0.00    -0.043 C  
HETATM    7  O   UNL     1      -8.663  11.747  66.765  1.00  0.00    -0.182 OA 
BRANCH   6   8
HETATM    8  N   UNL     1      -9.464  10.823  64.790  1.00  0.00    -0.228 N  
BRANCH   8   9
HETATM    9  C   UNL     1      -9.891  11.611  63.625  1.00  0.00    -0.345 C  
HETATM   10 CL   UNL     1     -11.801  13.115  64.903  1.00  0.00    -0.374 Cl 
HETATM   11  C   UNL     1     -11.385  11.934  63.633  1.00  0.00    -0.450 C  
ENDBRANCH   8   9
BRANCH   8  12
HETATM   12  N   UNL     1     -10.113   9.601  65.061  1.00  0.00    -0.296 NA 
HETATM   13  H   UNL     1     -10.062   8.983  64.251  1.00  0.00     0.000 HD 
HETATM   14  H   UNL     1     -10.142   8.198  66.255  1.00  0.00     0.000 HD 
HETATM   15  O   UNL     1      -9.704   9.020  66.073  1.00  0.00    -0.265 OA 
ENDBRANCH   8  12
ENDBRANCH   6   8
ENDBRANCH   4   6
ENDBRANCH   3   4
TORSDOF 5
ENDMDL
MODEL      306
REMARK 921   NORMALIZED FREE ENERGY PREDICTED BY IDOCK:   -2.34 KCAL/MOL
REMARK 922        TOTAL FREE ENERGY PREDICTED BY IDOCK:   -3.11 KCAL/MOL
REMARK 923 INTER-LIGAND FREE ENERGY PREDICTED BY IDOCK:   -2.51 KCAL/MOL
REMARK 924 INTRA-LIGAND FREE ENERGY PREDICTED BY IDOCK:   -0.60 KCAL/MOL
REMARK 927      BINDING AFFINITY PREDICTED BY RF-SCORE:    0.00 PKD
ROOT
HETATM    1 CL   UNL     1     -10.642  14.332  67.074  1.00  0.00    -0.278 Cl 
HETATM    2  C   UNL     1     -11.701  12.998  66.546  1.00  0.00    -0.382 C  
HETATM    3  C   UNL     1     -11.637  11.818  67.509  1.00  0.00    -0.291 C  
ENDROOT
BRANCH   3   4
HETATM    4  N   UNL     1     -10.291  11.286  67.681  1.00  0.00    -0.180 N  
HETATM    5  H   UNL     1      -9.555  11.882  68.061  1.00  0.00     0.000 HD 
BRANCH   4   6
HETATM    6  C   UNL     1     -10.008   9.982  67.332  1.00  0.00    -0.197 C  
HETATM    7  O   UNL     1     -10.277   9.581  66.199  1.00  0.00    -0.273 OA 
BRANCH   6   8
HETATM    8  N   UNL     1      -9.445   9.191  68.332  1.00  0.00    -0.142 N  
BRANCH   8   9
HETATM    9  C   UNL     1      -8.071   8.669  68.356  1.00  0.00    -0.118 C  
HETATM   10 CL   UNL     1      -6.882  10.866  69.494  1.00  0.00    -0.111 Cl 
HETATM   11  C   UNL     1      -7.015   9.745  68.113  1.00  0.00    -0.077 C  
ENDBRANCH   8   9
BRANCH   8  12
HETATM   12  N   UNL     1     -10.315   8.871  69.395  1.00  0.00    -0.210 NA 
HETATM   13  H   UNL     1     -10.085   7.954  69.779  1.00  0.00     0.000 HD 
HETATM   14  H   UNL     1     -10.938   9.503  71.010  1.00  0.00     0.000 HD 
HETATM   15  O   UNL     1     -10.352   9.718  70.294  1.00  0.00    -0.258 OA 
ENDBRANCH   8  12
ENDBRANCH   6   8
ENDBRANCH   4   6
ENDBRANCH   3   4
TORSDOF 5
ENDMDL
MODEL      307
REMARK 921   NORMALIZED FREE ENERGY PREDICTED BY IDOCK:   -2.34 KCAL/MOL
REMARK 922        TOTAL FREE ENERGY PREDICTED BY IDOCK:   -3.10 KCAL/MOL
REMARK 923 INTER-LIGAND FREE ENERGY PREDICTED BY IDOCK:   -2.56 KCAL/MOL
REMARK 924 INTRA-LIGAND FREE ENERGY PREDICTED BY IDOCK:   -0.54 KCAL/MOL
REMARK 927      BINDING AFFINITY PREDICTED BY RF-SCORE:    0.00 PKD
ROOT
HETATM    1 CL   UNL     1      -8.940   1.770  64.397  1.00  0.00    -0.106 Cl 
HETATM    2  C   UNL     1      -7.812   1.827  65.776  1.00  0.00    -0.072 C  
HETATM    3  C   UNL     1      -8.426   2.546  66.972  1.00  0.00    -0.101 C  
ENDROOT
BRANCH   3   4
HETATM    4  N   UNL     1      -8.844   3.909  66.673  1.00  0.00    -0.119 N  
HETATM    5  H   UNL     1      -8.391   4.425  65.918  1.00  0.00     0.000 HD 
BRANCH   4   6
HETATM    6  C   UNL     1      -9.849   4.507  67.406  1.00  0.00    -0.157 C  
HETATM    7  O   UNL     1      -9.969   4.244  68.603  1.00  0.00    -0.093 OA 
BRANCH   6   8
HETATM    8  N   UNL     1     -10.689   5.367  66.702  1.00  0.00    -0.286 N  
BRANCH   8   9
HETATM    9  C   UNL     1     -10.904   6.794  66.985  1.00  0.00    -0.383 C  
HETATM   10 CL   UNL     1      -8.629   7.738  65.772  1.00  0.00    -0.159 Cl 
HETATM   11  C   UNL     1      -9.608   7.556  67.252  1.00  0.00    -0.156 C  
ENDBRANCH   8   9
BRANCH   8  12
HETATM   12  N   UNL     1     -11.392   4.770  65.636  1.00  0.00    -0.884 NA 
HETATM   13  H   UNL     1     -12.218   5.321  65.401  1.00  0.00     0.000 HD 
HETATM   14  H   UNL     1     -11.182   4.162  63.909  1.00  0.00     0.000 HD 
HETATM   15  O   UNL     1     -10.709   4.565  64.627  1.00  0.00    -0.048 OA 
ENDBRANCH   8  12
ENDBRANCH   6   8
ENDBRANCH   4   6
ENDBRANCH   3   4
TORSDOF 5
ENDMDL
MODEL      308
REMARK 921   NORMALIZED FREE ENERGY PREDICTED BY IDOCK:   -2.33 KCAL/MOL
REMARK 922        TOTAL FREE ENERGY PREDICTED BY IDOCK:   -3.10 KCAL/MOL
REMARK 923 INTER-LIGAND FREE ENERGY PREDICTED BY IDOCK:   -2.87 KCAL/MOL
REMARK 924 INTRA-LIGAND FREE ENERGY PREDICTED BY IDOCK:   -0.22 KCAL/MOL
REMARK 927      BINDING AFFINITY PREDICTED BY RF-SCORE:    0.00 PKD
ROOT
HETATM    1 CL   UNL     1      -8.374   9.796  69.296  1.00  0.00    -0.130 Cl 
HETATM    2  C   UNL     1      -9.779  10.387  68.371  1.00  0.00    -0.158 C  
HETATM    3  C   UNL     1      -9.478  11.712  67.681  1.00  0.00    -0.177 C  
ENDROOT
BRANCH   3   4
HETATM    4  N   UNL     1      -9.070  12.763  68.604  1.00  0.00    -0.397 N  
HETATM    5  H   UNL     1      -9.186  12.629  69.608  1.00  0.00     0.000 HD 
BRANCH   4   6
HETATM    6  C   UNL     1      -8.529  13.939  68.126  1.00  0.00    -0.171 C  
HETATM    7  O   UNL     1      -7.446  13.918  67.540  1.00  0.00    -0.164 OA 
BRANCH   6   8
HETATM    8  N   UNL     1      -9.266  15.096  68.375  1.00  0.00    -0.184 N  
BRANCH   8   9
HETATM    9  C   UNL     1     -10.562  15.445  67.776  1.00  0.00    -0.274 C  
HETATM   10 CL   UNL     1     -10.059  14.470  65.259  1.00  0.00    -0.409 Cl 
HETATM   11  C   UNL     1     -10.455  15.857  66.309  1.00  0.00    -0.318 C  
ENDBRANCH   8   9
BRANCH   8  12
HETATM   12  N   UNL     1      -8.668  15.996  69.281  1.00  0.00    -0.248 NA 
HETATM   13  H   UNL     1      -8.016  15.505  69.892  1.00  0.00     0.000 HD 
HETATM   14  H   UNL     1      -7.712  17.569  69.357  1.00  0.00     0.000 HD 
HETATM   15  O   UNL     1      -8.114  16.963  68.747  1.00  0.00    -0.243 OA 
ENDBRANCH   8  12
ENDBRANCH   6   8
ENDBRANCH   4   6
ENDBRANCH   3   4
TORSDOF 5
ENDMDL
MODEL      309
REMARK 921   NORMALIZED FREE ENERGY PREDICTED BY IDOCK:   -2.33 KCAL/MOL
REMARK 922        TOTAL FREE ENERGY PREDICTED BY IDOCK:   -3.09 KCAL/MOL
REMARK 923 INTER-LIGAND FREE ENERGY PREDICTED BY IDOCK:   -2.84 KCAL/MOL
REMARK 924 INTRA-LIGAND FREE ENERGY PREDICTED BY IDOCK:   -0.25 KCAL/MOL
REMARK 927      BINDING AFFINITY PREDICTED BY RF-SCORE:    0.00 PKD
ROOT
HETATM    1 CL   UNL     1      -8.405   2.408  68.423  1.00  0.00    -0.074 Cl 
HETATM    2  C   UNL     1      -7.274   3.763  68.671  1.00  0.00    -0.054 C  
HETATM    3  C   UNL     1      -7.829   5.066  68.106  1.00  0.00    -0.087 C  
ENDROOT
BRANCH   3   4
HETATM    4  N   UNL     1      -8.140   4.991  66.684  1.00  0.00    -0.107 N  
HETATM    5  H   UNL     1      -7.689   4.285  66.102  1.00  0.00     0.000 HD 
BRANCH   4   6
HETATM    6  C   UNL     1      -9.042   5.871  66.121  1.00  0.00    -0.150 C  
HETATM    7  O   UNL     1      -8.646   6.726  65.328  1.00  0.00    -0.113 OA 
BRANCH   6   8
HETATM    8  N   UNL     1     -10.367   5.732  66.531  1.00  0.00    -0.219 N  
BRANCH   8   9
HETATM    9  C   UNL     1     -10.974   6.336  67.725  1.00  0.00    -0.332 C  
HETATM   10 CL   UNL     1     -10.504   8.960  67.068  1.00  0.00    -0.344 Cl 
HETATM   11  C   UNL     1     -10.253   7.599  68.193  1.00  0.00    -0.196 C  
ENDBRANCH   8   9
BRANCH   8  12
HETATM   12  N   UNL     1     -11.161   4.915  65.701  1.00  0.00    -0.929 NA 
HETATM   13  H   UNL     1     -11.813   5.484  65.160  1.00  0.00     0.000 HD 
HETATM   14  H   UNL     1     -11.054   3.617  64.397  1.00  0.00     0.000 HD 
HETATM   15  O   UNL     1     -10.518   4.168  64.955  1.00  0.00    -0.240 OA 
ENDBRANCH   8  12
ENDBRANCH   6   8
ENDBRANCH   4   6
ENDBRANCH   3   4
TORSDOF 5
ENDMDL
MODEL      310
REMARK 921   NORMALIZED FREE ENERGY PREDICTED BY IDOCK:   -2.32 KCAL/MOL
REMARK 922        TOTAL FREE ENERGY PREDICTED BY IDOCK:   -3.08 KCAL/MOL
REMARK 923 INTER-LIGAND FREE ENERGY PREDICTED BY IDOCK:   -3.24 KCAL/MOL
REMARK 924 INTRA-LIGAND FREE ENERGY PREDICTED BY IDOCK:    0.16 KCAL/MOL
REMARK 927      BINDING AFFINITY PREDICTED BY RF-SCORE:    0.00 PKD
ROOT
HETATM    1 CL   UNL     1     -13.660  12.886  72.254  1.00  0.00    -0.658 Cl 
HETATM    2  C   UNL     1     -12.274  13.274  71.202  1.00  0.00    -0.113 C  
HETATM    3  C   UNL     1     -12.376  12.563  69.858  1.00  0.00    -0.050 C  
ENDROOT
BRANCH   3   4
HETATM    4  N   UNL     1     -12.462  11.113  69.977  1.00  0.00    -0.260 N  
HETATM    5  H   UNL     1     -13.303  10.627  69.668  1.00  0.00     0.000 HD 
BRANCH   4   6
HETATM    6  C   UNL     1     -11.409  10.395  70.507  1.00  0.00    -0.341 C  
HETATM    7  O   UNL     1     -11.498   9.934  71.646  1.00  0.00    -0.329 OA 
BRANCH   6   8
HETATM    8  N   UNL     1     -10.286  10.268  69.694  1.00  0.00    -0.238 N  
BRANCH   8   9
HETATM    9  C   UNL     1      -9.543   9.027  69.427  1.00  0.00    -0.160 C  
HETATM   10 CL   UNL     1     -10.737   8.411  67.033  1.00  0.00    -0.304 Cl 
HETATM   11  C   UNL     1     -10.382   7.963  68.723  1.00  0.00    -0.203 C  
ENDBRANCH   8   9
BRANCH   8  12
HETATM   12  N   UNL     1      -9.843  11.468  69.101  1.00  0.00    -0.418 NA 
HETATM   13  H   UNL     1      -9.020  11.823  69.589  1.00  0.00     0.000 HD 
HETATM   14  H   UNL     1      -9.325  12.195  67.489  1.00  0.00     0.000 HD 
HETATM   15  O   UNL     1      -9.623  11.386  67.888  1.00  0.00    -0.168 OA 
ENDBRANCH   8  12
ENDBRANCH   6   8
ENDBRANCH   4   6
ENDBRANCH   3   4
TORSDOF 5
ENDMDL
MODEL      311
REMARK 921   NORMALIZED FREE ENERGY PREDICTED BY IDOCK:   -2.32 KCAL/MOL
REMARK 922        TOTAL FREE ENERGY PREDICTED BY IDOCK:   -3.08 KCAL/MOL
REMARK 923 INTER-LIGAND FREE ENERGY PREDICTED BY IDOCK:   -3.47 KCAL/MOL
REMARK 924 INTRA-LIGAND FREE ENERGY PREDICTED BY IDOCK:    0.39 KCAL/MOL
REMARK 927      BINDING AFFINITY PREDICTED BY RF-SCORE:    0.00 PKD
ROOT
HETATM    1 CL   UNL     1      -5.990  13.694  68.609  1.00  0.00    -0.081 Cl 
HETATM    2  C   UNL     1      -7.006  12.392  67.938  1.00  0.00    -0.106 C  
HETATM    3  C   UNL     1      -8.018  12.932  66.934  1.00  0.00     0.079 C  
ENDROOT
BRANCH   3   4
HETATM    4  N   UNL     1      -8.898  13.949  67.495  1.00  0.00    -0.185 N  
HETATM    5  H   UNL     1      -9.191  13.886  68.469  1.00  0.00     0.000 HD 
BRANCH   4   6
HETATM    6  C   UNL     1      -9.338  14.997  66.712  1.00  0.00    -0.251 C  
HETATM    7  O   UNL     1      -8.652  16.016  66.616  1.00  0.00    -0.223 OA 
BRANCH   6   8
HETATM    8  N   UNL     1     -10.575  14.822  66.095  1.00  0.00    -0.301 N  
BRANCH   8   9
HETATM    9  C   UNL     1     -11.754  14.171  66.683  1.00  0.00    -0.403 C  
HETATM   10 CL   UNL     1     -12.004  15.811  68.871  1.00  0.00    -0.355 Cl 
HETATM   11  C   UNL     1     -11.743  14.175  68.211  1.00  0.00    -0.348 C  
ENDBRANCH   8   9
BRANCH   8  12
HETATM   12  N   UNL     1     -10.655  15.316  64.777  1.00  0.00    -0.553 NA 
HETATM   13  H   UNL     1     -11.393  14.835  64.261  1.00  0.00     0.000 HD 
HETATM   14  H   UNL     1     -10.855  16.873  63.812  1.00  0.00     0.000 HD 
HETATM   15  O   UNL     1     -10.802  16.540  64.700  1.00  0.00    -0.741 OA 
ENDBRANCH   8  12
ENDBRANCH   6   8
ENDBRANCH   4   6
ENDBRANCH   3   4
TORSDOF 5
ENDMDL
MODEL      312
REMARK 921   NORMALIZED FREE ENERGY PREDICTED BY IDOCK:   -2.32 KCAL/MOL
REMARK 922        TOTAL FREE ENERGY PREDICTED BY IDOCK:   -3.08 KCAL/MOL
REMARK 923 INTER-LIGAND FREE ENERGY PREDICTED BY IDOCK:   -2.80 KCAL/MOL
REMARK 924 INTRA-LIGAND FREE ENERGY PREDICTED BY IDOCK:   -0.28 KCAL/MOL
REMARK 927      BINDING AFFINITY PREDICTED BY RF-SCORE:    0.00 PKD
ROOT
HETATM    1 CL   UNL     1      -8.807   8.314  69.462  1.00  0.00    -0.148 Cl 
HETATM    2  C   UNL     1      -7.755   9.753  69.432  1.00  0.00    -0.109 C  
HETATM    3  C   UNL     1      -8.406  10.906  68.676  1.00  0.00    -0.148 C  
ENDROOT
BRANCH   3   4
HETATM    4  N   UNL     1      -8.754  10.570  67.301  1.00  0.00    -0.126 N  
HETATM    5  H   UNL     1      -8.105  10.026  66.732  1.00  0.00     0.000 HD 
BRANCH   4   6
HETATM    6  C   UNL     1      -9.956  10.986  66.765  1.00  0.00    -0.203 C  
HETATM    7  O   UNL     1     -11.005  10.749  67.365  1.00  0.00    -0.274 OA 
BRANCH   6   8
HETATM    8  N   UNL     1      -9.883  11.639  65.536  1.00  0.00    -0.229 N  
BRANCH   8   9
HETATM    9  C   UNL     1     -10.202  11.057  64.224  1.00  0.00    -0.352 C  
HETATM   10 CL   UNL     1      -8.345   9.035  64.277  1.00  0.00    -0.168 Cl 
HETATM   11  C   UNL     1      -8.977  10.509  63.495  1.00  0.00    -0.221 C  
ENDBRANCH   8   9
BRANCH   8  12
HETATM   12  N   UNL     1      -9.443  12.977  65.600  1.00  0.00    -0.469 NA 
HETATM   13  H   UNL     1      -8.516  13.066  65.182  1.00  0.00     0.000 HD 
HETATM   14  H   UNL     1      -9.926  14.695  65.142  1.00  0.00     0.000 HD 
HETATM   15  O   UNL     1     -10.223  13.794  65.099  1.00  0.00    -0.351 OA 
ENDBRANCH   8  12
ENDBRANCH   6   8
ENDBRANCH   4   6
ENDBRANCH   3   4
TORSDOF 5
ENDMDL
MODEL      313
REMARK 921   NORMALIZED FREE ENERGY PREDICTED BY IDOCK:   -2.31 KCAL/MOL
REMARK 922        TOTAL FREE ENERGY PREDICTED BY IDOCK:   -3.07 KCAL/MOL
REMARK 923 INTER-LIGAND FREE ENERGY PREDICTED BY IDOCK:   -2.46 KCAL/MOL
REMARK 924 INTRA-LIGAND FREE ENERGY PREDICTED BY IDOCK:   -0.61 KCAL/MOL
REMARK 927      BINDING AFFINITY PREDICTED BY RF-SCORE:    0.00 PKD
ROOT
HETATM    1 CL   UNL     1     -10.420   7.070  70.543  1.00  0.00    -0.221 Cl 
HETATM    2  C   UNL     1      -9.172   5.803  70.419  1.00  0.00    -0.153 C  
HETATM    3  C   UNL     1      -8.035   6.225  69.496  1.00  0.00    -0.108 C  
ENDROOT
BRANCH   3   4
HETATM    4  N   UNL     1      -8.480   6.555  68.148  1.00  0.00    -0.116 N  
HETATM    5  H   UNL     1      -8.811   5.816  67.528  1.00  0.00     0.000 HD 
BRANCH   4   6
HETATM    6  C   UNL     1      -8.454   7.862  67.707  1.00  0.00    -0.125 C  
HETATM    7  O   UNL     1      -7.857   8.716  68.364  1.00  0.00    -0.102 OA 
BRANCH   6   8
HETATM    8  N   UNL     1      -9.150   8.122  66.528  1.00  0.00    -0.165 N  
BRANCH   8   9
HETATM    9  C   UNL     1      -8.924   9.255  65.619  1.00  0.00    -0.199 C  
HETATM   10 CL   UNL     1     -10.048  11.200  67.196  1.00  0.00    -0.215 Cl 
HETATM   11  C   UNL     1     -10.044  10.293  65.661  1.00  0.00    -0.271 C  
ENDBRANCH   8   9
BRANCH   8  12
HETATM   12  N   UNL     1     -10.169   7.196  66.223  1.00  0.00    -0.439 NA 
HETATM   13  H   UNL     1      -9.777   6.260  66.113  1.00  0.00     0.000 HD 
HETATM   14  H   UNL     1     -11.788   6.557  66.828  1.00  0.00     0.000 HD 
HETATM   15  O   UNL     1     -11.102   7.181  67.034  1.00  0.00    -0.345 OA 
ENDBRANCH   8  12
ENDBRANCH   6   8
ENDBRANCH   4   6
ENDBRANCH   3   4
TORSDOF 5
ENDMDL
MODEL      314
REMARK 921   NORMALIZED FREE ENERGY PREDICTED BY IDOCK:   -2.31 KCAL/MOL
REMARK 922        TOTAL FREE ENERGY PREDICTED BY IDOCK:   -3.06 KCAL/MOL
REMARK 923 INTER-LIGAND FREE ENERGY PREDICTED BY IDOCK:   -2.93 KCAL/MOL
REMARK 924 INTRA-LIGAND FREE ENERGY PREDICTED BY IDOCK:   -0.14 KCAL/MOL
REMARK 927      BINDING AFFINITY PREDICTED BY RF-SCORE:    0.00 PKD
ROOT
HETATM    1 CL   UNL     1      -8.714   9.173  68.527  1.00  0.00    -0.129 Cl 
HETATM    2  C   UNL     1      -7.630   7.955  67.806  1.00  0.00    -0.109 C  
HETATM    3  C   UNL     1      -8.197   6.547  67.946  1.00  0.00    -0.116 C  
ENDROOT
BRANCH   3   4
HETATM    4  N   UNL     1      -8.452   6.163  69.328  1.00  0.00    -0.119 N  
HETATM    5  H   UNL     1      -7.722   6.281  70.030  1.00  0.00     0.000 HD 
BRANCH   4   6
HETATM    6  C   UNL     1      -9.677   5.642  69.692  1.00  0.00    -0.169 C  
HETATM    7  O   UNL     1      -9.826   4.420  69.753  1.00  0.00    -0.210 OA 
BRANCH   6   8
HETATM    8  N   UNL     1     -10.685   6.570  69.943  1.00  0.00    -0.233 N  
BRANCH   8   9
HETATM    9  C   UNL     1     -10.816   7.405  71.146  1.00  0.00    -0.242 C  
HETATM   10 CL   UNL     1     -13.531   7.146  71.459  1.00  0.00    -0.440 Cl 
HETATM   11  C   UNL     1     -12.119   8.201  71.186  1.00  0.00    -0.260 C  
ENDBRANCH   8   9
BRANCH   8  12
HETATM   12  N   UNL     1     -11.661   6.675  68.931  1.00  0.00    -0.576 NA 
HETATM   13  H   UNL     1     -12.077   7.606  68.933  1.00  0.00     0.000 HD 
HETATM   14  H   UNL     1     -11.912   6.457  67.118  1.00  0.00     0.000 HD 
HETATM   15  O   UNL     1     -11.254   6.386  67.800  1.00  0.00    -0.323 OA 
ENDBRANCH   8  12
ENDBRANCH   6   8
ENDBRANCH   4   6
ENDBRANCH   3   4
TORSDOF 5
ENDMDL
MODEL      315
REMARK 921   NORMALIZED FREE ENERGY PREDICTED BY IDOCK:   -2.30 KCAL/MOL
REMARK 922        TOTAL FREE ENERGY PREDICTED BY IDOCK:   -3.06 KCAL/MOL
REMARK 923 INTER-LIGAND FREE ENERGY PREDICTED BY IDOCK:   -2.74 KCAL/MOL
REMARK 924 INTRA-LIGAND FREE ENERGY PREDICTED BY IDOCK:   -0.31 KCAL/MOL
REMARK 927      BINDING AFFINITY PREDICTED BY RF-SCORE:    0.00 PKD
ROOT
HETATM    1 CL   UNL     1      -7.228  10.305  66.153  1.00  0.00    -0.114 Cl 
HETATM    2  C   UNL     1      -8.842  10.495  65.420  1.00  0.00    -0.187 C  
HETATM    3  C   UNL     1      -9.881  10.915  66.453  1.00  0.00    -0.207 C  
ENDROOT
BRANCH   3   4
HETATM    4  N   UNL     1      -9.997   9.980  67.566  1.00  0.00    -0.181 N  
HETATM    5  H   UNL     1     -10.312   9.025  67.396  1.00  0.00     0.000 HD 
BRANCH   4   6
HETATM    6  C   UNL     1      -9.683  10.382  68.848  1.00  0.00    -0.198 C  
HETATM    7  O   UNL     1      -8.601  10.929  69.068  1.00  0.00    -0.156 OA 
BRANCH   6   8
HETATM    8  N   UNL     1     -10.635  10.103  69.826  1.00  0.00    -0.244 N  
BRANCH   8   9
HETATM    9  C   UNL     1     -11.045   8.766  70.282  1.00  0.00    -0.222 C  
HETATM   10 CL   UNL     1      -9.318   8.575  72.407  1.00  0.00    -0.356 Cl 
HETATM   11  C   UNL     1      -9.889   7.940  70.841  1.00  0.00    -0.178 C  
ENDBRANCH   8   9
BRANCH   8  12
HETATM   12  N   UNL     1     -11.250  11.236  70.396  1.00  0.00    -0.425 NA 
HETATM   13  H   UNL     1     -10.764  12.086  70.110  1.00  0.00     0.000 HD 
HETATM   14  H   UNL     1     -12.874  12.094  70.546  1.00  0.00     0.000 HD 
HETATM   15  O   UNL     1     -12.460  11.331  70.162  1.00  0.00    -0.275 OA 
ENDBRANCH   8  12
ENDBRANCH   6   8
ENDBRANCH   4   6
ENDBRANCH   3   4
TORSDOF 5
ENDMDL
MODEL      316
REMARK 921   NORMALIZED FREE ENERGY PREDICTED BY IDOCK:   -2.28 KCAL/MOL
REMARK 922        TOTAL FREE ENERGY PREDICTED BY IDOCK:   -3.03 KCAL/MOL
REMARK 923 INTER-LIGAND FREE ENERGY PREDICTED BY IDOCK:   -2.44 KCAL/MOL
REMARK 924 INTRA-LIGAND FREE ENERGY PREDICTED BY IDOCK:   -0.60 KCAL/MOL
REMARK 927      BINDING AFFINITY PREDICTED BY RF-SCORE:    0.00 PKD
ROOT
HETATM    1 CL   UNL     1     -10.661   4.695  65.842  1.00  0.00    -0.297 Cl 
HETATM    2  C   UNL     1      -8.918   4.918  66.140  1.00  0.00    -0.125 C  
HETATM    3  C   UNL     1      -8.595   4.877  67.629  1.00  0.00    -0.103 C  
ENDROOT
BRANCH   3   4
HETATM    4  N   UNL     1      -9.317   5.879  68.403  1.00  0.00    -0.119 N  
HETATM    5  H   UNL     1     -10.229   5.653  68.801  1.00  0.00     0.000 HD 
BRANCH   4   6
HETATM    6  C   UNL     1      -8.774   7.132  68.600  1.00  0.00    -0.127 C  
HETATM    7  O   UNL     1      -7.560   7.297  68.470  1.00  0.00    -0.111 OA 
BRANCH   6   8
HETATM    8  N   UNL     1      -9.668   8.135  68.966  1.00  0.00    -0.161 N  
BRANCH   8   9
HETATM    9  C   UNL     1      -9.921   8.616  70.333  1.00  0.00    -0.187 C  
HETATM   10 CL   UNL     1     -11.550   6.556  71.134  1.00  0.00    -0.374 Cl 
HETATM   11  C   UNL     1     -11.330   8.301  70.831  1.00  0.00    -0.268 C  
ENDBRANCH   8   9
BRANCH   8  12
HETATM   12  N   UNL     1     -10.391   8.705  67.898  1.00  0.00    -0.226 NA 
HETATM   13  H   UNL     1      -9.852   9.456  67.465  1.00  0.00     0.000 HD 
HETATM   14  H   UNL     1     -11.250   8.277  66.326  1.00  0.00     0.000 HD 
HETATM   15  O   UNL     1     -10.763   7.893  67.045  1.00  0.00    -0.339 OA 
ENDBRANCH   8  12
ENDBRANCH   6   8
ENDBRANCH   4   6
ENDBRANCH   3   4
TORSDOF 5
ENDMDL
MODEL      317
REMARK 921   NORMALIZED FREE ENERGY PREDICTED BY IDOCK:   -2.27 KCAL/MOL
REMARK 922        TOTAL FREE ENERGY PREDICTED BY IDOCK:   -3.02 KCAL/MOL
REMARK 923 INTER-LIGAND FREE ENERGY PREDICTED BY IDOCK:   -2.85 KCAL/MOL
REMARK 924 INTRA-LIGAND FREE ENERGY PREDICTED BY IDOCK:   -0.17 KCAL/MOL
REMARK 927      BINDING AFFINITY PREDICTED BY RF-SCORE:    0.00 PKD
ROOT
HETATM    1 CL   UNL     1     -11.382   1.867  63.024  1.00  0.00    -0.273 Cl 
HETATM    2  C   UNL     1     -10.558   3.422  62.742  1.00  0.00    -0.200 C  
HETATM    3  C   UNL     1      -9.690   3.819  63.931  1.00  0.00    -0.164 C  
ENDROOT
BRANCH   3   4
HETATM    4  N   UNL     1     -10.436   3.923  65.179  1.00  0.00    -0.469 N  
HETATM    5  H   UNL     1     -11.417   3.645  65.209  1.00  0.00     0.000 HD 
BRANCH   4   6
HETATM    6  C   UNL     1      -9.820   4.395  66.321  1.00  0.00    -0.231 C  
HETATM    7  O   UNL     1      -9.716   3.661  67.305  1.00  0.00    -0.198 OA 
BRANCH   6   8
HETATM    8  N   UNL     1      -9.376   5.714  66.274  1.00  0.00    -0.156 N  
BRANCH   8   9
HETATM    9  C   UNL     1      -7.975   6.159  66.281  1.00  0.00    -0.106 C  
HETATM   10 CL   UNL     1      -8.335   8.474  64.848  1.00  0.00    -0.168 Cl 
HETATM   11  C   UNL     1      -7.564   6.872  64.994  1.00  0.00    -0.104 C  
ENDBRANCH   8   9
BRANCH   8  12
HETATM   12  N   UNL     1     -10.399   6.684  66.232  1.00  0.00    -0.437 NA 
HETATM   13  H   UNL     1     -10.766   6.773  65.284  1.00  0.00     0.000 HD 
HETATM   14  H   UNL     1     -12.007   7.142  67.006  1.00  0.00     0.000 HD 
HETATM   15  O   UNL     1     -11.319   6.489  67.034  1.00  0.00    -0.342 OA 
ENDBRANCH   8  12
ENDBRANCH   6   8
ENDBRANCH   4   6
ENDBRANCH   3   4
TORSDOF 5
ENDMDL
MODEL      318
REMARK 921   NORMALIZED FREE ENERGY PREDICTED BY IDOCK:   -2.26 KCAL/MOL
REMARK 922        TOTAL FREE ENERGY PREDICTED BY IDOCK:   -3.00 KCAL/MOL
REMARK 923 INTER-LIGAND FREE ENERGY PREDICTED BY IDOCK:   -2.85 KCAL/MOL
REMARK 924 INTRA-LIGAND FREE ENERGY PREDICTED BY IDOCK:   -0.15 KCAL/MOL
REMARK 927      BINDING AFFINITY PREDICTED BY RF-SCORE:    0.00 PKD
ROOT
HETATM    1 CL   UNL     1     -10.287  18.218  68.978  1.00  0.00    -0.244 Cl 
HETATM    2  C   UNL     1     -10.513  19.201  67.509  1.00  0.00    -0.455 C  
HETATM    3  C   UNL     1     -10.437  18.349  66.247  1.00  0.00    -0.393 C  
ENDROOT
BRANCH   3   4
HETATM    4  N   UNL     1      -9.179  17.624  66.117  1.00  0.00    -0.177 N  
HETATM    5  H   UNL     1      -8.332  18.123  65.846  1.00  0.00     0.000 HD 
BRANCH   4   6
HETATM    6  C   UNL     1      -9.129  16.266  66.357  1.00  0.00    -0.301 C  
HETATM    7  O   UNL     1     -10.095  15.559  66.065  1.00  0.00    -0.286 OA 
BRANCH   6   8
HETATM    8  N   UNL     1      -7.963  15.795  66.955  1.00  0.00    -0.237 N  
BRANCH   8   9
HETATM    9  C   UNL     1      -7.668  14.396  67.298  1.00  0.00    -0.137 C  
HETATM   10 CL   UNL     1      -6.028  14.900  69.442  1.00  0.00    -0.101 Cl 
HETATM   11  C   UNL     1      -6.246  14.192  67.820  1.00  0.00    -0.140 C  
ENDBRANCH   8   9
BRANCH   8  12
HETATM   12  N   UNL     1      -7.007  16.787  67.256  1.00  0.00    -0.160 NA 
HETATM   13  H   UNL     1      -6.376  16.462  67.989  1.00  0.00     0.000 HD 
HETATM   14  H   UNL     1      -5.721  17.856  66.482  1.00  0.00     0.000 HD 
HETATM   15  O   UNL     1      -6.364  17.187  66.279  1.00  0.00    -0.217 OA 
ENDBRANCH   8  12
ENDBRANCH   6   8
ENDBRANCH   4   6
ENDBRANCH   3   4
TORSDOF 5
ENDMDL
MODEL      319
REMARK 921   NORMALIZED FREE ENERGY PREDICTED BY IDOCK:   -2.22 KCAL/MOL
REMARK 922        TOTAL FREE ENERGY PREDICTED BY IDOCK:   -2.95 KCAL/MOL
REMARK 923 INTER-LIGAND FREE ENERGY PREDICTED BY IDOCK:   -2.33 KCAL/MOL
REMARK 924 INTRA-LIGAND FREE ENERGY PREDICTED BY IDOCK:   -0.62 KCAL/MOL
REMARK 927      BINDING AFFINITY PREDICTED BY RF-SCORE:    0.00 PKD
ROOT
HETATM    1 CL   UNL     1      -6.090   6.517  70.329  1.00  0.00    -0.030 Cl 
HETATM    2  C   UNL     1      -6.604   7.351  71.819  1.00  0.00    -0.043 C  
HETATM    3  C   UNL     1      -8.103   7.624  71.819  1.00  0.00    -0.103 C  
ENDROOT
BRANCH   3   4
HETATM    4  N   UNL     1      -8.544   8.420  70.680  1.00  0.00    -0.133 N  
HETATM    5  H   UNL     1      -8.295   9.407  70.625  1.00  0.00     0.000 HD 
BRANCH   4   6
HETATM    6  C   UNL     1      -9.296   7.844  69.677  1.00  0.00    -0.153 C  
HETATM    7  O   UNL     1      -8.798   7.672  68.563  1.00  0.00    -0.131 OA 
BRANCH   6   8
HETATM    8  N   UNL     1     -10.609   7.516  70.010  1.00  0.00    -0.232 N  
BRANCH   8   9
HETATM    9  C   UNL     1     -11.219   6.182  69.923  1.00  0.00    -0.414 C  
HETATM   10 CL   UNL     1     -11.066   5.554  72.592  1.00  0.00    -0.315 Cl 
HETATM   11  C   UNL     1     -10.616   5.180  70.906  1.00  0.00    -0.132 C  
ENDBRANCH   8   9
BRANCH   8  12
HETATM   12  N   UNL     1     -11.397   8.599  70.451  1.00  0.00    -0.384 NA 
HETATM   13  H   UNL     1     -12.317   8.571  70.013  1.00  0.00     0.000 HD 
HETATM   14  H   UNL     1     -12.036   9.411  71.977  1.00  0.00     0.000 HD 
HETATM   15  O   UNL     1     -11.506   8.681  71.680  1.00  0.00    -0.265 OA 
ENDBRANCH   8  12
ENDBRANCH   6   8
ENDBRANCH   4   6
ENDBRANCH   3   4
TORSDOF 5
ENDMDL
MODEL      320
REMARK 921   NORMALIZED FREE ENERGY PREDICTED BY IDOCK:   -2.22 KCAL/MOL
REMARK 922        TOTAL FREE ENERGY PREDICTED BY IDOCK:   -2.95 KCAL/MOL
REMARK 923 INTER-LIGAND FREE ENERGY PREDICTED BY IDOCK:   -2.46 KCAL/MOL
REMARK 924 INTRA-LIGAND FREE ENERGY PREDICTED BY IDOCK:   -0.49 KCAL/MOL
REMARK 927      BINDING AFFINITY PREDICTED BY RF-SCORE:    0.00 PKD
ROOT
HETATM    1 CL   UNL     1     -10.196   9.089  71.539  1.00  0.00    -0.396 Cl 
HETATM    2  C   UNL     1      -8.666   8.837  70.659  1.00  0.00    -0.180 C  
HETATM    3  C   UNL     1      -8.500   9.844  69.527  1.00  0.00    -0.176 C  
ENDROOT
BRANCH   3   4
HETATM    4  N   UNL     1      -9.589   9.808  68.559  1.00  0.00    -0.147 N  
HETATM    5  H   UNL     1     -10.143  10.647  68.388  1.00  0.00     0.000 HD 
BRANCH   4   6
HETATM    6  C   UNL     1      -9.874   8.645  67.874  1.00  0.00    -0.173 C  
HETATM    7  O   UNL     1     -10.739   7.880  68.304  1.00  0.00    -0.147 OA 
BRANCH   6   8
HETATM    8  N   UNL     1      -9.117   8.410  66.728  1.00  0.00    -0.149 N  
BRANCH   8   9
HETATM    9  C   UNL     1      -7.874   7.629  66.654  1.00  0.00    -0.106 C  
HETATM   10 CL   UNL     1      -8.971   5.317  65.660  1.00  0.00    -0.157 Cl 
HETATM   11  C   UNL     1      -8.076   6.146  66.961  1.00  0.00    -0.106 C  
ENDBRANCH   8   9
BRANCH   8  12
HETATM   12  N   UNL     1      -9.617   9.008  65.554  1.00  0.00    -0.457 NA 
HETATM   13  H   UNL     1     -10.166   8.335  65.018  1.00  0.00     0.000 HD 
HETATM   14  H   UNL     1     -10.605  10.444  64.954  1.00  0.00     0.000 HD 
HETATM   15  O   UNL     1     -10.268  10.041  65.746  1.00  0.00    -0.265 OA 
ENDBRANCH   8  12
ENDBRANCH   6   8
ENDBRANCH   4   6
ENDBRANCH   3   4
TORSDOF 5
ENDMDL
MODEL      321
REMARK 921   NORMALIZED FREE ENERGY PREDICTED BY IDOCK:   -2.22 KCAL/MOL
REMARK 922        TOTAL FREE ENERGY PREDICTED BY IDOCK:   -2.94 KCAL/MOL
REMARK 923 INTER-LIGAND FREE ENERGY PREDICTED BY IDOCK:   -2.63 KCAL/MOL
REMARK 924 INTRA-LIGAND FREE ENERGY PREDICTED BY IDOCK:   -0.31 KCAL/MOL
REMARK 927      BINDING AFFINITY PREDICTED BY RF-SCORE:    0.00 PKD
ROOT
HETATM    1 CL   UNL     1     -10.611  14.535  65.046  1.00  0.00    -0.431 Cl 
HETATM    2  C   UNL     1     -10.537  13.031  64.091  1.00  0.00    -0.397 C  
HETATM    3  C   UNL     1     -11.330  11.910  64.752  1.00  0.00    -0.283 C  
ENDROOT
BRANCH   3   4
HETATM    4  N   UNL     1     -10.884  11.608  66.106  1.00  0.00    -0.286 N  
HETATM    5  H   UNL     1     -11.243  12.151  66.891  1.00  0.00     0.000 HD 
BRANCH   4   6
HETATM    6  C   UNL     1      -9.978  10.592  66.331  1.00  0.00    -0.222 C  
HETATM    7  O   UNL     1     -10.376   9.430  66.421  1.00  0.00    -0.242 OA 
BRANCH   6   8
HETATM    8  N   UNL     1      -8.647  10.980  66.468  1.00  0.00    -0.159 N  
BRANCH   8   9
HETATM    9  C   UNL     1      -8.164  12.219  67.095  1.00  0.00    -0.179 C  
HETATM   10 CL   UNL     1      -6.390  11.060  68.840  1.00  0.00    -0.048 Cl 
HETATM   11  C   UNL     1      -7.846  12.057  68.580  1.00  0.00    -0.129 C  
ENDBRANCH   8   9
BRANCH   8  12
HETATM   12  N   UNL     1      -7.707  10.079  65.927  1.00  0.00    -0.111 NA 
HETATM   13  H   UNL     1      -8.036   9.118  66.029  1.00  0.00     0.000 HD 
HETATM   14  H   UNL     1      -6.767   9.700  64.388  1.00  0.00     0.000 HD 
HETATM   15  O   UNL     1      -7.400  10.307  64.752  1.00  0.00    -0.143 OA 
ENDBRANCH   8  12
ENDBRANCH   6   8
ENDBRANCH   4   6
ENDBRANCH   3   4
TORSDOF 5
ENDMDL
MODEL      322
REMARK 921   NORMALIZED FREE ENERGY PREDICTED BY IDOCK:   -2.21 KCAL/MOL
REMARK 922        TOTAL FREE ENERGY PREDICTED BY IDOCK:   -2.94 KCAL/MOL
REMARK 923 INTER-LIGAND FREE ENERGY PREDICTED BY IDOCK:   -2.63 KCAL/MOL
REMARK 924 INTRA-LIGAND FREE ENERGY PREDICTED BY IDOCK:   -0.31 KCAL/MOL
REMARK 927      BINDING AFFINITY PREDICTED BY RF-SCORE:    0.00 PKD
ROOT
HETATM    1 CL   UNL     1      -7.246   9.465  67.168  1.00  0.00    -0.086 Cl 
HETATM    2  C   UNL     1      -8.925   8.923  66.909  1.00  0.00    -0.128 C  
HETATM    3  C   UNL     1      -9.759   9.058  68.177  1.00  0.00    -0.152 C  
ENDROOT
BRANCH   3   4
HETATM    4  N   UNL     1      -9.214   8.316  69.307  1.00  0.00    -0.151 N  
HETATM    5  H   UNL     1      -9.019   7.319  69.213  1.00  0.00     0.000 HD 
BRANCH   4   6
HETATM    6  C   UNL     1      -8.961   8.955  70.504  1.00  0.00    -0.192 C  
HETATM    7  O   UNL     1      -8.088   9.822  70.559  1.00  0.00    -0.222 OA 
BRANCH   6   8
HETATM    8  N   UNL     1      -9.723   8.536  71.593  1.00  0.00    -0.225 N  
BRANCH   8   9
HETATM    9  C   UNL     1     -11.135   8.860  71.840  1.00  0.00    -0.372 C  
HETATM   10 CL   UNL     1     -12.031   6.285  72.168  1.00  0.00    -0.373 Cl 
HETATM   11  C   UNL     1     -12.099   7.823  71.266  1.00  0.00    -0.306 C  
ENDBRANCH   8   9
BRANCH   8  12
HETATM   12  N   UNL     1      -9.031   7.742  72.530  1.00  0.00    -0.145 NA 
HETATM   13  H   UNL     1      -8.023   7.855  72.417  1.00  0.00     0.000 HD 
HETATM   14  H   UNL     1      -8.893   7.403  74.336  1.00  0.00     0.000 HD 
HETATM   15  O   UNL     1      -9.359   7.939  73.705  1.00  0.00    -0.278 OA 
ENDBRANCH   8  12
ENDBRANCH   6   8
ENDBRANCH   4   6
ENDBRANCH   3   4
TORSDOF 5
ENDMDL
MODEL      323
REMARK 921   NORMALIZED FREE ENERGY PREDICTED BY IDOCK:   -2.21 KCAL/MOL
REMARK 922        TOTAL FREE ENERGY PREDICTED BY IDOCK:   -2.93 KCAL/MOL
REMARK 923 INTER-LIGAND FREE ENERGY PREDICTED BY IDOCK:   -2.70 KCAL/MOL
REMARK 924 INTRA-LIGAND FREE ENERGY PREDICTED BY IDOCK:   -0.23 KCAL/MOL
REMARK 927      BINDING AFFINITY PREDICTED BY RF-SCORE:    0.00 PKD
ROOT
HETATM    1 CL   UNL     1     -10.690   5.032  66.082  1.00  0.00    -0.340 Cl 
HETATM    2  C   UNL     1      -9.360   6.134  66.526  1.00  0.00    -0.153 C  
HETATM    3  C   UNL     1      -8.929   5.937  67.974  1.00  0.00    -0.118 C  
ENDROOT
BRANCH   3   4
HETATM    4  N   UNL     1     -10.013   6.130  68.929  1.00  0.00    -0.145 N  
HETATM    5  H   UNL     1     -10.646   5.359  69.141  1.00  0.00     0.000 HD 
BRANCH   4   6
HETATM    6  C   UNL     1     -10.187   7.351  69.548  1.00  0.00    -0.204 C  
HETATM    7  O   UNL     1     -10.660   8.295  68.913  1.00  0.00    -0.211 OA 
BRANCH   6   8
HETATM    8  N   UNL     1      -9.775   7.426  70.877  1.00  0.00    -0.170 N  
BRANCH   8   9
HETATM    9  C   UNL     1     -10.475   6.854  72.036  1.00  0.00    -0.205 C  
HETATM   10 CL   UNL     1     -12.989   7.761  71.409  1.00  0.00    -0.343 Cl 
HETATM   11  C   UNL     1     -11.614   7.735  72.545  1.00  0.00    -0.367 C  
ENDBRANCH   8   9
BRANCH   8  12
HETATM   12  N   UNL     1      -8.577   8.140  71.087  1.00  0.00    -0.126 NA 
HETATM   13  H   UNL     1      -7.960   8.045  70.281  1.00  0.00     0.000 HD 
HETATM   14  H   UNL     1      -7.930   9.812  71.512  1.00  0.00     0.000 HD 
HETATM   15  O   UNL     1      -8.737   9.332  71.370  1.00  0.00    -0.317 OA 
ENDBRANCH   8  12
ENDBRANCH   6   8
ENDBRANCH   4   6
ENDBRANCH   3   4
TORSDOF 5
ENDMDL
MODEL      324
REMARK 921   NORMALIZED FREE ENERGY PREDICTED BY IDOCK:   -2.20 KCAL/MOL
REMARK 922        TOTAL FREE ENERGY PREDICTED BY IDOCK:   -2.92 KCAL/MOL
REMARK 923 INTER-LIGAND FREE ENERGY PREDICTED BY IDOCK:   -2.48 KCAL/MOL
REMARK 924 INTRA-LIGAND FREE ENERGY PREDICTED BY IDOCK:   -0.45 KCAL/MOL
REMARK 927      BINDING AFFINITY PREDICTED BY RF-SCORE:    0.00 PKD
ROOT
HETATM    1 CL   UNL     1      -9.732   7.306  68.867  1.00  0.00    -0.147 Cl 
HETATM    2  C   UNL     1      -8.453   7.953  67.807  1.00  0.00    -0.125 C  
HETATM    3  C   UNL     1      -7.687   9.086  68.481  1.00  0.00    -0.097 C  
ENDROOT
BRANCH   3   4
HETATM    4  N   UNL     1      -8.540  10.195  68.888  1.00  0.00    -0.132 N  
HETATM    5  H   UNL     1      -8.811  10.294  69.867  1.00  0.00     0.000 HD 
BRANCH   4   6
HETATM    6  C   UNL     1      -8.982  11.112  67.957  1.00  0.00    -0.149 C  
HETATM    7  O   UNL     1      -8.264  12.067  67.653  1.00  0.00    -0.138 OA 
BRANCH   6   8
HETATM    8  N   UNL     1     -10.255  10.891  67.439  1.00  0.00    -0.194 N  
BRANCH   8   9
HETATM    9  C   UNL     1     -11.519  10.936  68.190  1.00  0.00    -0.295 C  
HETATM   10 CL   UNL     1     -12.067  13.597  67.791  1.00  0.00    -0.374 Cl 
HETATM   11  C   UNL     1     -11.735  12.259  68.923  1.00  0.00    -0.328 C  
ENDBRANCH   8   9
BRANCH   8  12
HETATM   12  N   UNL     1     -10.291  10.581  66.063  1.00  0.00    -0.237 NA 
HETATM   13  H   UNL     1     -10.600   9.619  65.923  1.00  0.00     0.000 HD 
HETATM   14  H   UNL     1     -10.996  11.149  64.458  1.00  0.00     0.000 HD 
HETATM   15  O   UNL     1     -10.972  11.357  65.384  1.00  0.00    -0.262 OA 
ENDBRANCH   8  12
ENDBRANCH   6   8
ENDBRANCH   4   6
ENDBRANCH   3   4
TORSDOF 5
ENDMDL
MODEL      325
REMARK 921   NORMALIZED FREE ENERGY PREDICTED BY IDOCK:   -2.19 KCAL/MOL
REMARK 922        TOTAL FREE ENERGY PREDICTED BY IDOCK:   -2.92 KCAL/MOL
REMARK 923 INTER-LIGAND FREE ENERGY PREDICTED BY IDOCK:   -2.72 KCAL/MOL
REMARK 924 INTRA-LIGAND FREE ENERGY PREDICTED BY IDOCK:   -0.19 KCAL/MOL
REMARK 927      BINDING AFFINITY PREDICTED BY RF-SCORE:    0.00 PKD
ROOT
HETATM    1 CL   UNL     1      -9.511   2.928  69.088  1.00  0.00    -0.205 Cl 
HETATM    2  C   UNL     1      -8.815   3.491  70.630  1.00  0.00    -0.081 C  
HETATM    3  C   UNL     1      -9.810   4.333  71.419  1.00  0.00    -0.190 C  
ENDROOT
BRANCH   3   4
HETATM    4  N   UNL     1     -10.287   5.500  70.686  1.00  0.00    -0.244 N  
HETATM    5  H   UNL     1     -11.075   5.409  70.046  1.00  0.00     0.000 HD 
BRANCH   4   6
HETATM    6  C   UNL     1      -9.677   6.726  70.855  1.00  0.00    -0.178 C  
HETATM    7  O   UNL     1      -8.462   6.832  70.679  1.00  0.00    -0.134 OA 
BRANCH   6   8
HETATM    8  N   UNL     1     -10.507   7.772  71.250  1.00  0.00    -0.206 N  
BRANCH   8   9
HETATM    9  C   UNL     1     -10.969   8.045  72.619  1.00  0.00    -0.382 C  
HETATM   10 CL   UNL     1      -8.500   8.087  73.819  1.00  0.00    -0.300 Cl 
HETATM   11  C   UNL     1     -10.123   7.357  73.687  1.00  0.00    -0.325 C  
ENDBRANCH   8   9
BRANCH   8  12
HETATM   12  N   UNL     1     -10.935   8.616  70.205  1.00  0.00    -0.277 NA 
HETATM   13  H   UNL     1     -11.838   9.033  70.431  1.00  0.00     0.000 HD 
HETATM   14  H   UNL     1     -10.409  10.060  69.188  1.00  0.00     0.000 HD 
HETATM   15  O   UNL     1     -10.121   9.492  69.892  1.00  0.00    -0.202 OA 
ENDBRANCH   8  12
ENDBRANCH   6   8
ENDBRANCH   4   6
ENDBRANCH   3   4
TORSDOF 5
ENDMDL
MODEL      326
REMARK 921   NORMALIZED FREE ENERGY PREDICTED BY IDOCK:   -2.19 KCAL/MOL
REMARK 922        TOTAL FREE ENERGY PREDICTED BY IDOCK:   -2.91 KCAL/MOL
REMARK 923 INTER-LIGAND FREE ENERGY PREDICTED BY IDOCK:   -2.70 KCAL/MOL
REMARK 924 INTRA-LIGAND FREE ENERGY PREDICTED BY IDOCK:   -0.21 KCAL/MOL
REMARK 927      BINDING AFFINITY PREDICTED BY RF-SCORE:    0.00 PKD
ROOT
HETATM    1 CL   UNL     1      -8.970   8.122  73.437  1.00  0.00    -0.326 Cl 
HETATM    2  C   UNL     1      -8.634   7.560  71.779  1.00  0.00    -0.115 C  
HETATM    3  C   UNL     1      -8.296   8.722  70.852  1.00  0.00    -0.165 C  
ENDROOT
BRANCH   3   4
HETATM    4  N   UNL     1      -9.346   9.729  70.784  1.00  0.00    -0.276 N  
HETATM    5  H   UNL     1      -9.263  10.587  71.329  1.00  0.00     0.000 HD 
BRANCH   4   6
HETATM    6  C   UNL     1     -10.453   9.528  69.985  1.00  0.00    -0.247 C  
HETATM    7  O   UNL     1     -11.317   8.721  70.332  1.00  0.00    -0.256 OA 
BRANCH   6   8
HETATM    8  N   UNL     1     -10.492  10.259  68.800  1.00  0.00    -0.191 N  
BRANCH   8   9
HETATM    9  C   UNL     1      -9.890   9.866  67.517  1.00  0.00    -0.169 C  
HETATM   10 CL   UNL     1      -7.784  11.628  67.565  1.00  0.00    -0.127 Cl 
HETATM   11  C   UNL     1      -9.265  11.038  66.763  1.00  0.00    -0.161 C  
ENDBRANCH   8   9
BRANCH   8  12
HETATM   12  N   UNL     1     -11.169  11.493  68.886  1.00  0.00    -0.224 NA 
HETATM   13  H   UNL     1     -10.888  12.107  68.121  1.00  0.00     0.000 HD 
HETATM   14  H   UNL     1     -12.856  12.228  68.990  1.00  0.00     0.000 HD 
HETATM   15  O   UNL     1     -12.400  11.396  68.932  1.00  0.00    -0.446 OA 
ENDBRANCH   8  12
ENDBRANCH   6   8
ENDBRANCH   4   6
ENDBRANCH   3   4
TORSDOF 5
ENDMDL
MODEL      327
REMARK 921   NORMALIZED FREE ENERGY PREDICTED BY IDOCK:   -2.19 KCAL/MOL
REMARK 922        TOTAL FREE ENERGY PREDICTED BY IDOCK:   -2.91 KCAL/MOL
REMARK 923 INTER-LIGAND FREE ENERGY PREDICTED BY IDOCK:   -2.50 KCAL/MOL
REMARK 924 INTRA-LIGAND FREE ENERGY PREDICTED BY IDOCK:   -0.41 KCAL/MOL
REMARK 927      BINDING AFFINITY PREDICTED BY RF-SCORE:    0.00 PKD
ROOT
HETATM    1 CL   UNL     1     -12.290   9.817  71.249  1.00  0.00    -0.431 Cl 
HETATM    2  C   UNL     1     -11.844   8.113  70.971  1.00  0.00    -0.260 C  
HETATM    3  C   UNL     1     -10.367   7.970  70.624  1.00  0.00    -0.202 C  
ENDROOT
BRANCH   3   4
HETATM    4  N   UNL     1      -9.975   8.737  69.448  1.00  0.00    -0.191 N  
HETATM    5  H   UNL     1     -10.337   8.480  68.530  1.00  0.00     0.000 HD 
BRANCH   4   6
HETATM    6  C   UNL     1      -9.116   9.810  69.571  1.00  0.00    -0.216 C  
HETATM    7  O   UNL     1      -8.274   9.817  70.471  1.00  0.00    -0.209 OA 
BRANCH   6   8
HETATM    8  N   UNL     1      -9.294  10.843  68.654  1.00  0.00    -0.181 N  
BRANCH   8   9
HETATM    9  C   UNL     1      -8.230  11.550  67.926  1.00  0.00    -0.134 C  
HETATM   10 CL   UNL     1      -8.475  10.198  65.549  1.00  0.00    -0.149 Cl 
HETATM   11  C   UNL     1      -7.470  10.653  66.951  1.00  0.00    -0.115 C  
ENDBRANCH   8   9
BRANCH   8  12
HETATM   12  N   UNL     1     -10.634  11.227  68.445  1.00  0.00    -0.187 NA 
HETATM   13  H   UNL     1     -11.052  11.549  69.318  1.00  0.00     0.000 HD 
HETATM   14  H   UNL     1     -11.693  12.328  67.414  1.00  0.00     0.000 HD 
HETATM   15  O   UNL     1     -10.790  12.070  67.555  1.00  0.00    -0.224 OA 
ENDBRANCH   8  12
ENDBRANCH   6   8
ENDBRANCH   4   6
ENDBRANCH   3   4
TORSDOF 5
ENDMDL
MODEL      328
REMARK 921   NORMALIZED FREE ENERGY PREDICTED BY IDOCK:   -2.16 KCAL/MOL
REMARK 922        TOTAL FREE ENERGY PREDICTED BY IDOCK:   -2.87 KCAL/MOL
REMARK 923 INTER-LIGAND FREE ENERGY PREDICTED BY IDOCK:   -2.47 KCAL/MOL
REMARK 924 INTRA-LIGAND FREE ENERGY PREDICTED BY IDOCK:   -0.41 KCAL/MOL
REMARK 927      BINDING AFFINITY PREDICTED BY RF-SCORE:    0.00 PKD
ROOT
HETATM    1 CL   UNL     1      -9.093   7.620  73.557  1.00  0.00    -0.288 Cl 
HETATM    2  C   UNL     1     -10.725   6.908  73.643  1.00  0.00    -0.274 C  
HETATM    3  C   UNL     1     -11.210   6.454  72.271  1.00  0.00    -0.276 C  
ENDROOT
BRANCH   3   4
HETATM    4  N   UNL     1     -11.236   7.527  71.284  1.00  0.00    -0.247 N  
HETATM    5  H   UNL     1     -12.022   8.176  71.261  1.00  0.00     0.000 HD 
BRANCH   4   6
HETATM    6  C   UNL     1     -10.201   7.668  70.382  1.00  0.00    -0.203 C  
HETATM    7  O   UNL     1      -9.888   8.791  69.985  1.00  0.00    -0.171 OA 
BRANCH   6   8
HETATM    8  N   UNL     1      -9.593   6.487  69.961  1.00  0.00    -0.159 N  
BRANCH   8   9
HETATM    9  C   UNL     1      -8.243   6.030  70.320  1.00  0.00    -0.119 C  
HETATM   10 CL   UNL     1      -6.845   7.843  68.803  1.00  0.00    -0.060 Cl 
HETATM   11  C   UNL     1      -7.244   6.144  69.169  1.00  0.00    -0.083 C  
ENDBRANCH   8   9
BRANCH   8  12
HETATM   12  N   UNL     1     -10.375   5.692  69.098  1.00  0.00    -0.234 NA 
HETATM   13  H   UNL     1     -10.812   4.929  69.615  1.00  0.00     0.000 HD 
HETATM   14  H   UNL     1     -11.750   5.785  67.874  1.00  0.00     0.000 HD 
HETATM   15  O   UNL     1     -11.224   6.320  68.456  1.00  0.00    -0.352 OA 
ENDBRANCH   8  12
ENDBRANCH   6   8
ENDBRANCH   4   6
ENDBRANCH   3   4
TORSDOF 5
ENDMDL
MODEL      329
REMARK 921   NORMALIZED FREE ENERGY PREDICTED BY IDOCK:   -2.15 KCAL/MOL
REMARK 922        TOTAL FREE ENERGY PREDICTED BY IDOCK:   -2.86 KCAL/MOL
REMARK 923 INTER-LIGAND FREE ENERGY PREDICTED BY IDOCK:   -2.55 KCAL/MOL
REMARK 924 INTRA-LIGAND FREE ENERGY PREDICTED BY IDOCK:   -0.31 KCAL/MOL
REMARK 927      BINDING AFFINITY PREDICTED BY RF-SCORE:    0.00 PKD
ROOT
HETATM    1 CL   UNL     1      -8.908   8.035  73.460  1.00  0.00    -0.326 Cl 
HETATM    2  C   UNL     1      -8.818   7.293  71.841  1.00  0.00    -0.122 C  
HETATM    3  C   UNL     1      -8.268   8.269  70.808  1.00  0.00    -0.114 C  
ENDROOT
BRANCH   3   4
HETATM    4  N   UNL     1      -9.048   9.495  70.700  1.00  0.00    -0.275 N  
HETATM    5  H   UNL     1      -8.808  10.302  71.276  1.00  0.00     0.000 HD 
BRANCH   4   6
HETATM    6  C   UNL     1     -10.110   9.570  69.822  1.00  0.00    -0.216 C  
HETATM    7  O   UNL     1     -11.213   9.140  70.162  1.00  0.00    -0.242 OA 
BRANCH   6   8
HETATM    8  N   UNL     1      -9.832  10.121  68.573  1.00  0.00    -0.150 N  
BRANCH   8   9
HETATM    9  C   UNL     1      -9.503  11.528  68.299  1.00  0.00    -0.189 C  
HETATM   10 CL   UNL     1     -11.780  12.154  66.898  1.00  0.00    -0.404 Cl 
HETATM   11  C   UNL     1     -10.002  12.008  66.938  1.00  0.00    -0.202 C  
ENDBRANCH   8   9
BRANCH   8  12
HETATM   12  N   UNL     1      -9.899   9.214  67.496  1.00  0.00    -0.167 NA 
HETATM   13  H   UNL     1      -9.418   9.594  66.681  1.00  0.00     0.000 HD 
HETATM   14  H   UNL     1      -9.524   7.471  67.031  1.00  0.00     0.000 HD 
HETATM   15  O   UNL     1      -9.478   8.082  67.757  1.00  0.00    -0.142 OA 
ENDBRANCH   8  12
ENDBRANCH   6   8
ENDBRANCH   4   6
ENDBRANCH   3   4
TORSDOF 5
ENDMDL
MODEL      330
REMARK 921   NORMALIZED FREE ENERGY PREDICTED BY IDOCK:   -2.15 KCAL/MOL
REMARK 922        TOTAL FREE ENERGY PREDICTED BY IDOCK:   -2.86 KCAL/MOL
REMARK 923 INTER-LIGAND FREE ENERGY PREDICTED BY IDOCK:   -2.73 KCAL/MOL
REMARK 924 INTRA-LIGAND FREE ENERGY PREDICTED BY IDOCK:   -0.13 KCAL/MOL
REMARK 927      BINDING AFFINITY PREDICTED BY RF-SCORE:    0.00 PKD
ROOT
HETATM    1 CL   UNL     1      -9.765   6.507  71.701  1.00  0.00    -0.171 Cl 
HETATM    2  C   UNL     1     -10.872   5.986  70.404  1.00  0.00    -0.318 C  
HETATM    3  C   UNL     1     -10.187   5.027  69.436  1.00  0.00    -0.198 C  
ENDROOT
BRANCH   3   4
HETATM    4  N   UNL     1      -8.995   5.590  68.815  1.00  0.00    -0.113 N  
HETATM    5  H   UNL     1      -8.166   5.772  69.380  1.00  0.00     0.000 HD 
BRANCH   4   6
HETATM    6  C   UNL     1      -8.983   5.877  67.465  1.00  0.00    -0.107 C  
HETATM    7  O   UNL     1      -8.294   6.809  67.047  1.00  0.00    -0.112 OA 
BRANCH   6   8
HETATM    8  N   UNL     1      -9.797   5.081  66.664  1.00  0.00    -0.174 N  
BRANCH   8   9
HETATM    9  C   UNL     1      -9.471   3.740  66.156  1.00  0.00    -0.175 C  
HETATM   10 CL   UNL     1      -7.620   4.516  64.283  1.00  0.00    -0.071 Cl 
HETATM   11  C   UNL     1      -9.172   3.720  64.658  1.00  0.00    -0.145 C  
ENDBRANCH   8   9
BRANCH   8  12
HETATM   12  N   UNL     1     -11.036   5.658  66.317  1.00  0.00    -0.772 NA 
HETATM   13  H   UNL     1     -11.796   4.999  66.487  1.00  0.00     0.000 HD 
HETATM   14  H   UNL     1     -12.102   7.126  66.639  1.00  0.00     0.000 HD 
HETATM   15  O   UNL     1     -11.268   6.737  66.873  1.00  0.00    -0.375 OA 
ENDBRANCH   8  12
ENDBRANCH   6   8
ENDBRANCH   4   6
ENDBRANCH   3   4
TORSDOF 5
ENDMDL
MODEL      331
REMARK 921   NORMALIZED FREE ENERGY PREDICTED BY IDOCK:   -2.13 KCAL/MOL
REMARK 922        TOTAL FREE ENERGY PREDICTED BY IDOCK:   -2.83 KCAL/MOL
REMARK 923 INTER-LIGAND FREE ENERGY PREDICTED BY IDOCK:   -2.40 KCAL/MOL
REMARK 924 INTRA-LIGAND FREE ENERGY PREDICTED BY IDOCK:   -0.43 KCAL/MOL
REMARK 927      BINDING AFFINITY PREDICTED BY RF-SCORE:    0.00 PKD
ROOT
HETATM    1 CL   UNL     1      -8.206   4.136  65.208  1.00  0.00    -0.101 Cl 
HETATM    2  C   UNL     1      -8.575   4.988  66.730  1.00  0.00    -0.109 C  
HETATM    3  C   UNL     1      -9.544   6.143  66.504  1.00  0.00    -0.151 C  
ENDROOT
BRANCH   3   4
HETATM    4  N   UNL     1      -9.056   7.125  65.544  1.00  0.00    -0.373 N  
HETATM    5  H   UNL     1      -9.187   6.966  64.545  1.00  0.00     0.000 HD 
BRANCH   4   6
HETATM    6  C   UNL     1      -8.417   8.268  65.980  1.00  0.00    -0.139 C  
HETATM    7  O   UNL     1      -7.344   8.176  66.579  1.00  0.00    -0.078 OA 
BRANCH   6   8
HETATM    8  N   UNL     1      -9.071   9.470  65.720  1.00  0.00    -0.181 N  
BRANCH   8   9
HETATM    9  C   UNL     1      -9.367  10.526  66.699  1.00  0.00    -0.161 C  
HETATM   10 CL   UNL     1     -10.478   8.916  68.626  1.00  0.00    -0.235 Cl 
HETATM   11  C   UNL     1     -10.653  10.276  67.484  1.00  0.00    -0.268 C  
ENDBRANCH   8   9
BRANCH   8  12
HETATM   12  N   UNL     1      -9.486   9.643  64.384  1.00  0.00    -0.426 NA 
HETATM   13  H   UNL     1     -10.027  10.503  64.288  1.00  0.00     0.000 HD 
HETATM   14  H   UNL     1      -8.846   9.735  62.658  1.00  0.00     0.000 HD 
HETATM   15  O   UNL     1      -8.567   9.618  63.558  1.00  0.00    -0.178 OA 
ENDBRANCH   8  12
ENDBRANCH   6   8
ENDBRANCH   4   6
ENDBRANCH   3   4
TORSDOF 5
ENDMDL
MODEL      332
REMARK 921   NORMALIZED FREE ENERGY PREDICTED BY IDOCK:   -2.13 KCAL/MOL
REMARK 922        TOTAL FREE ENERGY PREDICTED BY IDOCK:   -2.83 KCAL/MOL
REMARK 923 INTER-LIGAND FREE ENERGY PREDICTED BY IDOCK:   -2.37 KCAL/MOL
REMARK 924 INTRA-LIGAND FREE ENERGY PREDICTED BY IDOCK:   -0.46 KCAL/MOL
REMARK 927      BINDING AFFINITY PREDICTED BY RF-SCORE:    0.00 PKD
ROOT
HETATM    1 CL   UNL     1      -9.653  11.133  66.616  1.00  0.00    -0.208 Cl 
HETATM    2  C   UNL     1     -10.995  10.904  67.767  1.00  0.00    -0.283 C  
HETATM    3  C   UNL     1     -10.887   9.570  68.495  1.00  0.00    -0.132 C  
ENDROOT
BRANCH   3   4
HETATM    4  N   UNL     1     -10.862   8.423  67.597  1.00  0.00    -0.503 N  
HETATM    5  H   UNL     1     -11.168   8.529  66.630  1.00  0.00     0.000 HD 
BRANCH   4   6
HETATM    6  C   UNL     1     -10.426   7.194  68.048  1.00  0.00    -0.201 C  
HETATM    7  O   UNL     1     -11.085   6.586  68.893  1.00  0.00    -0.304 OA 
BRANCH   6   8
HETATM    8  N   UNL     1      -9.223   6.738  67.513  1.00  0.00    -0.122 N  
BRANCH   8   9
HETATM    9  C   UNL     1      -9.053   6.035  66.233  1.00  0.00    -0.150 C  
HETATM   10 CL   UNL     1      -8.793   3.501  67.259  1.00  0.00    -0.133 Cl 
HETATM   11  C   UNL     1      -8.095   4.849  66.322  1.00  0.00    -0.107 C  
ENDBRANCH   8   9
BRANCH   8  12
HETATM   12  N   UNL     1      -8.088   6.981  68.313  1.00  0.00    -0.122 NA 
HETATM   13  H   UNL     1      -7.311   6.390  68.017  1.00  0.00     0.000 HD 
HETATM   14  H   UNL     1      -6.973   8.330  68.893  1.00  0.00     0.000 HD 
HETATM   15  O   UNL     1      -7.738   8.166  68.354  1.00  0.00    -0.108 OA 
ENDBRANCH   8  12
ENDBRANCH   6   8
ENDBRANCH   4   6
ENDBRANCH   3   4
TORSDOF 5
ENDMDL
MODEL      333
REMARK 921   NORMALIZED FREE ENERGY PREDICTED BY IDOCK:   -2.13 KCAL/MOL
REMARK 922        TOTAL FREE ENERGY PREDICTED BY IDOCK:   -2.83 KCAL/MOL
REMARK 923 INTER-LIGAND FREE ENERGY PREDICTED BY IDOCK:   -2.47 KCAL/MOL
REMARK 924 INTRA-LIGAND FREE ENERGY PREDICTED BY IDOCK:   -0.36 KCAL/MOL
REMARK 927      BINDING AFFINITY PREDICTED BY RF-SCORE:    0.00 PKD
ROOT
HETATM    1 CL   UNL     1     -10.114  12.012  67.630  1.00  0.00    -0.199 Cl 
HETATM    2  C   UNL     1     -11.549  11.915  68.683  1.00  0.00    -0.310 C  
HETATM    3  C   UNL     1     -11.225  11.238  70.009  1.00  0.00    -0.132 C  
ENDROOT
BRANCH   3   4
HETATM    4  N   UNL     1     -10.687   9.893  69.854  1.00  0.00    -0.259 N  
HETATM    5  H   UNL     1     -11.233   9.180  69.370  1.00  0.00     0.000 HD 
BRANCH   4   6
HETATM    6  C   UNL     1      -9.441   9.579  70.358  1.00  0.00    -0.262 C  
HETATM    7  O   UNL     1      -8.441  10.140  69.907  1.00  0.00    -0.176 OA 
BRANCH   6   8
HETATM    8  N   UNL     1      -9.412   8.601  71.350  1.00  0.00    -0.212 N  
BRANCH   8   9
HETATM    9  C   UNL     1      -8.245   7.801  71.747  1.00  0.00    -0.111 C  
HETATM   10 CL   UNL     1      -8.782   5.603  70.191  1.00  0.00    -0.135 Cl 
HETATM   11  C   UNL     1      -8.537   6.303  71.814  1.00  0.00    -0.133 C  
ENDBRANCH   8   9
BRANCH   8  12
HETATM   12  N   UNL     1     -10.644   8.380  72.001  1.00  0.00    -0.290 NA 
HETATM   13  H   UNL     1     -11.108   9.268  72.194  1.00  0.00     0.000 HD 
HETATM   14  H   UNL     1     -12.235   7.466  71.839  1.00  0.00     0.000 HD 
HETATM   15  O   UNL     1     -11.406   7.615  71.401  1.00  0.00    -0.250 OA 
ENDBRANCH   8  12
ENDBRANCH   6   8
ENDBRANCH   4   6
ENDBRANCH   3   4
TORSDOF 5
ENDMDL
MODEL      334
REMARK 921   NORMALIZED FREE ENERGY PREDICTED BY IDOCK:   -2.13 KCAL/MOL
REMARK 922        TOTAL FREE ENERGY PREDICTED BY IDOCK:   -2.83 KCAL/MOL
REMARK 923 INTER-LIGAND FREE ENERGY PREDICTED BY IDOCK:   -2.17 KCAL/MOL
REMARK 924 INTRA-LIGAND FREE ENERGY PREDICTED BY IDOCK:   -0.66 KCAL/MOL
REMARK 927      BINDING AFFINITY PREDICTED BY RF-SCORE:    0.00 PKD
ROOT
HETATM    1 CL   UNL     1      -9.748   9.942  69.965  1.00  0.00    -0.282 Cl 
HETATM    2  C   UNL     1     -10.961   8.783  70.569  1.00  0.00    -0.239 C  
HETATM    3  C   UNL     1     -11.071   8.830  72.088  1.00  0.00    -0.336 C  
ENDROOT
BRANCH   3   4
HETATM    4  N   UNL     1      -9.810   8.558  72.767  1.00  0.00    -0.220 N  
HETATM    5  H   UNL     1      -9.287   9.324  73.191  1.00  0.00     0.000 HD 
BRANCH   4   6
HETATM    6  C   UNL     1      -9.320   7.270  72.836  1.00  0.00    -0.154 C  
HETATM    7  O   UNL     1     -10.102   6.326  72.955  1.00  0.00    -0.175 OA 
BRANCH   6   8
HETATM    8  N   UNL     1      -7.933   7.142  72.790  1.00  0.00    -0.104 N  
BRANCH   8   9
HETATM    9  C   UNL     1      -7.171   6.282  71.873  1.00  0.00    -0.087 C  
HETATM   10 CL   UNL     1      -6.508   8.222  70.046  1.00  0.00    -0.035 Cl 
HETATM   11  C   UNL     1      -7.329   6.679  70.406  1.00  0.00    -0.082 C  
ENDBRANCH   8   9
BRANCH   8  12
HETATM   12  N   UNL     1      -7.234   7.914  73.740  1.00  0.00    -0.124 NA 
HETATM   13  H   UNL     1      -6.402   7.417  74.060  1.00  0.00     0.000 HD 
HETATM   14  H   UNL     1      -6.466   9.570  73.995  1.00  0.00     0.000 HD 
HETATM   15  O   UNL     1      -6.937   9.050  73.354  1.00  0.00    -0.336 OA 
ENDBRANCH   8  12
ENDBRANCH   6   8
ENDBRANCH   4   6
ENDBRANCH   3   4
TORSDOF 5
ENDMDL
MODEL      335
REMARK 921   NORMALIZED FREE ENERGY PREDICTED BY IDOCK:   -2.12 KCAL/MOL
REMARK 922        TOTAL FREE ENERGY PREDICTED BY IDOCK:   -2.82 KCAL/MOL
REMARK 923 INTER-LIGAND FREE ENERGY PREDICTED BY IDOCK:   -2.77 KCAL/MOL
REMARK 924 INTRA-LIGAND FREE ENERGY PREDICTED BY IDOCK:   -0.05 KCAL/MOL
REMARK 927      BINDING AFFINITY PREDICTED BY RF-SCORE:    0.00 PKD
ROOT
HETATM    1 CL   UNL     1     -10.131  14.035  67.676  1.00  0.00    -0.239 Cl 
HETATM    2  C   UNL     1     -11.466  12.976  67.152  1.00  0.00    -0.331 C  
HETATM    3  C   UNL     1     -11.174  11.512  67.460  1.00  0.00    -0.298 C  
ENDROOT
BRANCH   3   4
HETATM    4  N   UNL     1      -9.946  11.028  66.843  1.00  0.00    -0.191 N  
HETATM    5  H   UNL     1      -9.043  11.270  67.252  1.00  0.00     0.000 HD 
BRANCH   4   6
HETATM    6  C   UNL     1      -9.998  10.245  65.708  1.00  0.00    -0.271 C  
HETATM    7  O   UNL     1     -10.641  10.630  64.730  1.00  0.00    -0.291 OA 
BRANCH   6   8
HETATM    8  N   UNL     1      -9.317   9.031  65.772  1.00  0.00    -0.238 N  
BRANCH   8   9
HETATM    9  C   UNL     1      -7.876   8.831  65.558  1.00  0.00    -0.098 C  
HETATM   10 CL   UNL     1      -7.984   6.164  64.915  1.00  0.00    -0.119 Cl 
HETATM   11  C   UNL     1      -7.389   7.452  65.996  1.00  0.00    -0.075 C  
ENDBRANCH   8   9
BRANCH   8  12
HETATM   12  N   UNL     1     -10.126   7.912  66.056  1.00  0.00    -0.346 NA 
HETATM   13  H   UNL     1      -9.668   7.054  65.747  1.00  0.00     0.000 HD 
HETATM   14  H   UNL     1     -11.009   7.062  67.432  1.00  0.00     0.000 HD 
HETATM   15  O   UNL     1     -10.464   7.816  67.241  1.00  0.00    -0.272 OA 
ENDBRANCH   8  12
ENDBRANCH   6   8
ENDBRANCH   4   6
ENDBRANCH   3   4
TORSDOF 5
ENDMDL
MODEL      336
REMARK 921   NORMALIZED FREE ENERGY PREDICTED BY IDOCK:   -2.12 KCAL/MOL
REMARK 922        TOTAL FREE ENERGY PREDICTED BY IDOCK:   -2.82 KCAL/MOL
REMARK 923 INTER-LIGAND FREE ENERGY PREDICTED BY IDOCK:   -2.37 KCAL/MOL
REMARK 924 INTRA-LIGAND FREE ENERGY PREDICTED BY IDOCK:   -0.45 KCAL/MOL
REMARK 927      BINDING AFFINITY PREDICTED BY RF-SCORE:    0.00 PKD
ROOT
HETATM    1 CL   UNL     1      -6.682   4.692  67.030  1.00  0.00    -0.050 Cl 
HETATM    2  C   UNL     1      -6.831   6.198  66.087  1.00  0.00    -0.061 C  
HETATM    3  C   UNL     1      -8.188   6.859  66.299  1.00  0.00    -0.117 C  
ENDROOT
BRANCH   3   4
HETATM    4  N   UNL     1      -9.310   5.996  65.953  1.00  0.00    -0.334 N  
HETATM    5  H   UNL     1      -9.586   5.890  64.977  1.00  0.00     0.000 HD 
BRANCH   4   6
HETATM    6  C   UNL     1     -10.001   5.323  66.939  1.00  0.00    -0.194 C  
HETATM    7  O   UNL     1     -10.136   4.101  66.864  1.00  0.00    -0.167 OA 
BRANCH   6   8
HETATM    8  N   UNL     1     -10.530   6.110  67.960  1.00  0.00    -0.200 N  
BRANCH   8   9
HETATM    9  C   UNL     1     -10.427   5.845  69.403  1.00  0.00    -0.275 C  
HETATM   10 CL   UNL     1      -8.058   7.164  69.833  1.00  0.00    -0.123 Cl 
HETATM   11  C   UNL     1      -8.989   5.643  69.876  1.00  0.00    -0.129 C  
ENDBRANCH   8   9
BRANCH   8  12
HETATM   12  N   UNL     1     -11.235   7.251  67.525  1.00  0.00    -0.541 NA 
HETATM   13  H   UNL     1     -12.220   7.181  67.784  1.00  0.00     0.000 HD 
HETATM   14  H   UNL     1     -11.236   9.091  67.623  1.00  0.00     0.000 HD 
HETATM   15  O   UNL     1     -10.761   8.323  67.916  1.00  0.00    -0.178 OA 
ENDBRANCH   8  12
ENDBRANCH   6   8
ENDBRANCH   4   6
ENDBRANCH   3   4
TORSDOF 5
ENDMDL
MODEL      337
REMARK 921   NORMALIZED FREE ENERGY PREDICTED BY IDOCK:   -2.09 KCAL/MOL
REMARK 922        TOTAL FREE ENERGY PREDICTED BY IDOCK:   -2.78 KCAL/MOL
REMARK 923 INTER-LIGAND FREE ENERGY PREDICTED BY IDOCK:   -2.39 KCAL/MOL
REMARK 924 INTRA-LIGAND FREE ENERGY PREDICTED BY IDOCK:   -0.39 KCAL/MOL
REMARK 927      BINDING AFFINITY PREDICTED BY RF-SCORE:    0.00 PKD
ROOT
HETATM    1 CL   UNL     1      -8.401   7.736  70.066  1.00  0.00    -0.128 Cl 
HETATM    2  C   UNL     1      -8.214   9.443  70.546  1.00  0.00    -0.189 C  
HETATM    3  C   UNL     1      -8.582  10.388  69.408  1.00  0.00    -0.130 C  
ENDROOT
BRANCH   3   4
HETATM    4  N   UNL     1      -7.795  10.169  68.201  1.00  0.00    -0.095 N  
HETATM    5  H   UNL     1      -6.873   9.740  68.267  1.00  0.00     0.000 HD 
BRANCH   4   6
HETATM    6  C   UNL     1      -8.293  10.541  66.968  1.00  0.00    -0.128 C  
HETATM    7  O   UNL     1      -7.620  11.263  66.232  1.00  0.00    -0.125 OA 
BRANCH   6   8
HETATM    8  N   UNL     1      -9.568  10.074  66.659  1.00  0.00    -0.178 N  
BRANCH   8   9
HETATM    9  C   UNL     1     -10.838  10.742  66.976  1.00  0.00    -0.252 C  
HETATM   10 CL   UNL     1     -11.421  11.611  64.438  1.00  0.00    -0.342 Cl 
HETATM   11  C   UNL     1     -11.080  12.001  66.145  1.00  0.00    -0.322 C  
ENDBRANCH   8   9
BRANCH   8  12
HETATM   12  N   UNL     1      -9.600   8.832  65.991  1.00  0.00    -0.361 NA 
HETATM   13  H   UNL     1      -9.315   8.944  65.018  1.00  0.00     0.000 HD 
HETATM   14  H   UNL     1      -8.957   7.108  66.087  1.00  0.00     0.000 HD 
HETATM   15  O   UNL     1      -8.936   7.944  66.536  1.00  0.00    -0.144 OA 
ENDBRANCH   8  12
ENDBRANCH   6   8
ENDBRANCH   4   6
ENDBRANCH   3   4
TORSDOF 5
ENDMDL
MODEL      338
REMARK 921   NORMALIZED FREE ENERGY PREDICTED BY IDOCK:   -2.09 KCAL/MOL
REMARK 922        TOTAL FREE ENERGY PREDICTED BY IDOCK:   -2.78 KCAL/MOL
REMARK 923 INTER-LIGAND FREE ENERGY PREDICTED BY IDOCK:   -2.62 KCAL/MOL
REMARK 924 INTRA-LIGAND FREE ENERGY PREDICTED BY IDOCK:   -0.16 KCAL/MOL
REMARK 927      BINDING AFFINITY PREDICTED BY RF-SCORE:    0.00 PKD
ROOT
HETATM    1 CL   UNL     1     -12.418   9.955  71.382  1.00  0.00    -0.459 Cl 
HETATM    2  C   UNL     1     -12.818   8.264  71.782  1.00  0.00    -0.338 C  
HETATM    3  C   UNL     1     -11.586   7.488  72.232  1.00  0.00    -0.310 C  
ENDROOT
BRANCH   3   4
HETATM    4  N   UNL     1     -10.517   7.478  71.240  1.00  0.00    -0.207 N  
HETATM    5  H   UNL     1     -10.513   6.769  70.507  1.00  0.00     0.000 HD 
BRANCH   4   6
HETATM    6  C   UNL     1      -9.512   8.422  71.290  1.00  0.00    -0.186 C  
HETATM    7  O   UNL     1      -9.352   9.090  72.313  1.00  0.00    -0.333 OA 
BRANCH   6   8
HETATM    8  N   UNL     1      -8.751   8.564  70.132  1.00  0.00    -0.133 N  
BRANCH   8   9
HETATM    9  C   UNL     1      -9.195   8.275  68.760  1.00  0.00    -0.143 C  
HETATM   10 CL   UNL     1      -9.754  10.860  68.021  1.00  0.00    -0.169 Cl 
HETATM   11  C   UNL     1     -10.323   9.190  68.288  1.00  0.00    -0.214 C  
ENDBRANCH   8   9
BRANCH   8  12
HETATM   12  N   UNL     1      -7.432   9.017  70.340  1.00  0.00    -0.076 NA 
HETATM   13  H   UNL     1      -6.818   8.233  70.563  1.00  0.00     0.000 HD 
HETATM   14  H   UNL     1      -6.078   9.982  69.546  1.00  0.00     0.000 HD 
HETATM   15  O   UNL     1      -6.966   9.677  69.406  1.00  0.00    -0.051 OA 
ENDBRANCH   8  12
ENDBRANCH   6   8
ENDBRANCH   4   6
ENDBRANCH   3   4
TORSDOF 5
ENDMDL
MODEL      339
REMARK 921   NORMALIZED FREE ENERGY PREDICTED BY IDOCK:   -2.09 KCAL/MOL
REMARK 922        TOTAL FREE ENERGY PREDICTED BY IDOCK:   -2.78 KCAL/MOL
REMARK 923 INTER-LIGAND FREE ENERGY PREDICTED BY IDOCK:   -2.52 KCAL/MOL
REMARK 924 INTRA-LIGAND FREE ENERGY PREDICTED BY IDOCK:   -0.26 KCAL/MOL
REMARK 927      BINDING AFFINITY PREDICTED BY RF-SCORE:    0.00 PKD
ROOT
HETATM    1 CL   UNL     1      -6.645   8.898  71.056  1.00  0.00    -0.062 Cl 
HETATM    2  C   UNL     1      -6.722   8.348  72.750  1.00  0.00    -0.084 C  
HETATM    3  C   UNL     1      -7.261   6.926  72.853  1.00  0.00    -0.074 C  
ENDROOT
BRANCH   3   4
HETATM    4  N   UNL     1      -8.586   6.768  72.266  1.00  0.00    -0.121 N  
HETATM    5  H   UNL     1      -8.697   6.786  71.252  1.00  0.00     0.000 HD 
BRANCH   4   6
HETATM    6  C   UNL     1      -9.690   6.594  73.074  1.00  0.00    -0.159 C  
HETATM    7  O   UNL     1      -9.678   7.032  74.226  1.00  0.00    -0.275 OA 
BRANCH   6   8
HETATM    8  N   UNL     1     -10.754   5.892  72.512  1.00  0.00    -0.221 N  
BRANCH   8   9
HETATM    9  C   UNL     1     -11.942   6.479  71.876  1.00  0.00    -0.341 C  
HETATM   10 CL   UNL     1     -11.216   6.001  69.271  1.00  0.00    -0.435 Cl 
HETATM   11  C   UNL     1     -11.633   7.172  70.550  1.00  0.00    -0.290 C  
ENDBRANCH   8   9
BRANCH   8  12
HETATM   12  N   UNL     1     -10.649   4.488  72.596  1.00  0.00    -0.195 NA 
HETATM   13  H   UNL     1      -9.671   4.209  72.673  1.00  0.00     0.000 HD 
HETATM   14  H   UNL     1     -11.246   3.036  73.561  1.00  0.00     0.000 HD 
HETATM   15  O   UNL     1     -11.316   3.982  73.505  1.00  0.00    -0.262 OA 
ENDBRANCH   8  12
ENDBRANCH   6   8
ENDBRANCH   4   6
ENDBRANCH   3   4
TORSDOF 5
ENDMDL
MODEL      340
REMARK 921   NORMALIZED FREE ENERGY PREDICTED BY IDOCK:   -2.09 KCAL/MOL
REMARK 922        TOTAL FREE ENERGY PREDICTED BY IDOCK:   -2.78 KCAL/MOL
REMARK 923 INTER-LIGAND FREE ENERGY PREDICTED BY IDOCK:   -2.67 KCAL/MOL
REMARK 924 INTRA-LIGAND FREE ENERGY PREDICTED BY IDOCK:   -0.11 KCAL/MOL
REMARK 927      BINDING AFFINITY PREDICTED BY RF-SCORE:    0.00 PKD
ROOT
HETATM    1 CL   UNL     1     -11.558  13.640  68.977  1.00  0.00    -0.329 Cl 
HETATM    2  C   UNL     1     -10.185  13.182  67.936  1.00  0.00    -0.233 C  
HETATM    3  C   UNL     1     -10.538  12.011  67.026  1.00  0.00    -0.227 C  
ENDROOT
BRANCH   3   4
HETATM    4  N   UNL     1     -10.968  10.825  67.755  1.00  0.00    -0.275 N  
HETATM    5  H   UNL     1     -11.955  10.698  67.980  1.00  0.00     0.000 HD 
BRANCH   4   6
HETATM    6  C   UNL     1     -10.047   9.873  68.141  1.00  0.00    -0.165 C  
HETATM    7  O   UNL     1      -8.850  10.053  67.911  1.00  0.00    -0.125 OA 
BRANCH   6   8
HETATM    8  N   UNL     1     -10.566   8.736  68.758  1.00  0.00    -0.186 N  
BRANCH   8   9
HETATM    9  C   UNL     1     -10.321   7.343  68.357  1.00  0.00    -0.194 C  
HETATM   10 CL   UNL     1      -8.441   6.754  70.270  1.00  0.00    -0.134 Cl 
HETATM   11  C   UNL     1      -8.868   6.910  68.545  1.00  0.00    -0.124 C  
ENDBRANCH   8   9
BRANCH   8  12
HETATM   12  N   UNL     1     -11.413   8.991  69.856  1.00  0.00    -0.444 NA 
HETATM   13  H   UNL     1     -12.278   8.458  69.768  1.00  0.00     0.000 HD 
HETATM   14  H   UNL     1     -11.462   8.962  71.698  1.00  0.00     0.000 HD 
HETATM   15  O   UNL     1     -10.892   8.790  70.958  1.00  0.00    -0.233 OA 
ENDBRANCH   8  12
ENDBRANCH   6   8
ENDBRANCH   4   6
ENDBRANCH   3   4
TORSDOF 5
ENDMDL
MODEL      341
REMARK 921   NORMALIZED FREE ENERGY PREDICTED BY IDOCK:   -2.08 KCAL/MOL
REMARK 922        TOTAL FREE ENERGY PREDICTED BY IDOCK:   -2.77 KCAL/MOL
REMARK 923 INTER-LIGAND FREE ENERGY PREDICTED BY IDOCK:   -2.31 KCAL/MOL
REMARK 924 INTRA-LIGAND FREE ENERGY PREDICTED BY IDOCK:   -0.46 KCAL/MOL
REMARK 927      BINDING AFFINITY PREDICTED BY RF-SCORE:    0.00 PKD
ROOT
HETATM    1 CL   UNL     1     -11.317   8.186  71.703  1.00  0.00    -0.297 Cl 
HETATM    2  C   UNL     1     -10.622   6.554  71.884  1.00  0.00    -0.210 C  
HETATM    3  C   UNL     1      -9.453   6.335  70.930  1.00  0.00    -0.172 C  
ENDROOT
BRANCH   3   4
HETATM    4  N   UNL     1      -9.810   6.521  69.530  1.00  0.00    -0.151 N  
HETATM    5  H   UNL     1     -10.222   7.402  69.224  1.00  0.00     0.000 HD 
BRANCH   4   6
HETATM    6  C   UNL     1      -9.593   5.510  68.615  1.00  0.00    -0.135 C  
HETATM    7  O   UNL     1      -9.736   4.336  68.959  1.00  0.00    -0.174 OA 
BRANCH   6   8
HETATM    8  N   UNL     1      -9.191   5.914  67.344  1.00  0.00    -0.110 N  
BRANCH   8   9
HETATM    9  C   UNL     1      -7.804   6.065  66.879  1.00  0.00    -0.101 C  
HETATM   10 CL   UNL     1      -7.703   3.798  65.333  1.00  0.00    -0.081 Cl 
HETATM   11  C   UNL     1      -7.075   4.732  66.717  1.00  0.00    -0.072 C  
ENDBRANCH   8   9
BRANCH   8  12
HETATM   12  N   UNL     1     -10.244   6.209  66.454  1.00  0.00    -0.400 NA 
HETATM   13  H   UNL     1     -10.499   5.380  65.918  1.00  0.00     0.000 HD 
HETATM   14  H   UNL     1     -11.951   6.899  66.393  1.00  0.00     0.000 HD 
HETATM   15  O   UNL     1     -11.242   6.700  66.992  1.00  0.00    -0.404 OA 
ENDBRANCH   8  12
ENDBRANCH   6   8
ENDBRANCH   4   6
ENDBRANCH   3   4
TORSDOF 5
ENDMDL
MODEL      342
REMARK 921   NORMALIZED FREE ENERGY PREDICTED BY IDOCK:   -2.06 KCAL/MOL
REMARK 922        TOTAL FREE ENERGY PREDICTED BY IDOCK:   -2.74 KCAL/MOL
REMARK 923 INTER-LIGAND FREE ENERGY PREDICTED BY IDOCK:   -2.66 KCAL/MOL
REMARK 924 INTRA-LIGAND FREE ENERGY PREDICTED BY IDOCK:   -0.08 KCAL/MOL
REMARK 927      BINDING AFFINITY PREDICTED BY RF-SCORE:    0.00 PKD
ROOT
HETATM    1 CL   UNL     1     -11.032   5.996  67.542  1.00  0.00    -0.382 Cl 
HETATM    2  C   UNL     1      -9.668   7.048  67.083  1.00  0.00    -0.161 C  
HETATM    3  C   UNL     1      -8.582   7.055  68.152  1.00  0.00    -0.128 C  
ENDROOT
BRANCH   3   4
HETATM    4  N   UNL     1      -9.063   7.483  69.460  1.00  0.00    -0.143 N  
HETATM    5  H   UNL     1      -9.648   8.315  69.538  1.00  0.00     0.000 HD 
BRANCH   4   6
HETATM    6  C   UNL     1      -8.730   6.769  70.592  1.00  0.00    -0.143 C  
HETATM    7  O   UNL     1      -7.897   5.864  70.520  1.00  0.00    -0.097 OA 
BRANCH   6   8
HETATM    8  N   UNL     1      -9.404   7.124  71.759  1.00  0.00    -0.147 N  
BRANCH   8   9
HETATM    9  C   UNL     1      -9.541   8.483  72.302  1.00  0.00    -0.307 C  
HETATM   10 CL   UNL     1     -12.230   8.779  71.834  1.00  0.00    -0.399 Cl 
HETATM   11  C   UNL     1     -10.559   9.334  71.546  1.00  0.00    -0.335 C  
ENDBRANCH   8   9
BRANCH   8  12
HETATM   12  N   UNL     1      -9.982   6.047  72.461  1.00  0.00    -0.175 NA 
HETATM   13  H   UNL     1     -10.166   6.312  73.429  1.00  0.00     0.000 HD 
HETATM   14  H   UNL     1     -11.392   4.862  72.412  1.00  0.00     0.000 HD 
HETATM   15  O   UNL     1     -11.003   5.588  71.938  1.00  0.00    -0.244 OA 
ENDBRANCH   8  12
ENDBRANCH   6   8
ENDBRANCH   4   6
ENDBRANCH   3   4
TORSDOF 5
ENDMDL
MODEL      343
REMARK 921   NORMALIZED FREE ENERGY PREDICTED BY IDOCK:   -2.03 KCAL/MOL
REMARK 922        TOTAL FREE ENERGY PREDICTED BY IDOCK:   -2.70 KCAL/MOL
REMARK 923 INTER-LIGAND FREE ENERGY PREDICTED BY IDOCK:   -2.35 KCAL/MOL
REMARK 924 INTRA-LIGAND FREE ENERGY PREDICTED BY IDOCK:   -0.35 KCAL/MOL
REMARK 927      BINDING AFFINITY PREDICTED BY RF-SCORE:    0.00 PKD
ROOT
HETATM    1 CL   UNL     1     -11.018   6.341  67.536  1.00  0.00    -0.434 Cl 
HETATM    2  C   UNL     1      -9.853   5.562  66.433  1.00  0.00    -0.167 C  
HETATM    3  C   UNL     1      -8.699   6.496  66.088  1.00  0.00    -0.147 C  
ENDROOT
BRANCH   3   4
HETATM    4  N   UNL     1      -9.132   7.746  65.477  1.00  0.00    -0.386 N  
HETATM    5  H   UNL     1      -9.931   8.249  65.862  1.00  0.00     0.000 HD 
BRANCH   4   6
HETATM    6  C   UNL     1      -8.466   8.252  64.379  1.00  0.00    -0.005 C  
HETATM    7  O   UNL     1      -8.155   7.500  63.455  1.00  0.00    -0.112 OA 
BRANCH   6   8
HETATM    8  N   UNL     1      -8.168   9.613  64.421  1.00  0.00    -0.146 N  
BRANCH   8   9
HETATM    9  C   UNL     1      -7.549  10.332  65.543  1.00  0.00    -0.149 C  
HETATM   10 CL   UNL     1      -9.847  10.790  66.975  1.00  0.00    -0.212 Cl 
HETATM   11  C   UNL     1      -8.433  11.444  66.105  1.00  0.00    -0.105 C  
ENDBRANCH   8   9
BRANCH   8  12
HETATM   12  N   UNL     1      -8.523  10.333  63.262  1.00  0.00    -0.171 NA 
HETATM   13  H   UNL     1      -8.048   9.950  62.445  1.00  0.00     0.000 HD 
HETATM   14  H   UNL     1      -9.979  10.890  62.279  1.00  0.00     0.000 HD 
HETATM   15  O   UNL     1      -9.740  10.404  63.060  1.00  0.00    -0.318 OA 
ENDBRANCH   8  12
ENDBRANCH   6   8
ENDBRANCH   4   6
ENDBRANCH   3   4
TORSDOF 5
ENDMDL
MODEL      344
REMARK 921   NORMALIZED FREE ENERGY PREDICTED BY IDOCK:   -2.03 KCAL/MOL
REMARK 922        TOTAL FREE ENERGY PREDICTED BY IDOCK:   -2.70 KCAL/MOL
REMARK 923 INTER-LIGAND FREE ENERGY PREDICTED BY IDOCK:   -2.25 KCAL/MOL
REMARK 924 INTRA-LIGAND FREE ENERGY PREDICTED BY IDOCK:   -0.45 KCAL/MOL
REMARK 927      BINDING AFFINITY PREDICTED BY RF-SCORE:    0.00 PKD
ROOT
HETATM    1 CL   UNL     1     -10.765   5.307  74.074  1.00  0.00    -0.319 Cl 
HETATM    2  C   UNL     1     -10.847   3.985  72.880  1.00  0.00    -0.099 C  
HETATM    3  C   UNL     1      -9.500   3.756  72.205  1.00  0.00    -0.129 C  
ENDROOT
BRANCH   3   4
HETATM    4  N   UNL     1      -8.983   4.940  71.532  1.00  0.00    -0.133 N  
HETATM    5  H   UNL     1      -8.170   5.426  71.911  1.00  0.00     0.000 HD 
BRANCH   4   6
HETATM    6  C   UNL     1      -9.589   5.409  70.384  1.00  0.00    -0.175 C  
HETATM    7  O   UNL     1     -10.096   4.612  69.593  1.00  0.00    -0.233 OA 
BRANCH   6   8
HETATM    8  N   UNL     1      -9.553   6.789  70.194  1.00  0.00    -0.161 N  
BRANCH   8   9
HETATM    9  C   UNL     1     -10.711   7.695  70.197  1.00  0.00    -0.240 C  
HETATM   10 CL   UNL     1     -10.534   8.497  67.577  1.00  0.00    -0.329 Cl 
HETATM   11  C   UNL     1     -10.515   8.923  69.309  1.00  0.00    -0.224 C  
ENDBRANCH   8   9
BRANCH   8  12
HETATM   12  N   UNL     1      -8.269   7.323  69.966  1.00  0.00    -0.130 NA 
HETATM   13  H   UNL     1      -8.325   8.131  69.346  1.00  0.00     0.000 HD 
HETATM   14  H   UNL     1      -6.782   7.971  70.841  1.00  0.00     0.000 HD 
HETATM   15  O   UNL     1      -7.647   7.611  70.995  1.00  0.00    -0.080 OA 
ENDBRANCH   8  12
ENDBRANCH   6   8
ENDBRANCH   4   6
ENDBRANCH   3   4
TORSDOF 5
ENDMDL
MODEL      345
REMARK 921   NORMALIZED FREE ENERGY PREDICTED BY IDOCK:   -2.02 KCAL/MOL
REMARK 922        TOTAL FREE ENERGY PREDICTED BY IDOCK:   -2.69 KCAL/MOL
REMARK 923 INTER-LIGAND FREE ENERGY PREDICTED BY IDOCK:   -2.20 KCAL/MOL
REMARK 924 INTRA-LIGAND FREE ENERGY PREDICTED BY IDOCK:   -0.49 KCAL/MOL
REMARK 927      BINDING AFFINITY PREDICTED BY RF-SCORE:    0.00 PKD
ROOT
HETATM    1 CL   UNL     1      -9.132   2.824  65.466  1.00  0.00    -0.145 Cl 
HETATM    2  C   UNL     1      -9.025   3.224  67.200  1.00  0.00    -0.157 C  
HETATM    3  C   UNL     1      -9.878   4.439  67.547  1.00  0.00    -0.128 C  
ENDROOT
BRANCH   3   4
HETATM    4  N   UNL     1      -9.522   5.629  66.786  1.00  0.00    -0.135 N  
HETATM    5  H   UNL     1      -8.788   5.580  66.079  1.00  0.00     0.000 HD 
BRANCH   4   6
HETATM    6  C   UNL     1     -10.173   6.824  67.016  1.00  0.00    -0.237 C  
HETATM    7  O   UNL     1     -11.401   6.840  67.116  1.00  0.00    -0.330 OA 
BRANCH   6   8
HETATM    8  N   UNL     1      -9.364   7.955  67.094  1.00  0.00    -0.147 N  
BRANCH   8   9
HETATM    9  C   UNL     1      -9.559   9.214  66.359  1.00  0.00    -0.245 C  
HETATM   10 CL   UNL     1      -9.665  10.879  68.539  1.00  0.00    -0.176 Cl 
HETATM   11  C   UNL     1     -10.461  10.205  67.093  1.00  0.00    -0.246 C  
ENDBRANCH   8   9
BRANCH   8  12
HETATM   12  N   UNL     1      -8.257   7.835  67.958  1.00  0.00    -0.122 NA 
HETATM   13  H   UNL     1      -7.758   8.722  68.022  1.00  0.00     0.000 HD 
HETATM   14  H   UNL     1      -7.788   7.331  69.667  1.00  0.00     0.000 HD 
HETATM   15  O   UNL     1      -8.534   7.413  69.085  1.00  0.00    -0.131 OA 
ENDBRANCH   8  12
ENDBRANCH   6   8
ENDBRANCH   4   6
ENDBRANCH   3   4
TORSDOF 5
ENDMDL
MODEL      346
REMARK 921   NORMALIZED FREE ENERGY PREDICTED BY IDOCK:   -2.00 KCAL/MOL
REMARK 922        TOTAL FREE ENERGY PREDICTED BY IDOCK:   -2.67 KCAL/MOL
REMARK 923 INTER-LIGAND FREE ENERGY PREDICTED BY IDOCK:   -2.16 KCAL/MOL
REMARK 924 INTRA-LIGAND FREE ENERGY PREDICTED BY IDOCK:   -0.51 KCAL/MOL
REMARK 927      BINDING AFFINITY PREDICTED BY RF-SCORE:    0.00 PKD
ROOT
HETATM    1 CL   UNL     1      -6.695  10.461  67.236  1.00  0.00    -0.075 Cl 
HETATM    2  C   UNL     1      -7.813   9.487  66.246  1.00  0.00    -0.100 C  
HETATM    3  C   UNL     1      -9.105   9.183  66.997  1.00  0.00    -0.123 C  
ENDROOT
BRANCH   3   4
HETATM    4  N   UNL     1      -8.888   8.483  68.257  1.00  0.00    -0.142 N  
HETATM    5  H   UNL     1      -8.272   7.670  68.286  1.00  0.00     0.000 HD 
BRANCH   4   6
HETATM    6  C   UNL     1      -9.513   8.914  69.409  1.00  0.00    -0.161 C  
HETATM    7  O   UNL     1      -9.676  10.120  69.600  1.00  0.00    -0.228 OA 
BRANCH   6   8
HETATM    8  N   UNL     1      -9.898   7.918  70.304  1.00  0.00    -0.184 N  
BRANCH   8   9
HETATM    9  C   UNL     1     -11.158   7.161  70.271  1.00  0.00    -0.274 C  
HETATM   10 CL   UNL     1     -10.072   4.693  69.753  1.00  0.00    -0.298 Cl 
HETATM   11  C   UNL     1     -11.150   6.023  69.252  1.00  0.00    -0.354 C  
ENDBRANCH   8   9
BRANCH   8  12
HETATM   12  N   UNL     1      -8.969   7.651  71.331  1.00  0.00    -0.132 NA 
HETATM   13  H   UNL     1      -9.236   6.810  71.842  1.00  0.00     0.000 HD 
HETATM   14  H   UNL     1      -7.171   7.392  71.641  1.00  0.00     0.000 HD 
HETATM   15  O   UNL     1      -7.797   7.571  70.949  1.00  0.00    -0.092 OA 
ENDBRANCH   8  12
ENDBRANCH   6   8
ENDBRANCH   4   6
ENDBRANCH   3   4
TORSDOF 5
ENDMDL
MODEL      347
REMARK 921   NORMALIZED FREE ENERGY PREDICTED BY IDOCK:   -1.98 KCAL/MOL
REMARK 922        TOTAL FREE ENERGY PREDICTED BY IDOCK:   -2.64 KCAL/MOL
REMARK 923 INTER-LIGAND FREE ENERGY PREDICTED BY IDOCK:   -2.17 KCAL/MOL
REMARK 924 INTRA-LIGAND FREE ENERGY PREDICTED BY IDOCK:   -0.47 KCAL/MOL
REMARK 927      BINDING AFFINITY PREDICTED BY RF-SCORE:    0.00 PKD
ROOT
HETATM    1 CL   UNL     1      -8.023  10.041  66.959  1.00  0.00    -0.106 Cl 
HETATM    2  C   UNL     1      -9.737  10.450  66.689  1.00  0.00    -0.190 C  
HETATM    3  C   UNL     1     -10.660   9.331  67.157  1.00  0.00    -0.216 C  
ENDROOT
BRANCH   3   4
HETATM    4  N   UNL     1     -10.393   8.054  66.508  1.00  0.00    -0.468 N  
HETATM    5  H   UNL     1     -10.599   7.936  65.516  1.00  0.00     0.000 HD 
BRANCH   4   6
HETATM    6  C   UNL     1      -9.863   7.004  67.230  1.00  0.00    -0.166 C  
HETATM    7  O   UNL     1     -10.088   6.919  68.438  1.00  0.00    -0.156 OA 
BRANCH   6   8
HETATM    8  N   UNL     1      -9.070   6.110  66.513  1.00  0.00    -0.144 N  
BRANCH   8   9
HETATM    9  C   UNL     1      -7.601   6.120  66.439  1.00  0.00    -0.094 C  
HETATM   10 CL   UNL     1      -7.390   6.926  63.823  1.00  0.00    -0.073 Cl 
HETATM   11  C   UNL     1      -7.066   5.696  65.072  1.00  0.00    -0.064 C  
ENDBRANCH   8   9
BRANCH   8  12
HETATM   12  N   UNL     1      -9.782   5.129  65.795  1.00  0.00    -0.282 NA 
HETATM   13  H   UNL     1      -9.386   4.204  65.966  1.00  0.00     0.000 HD 
HETATM   14  H   UNL     1     -11.479   4.462  65.525  1.00  0.00     0.000 HD 
HETATM   15  O   UNL     1     -10.999   5.123  66.010  1.00  0.00    -0.214 OA 
ENDBRANCH   8  12
ENDBRANCH   6   8
ENDBRANCH   4   6
ENDBRANCH   3   4
TORSDOF 5
ENDMDL
MODEL      348
REMARK 921   NORMALIZED FREE ENERGY PREDICTED BY IDOCK:   -1.98 KCAL/MOL
REMARK 922        TOTAL FREE ENERGY PREDICTED BY IDOCK:   -2.64 KCAL/MOL
REMARK 923 INTER-LIGAND FREE ENERGY PREDICTED BY IDOCK:   -2.26 KCAL/MOL
REMARK 924 INTRA-LIGAND FREE ENERGY PREDICTED BY IDOCK:   -0.38 KCAL/MOL
REMARK 927      BINDING AFFINITY PREDICTED BY RF-SCORE:    0.00 PKD
ROOT
HETATM    1 CL   UNL     1     -11.180   1.717  63.160  1.00  0.00    -0.261 Cl 
HETATM    2  C   UNL     1     -10.241   3.230  63.258  1.00  0.00    -0.177 C  
HETATM    3  C   UNL     1      -9.183   3.162  64.353  1.00  0.00    -0.135 C  
ENDROOT
BRANCH   3   4
HETATM    4  N   UNL     1      -9.737   2.887  65.673  1.00  0.00    -0.375 N  
HETATM    5  H   UNL     1     -10.055   1.946  65.904  1.00  0.00     0.000 HD 
BRANCH   4   6
HETATM    6  C   UNL     1      -9.833   3.894  66.612  1.00  0.00    -0.090 C  
HETATM    7  O   UNL     1     -10.543   4.875  66.383  1.00  0.00    -0.297 OA 
BRANCH   6   8
HETATM    8  N   UNL     1      -9.075   3.725  67.768  1.00  0.00    -0.142 N  
BRANCH   8   9
HETATM    9  C   UNL     1      -8.812   4.749  68.791  1.00  0.00    -0.098 C  
HETATM   10 CL   UNL     1      -9.725   3.325  70.954  1.00  0.00    -0.232 Cl 
HETATM   11  C   UNL     1      -9.854   4.764  69.908  1.00  0.00    -0.221 C  
ENDBRANCH   8   9
BRANCH   8  12
HETATM   12  N   UNL     1      -8.512   2.442  67.927  1.00  0.00    -0.073 NA 
HETATM   13  H   UNL     1      -7.877   2.429  68.725  1.00  0.00     0.000 HD 
HETATM   14  H   UNL     1      -8.962   0.667  68.126  1.00  0.00     0.000 HD 
HETATM   15  O   UNL     1      -9.341   1.531  68.020  1.00  0.00    -0.154 OA 
ENDBRANCH   8  12
ENDBRANCH   6   8
ENDBRANCH   4   6
ENDBRANCH   3   4
TORSDOF 5
ENDMDL
MODEL      349
REMARK 921   NORMALIZED FREE ENERGY PREDICTED BY IDOCK:   -1.94 KCAL/MOL
REMARK 922        TOTAL FREE ENERGY PREDICTED BY IDOCK:   -2.60 KCAL/MOL
REMARK 923 INTER-LIGAND FREE ENERGY PREDICTED BY IDOCK:   -2.18 KCAL/MOL
REMARK 924 INTRA-LIGAND FREE ENERGY PREDICTED BY IDOCK:   -0.41 KCAL/MOL
REMARK 927      BINDING AFFINITY PREDICTED BY RF-SCORE:    0.00 PKD
ROOT
HETATM    1 CL   UNL     1      -8.170   5.168  66.141  1.00  0.00    -0.108 Cl 
HETATM    2  C   UNL     1      -9.892   4.852  66.478  1.00  0.00    -0.207 C  
HETATM    3  C   UNL     1     -10.290   5.340  67.865  1.00  0.00    -0.125 C  
ENDROOT
BRANCH   3   4
HETATM    4  N   UNL     1      -9.503   4.740  68.935  1.00  0.00    -0.135 N  
HETATM    5  H   UNL     1      -8.825   4.010  68.718  1.00  0.00     0.000 HD 
BRANCH   4   6
HETATM    6  C   UNL     1      -9.671   5.155  70.241  1.00  0.00    -0.203 C  
HETATM    7  O   UNL     1      -9.988   4.335  71.104  1.00  0.00    -0.189 OA 
BRANCH   6   8
HETATM    8  N   UNL     1      -9.489   6.515  70.478  1.00  0.00    -0.165 N  
BRANCH   8   9
HETATM    9  C   UNL     1     -10.547   7.500  70.742  1.00  0.00    -0.220 C  
HETATM   10 CL   UNL     1     -10.146   7.729  73.448  1.00  0.00    -0.372 Cl 
HETATM   11  C   UNL     1     -11.228   7.304  72.095  1.00  0.00    -0.252 C  
ENDBRANCH   8   9
BRANCH   8  12
HETATM   12  N   UNL     1      -8.148   6.950  70.437  1.00  0.00    -0.114 NA 
HETATM   13  H   UNL     1      -7.595   6.465  71.143  1.00  0.00     0.000 HD 
HETATM   14  H   UNL     1      -6.711   7.143  69.299  1.00  0.00     0.000 HD 
HETATM   15  O   UNL     1      -7.614   6.850  69.327  1.00  0.00    -0.092 OA 
ENDBRANCH   8  12
ENDBRANCH   6   8
ENDBRANCH   4   6
ENDBRANCH   3   4
TORSDOF 5
ENDMDL
MODEL      350
REMARK 921   NORMALIZED FREE ENERGY PREDICTED BY IDOCK:   -1.93 KCAL/MOL
REMARK 922        TOTAL FREE ENERGY PREDICTED BY IDOCK:   -2.58 KCAL/MOL
REMARK 923 INTER-LIGAND FREE ENERGY PREDICTED BY IDOCK:   -1.95 KCAL/MOL
REMARK 924 INTRA-LIGAND FREE ENERGY PREDICTED BY IDOCK:   -0.63 KCAL/MOL
REMARK 927      BINDING AFFINITY PREDICTED BY RF-SCORE:    0.00 PKD
ROOT
HETATM    1 CL   UNL     1      -6.646   6.434  70.328  1.00  0.00    -0.044 Cl 
HETATM    2  C   UNL     1      -7.715   6.956  71.656  1.00  0.00    -0.095 C  
HETATM    3  C   UNL     1      -9.166   7.056  71.200  1.00  0.00    -0.157 C  
ENDROOT
BRANCH   3   4
HETATM    4  N   UNL     1      -9.356   7.970  70.081  1.00  0.00    -0.156 N  
HETATM    5  H   UNL     1      -8.954   8.907  70.116  1.00  0.00     0.000 HD 
BRANCH   4   6
HETATM    6  C   UNL     1     -10.078   7.575  68.973  1.00  0.00    -0.192 C  
HETATM    7  O   UNL     1     -11.028   6.802  69.109  1.00  0.00    -0.249 OA 
BRANCH   6   8
HETATM    8  N   UNL     1      -9.644   8.079  67.749  1.00  0.00    -0.148 N  
BRANCH   8   9
HETATM    9  C   UNL     1     -10.395   8.985  66.868  1.00  0.00    -0.254 C  
HETATM   10 CL   UNL     1      -9.748  11.329  68.141  1.00  0.00    -0.179 Cl 
HETATM   11  C   UNL     1     -11.000  10.177  67.606  1.00  0.00    -0.268 C  
ENDBRANCH   8   9
BRANCH   8  12
HETATM   12  N   UNL     1      -8.365   7.642  67.348  1.00  0.00    -0.115 NA 
HETATM   13  H   UNL     1      -8.344   7.482  66.341  1.00  0.00     0.000 HD 
HETATM   14  H   UNL     1      -6.581   8.097  67.415  1.00  0.00     0.000 HD 
HETATM   15  O   UNL     1      -7.442   8.391  67.685  1.00  0.00    -0.091 OA 
ENDBRANCH   8  12
ENDBRANCH   6   8
ENDBRANCH   4   6
ENDBRANCH   3   4
TORSDOF 5
ENDMDL
MODEL      351
REMARK 921   NORMALIZED FREE ENERGY PREDICTED BY IDOCK:   -1.93 KCAL/MOL
REMARK 922        TOTAL FREE ENERGY PREDICTED BY IDOCK:   -2.57 KCAL/MOL
REMARK 923 INTER-LIGAND FREE ENERGY PREDICTED BY IDOCK:   -2.44 KCAL/MOL
REMARK 924 INTRA-LIGAND FREE ENERGY PREDICTED BY IDOCK:   -0.13 KCAL/MOL
REMARK 927      BINDING AFFINITY PREDICTED BY RF-SCORE:    0.00 PKD
ROOT
HETATM    1 CL   UNL     1      -8.163   7.853  69.374  1.00  0.00    -0.128 Cl 
HETATM    2  C   UNL     1      -7.198   9.275  69.847  1.00  0.00    -0.071 C  
HETATM    3  C   UNL     1      -7.884  10.576  69.445  1.00  0.00    -0.147 C  
ENDROOT
BRANCH   3   4
HETATM    4  N   UNL     1      -8.153  10.668  68.016  1.00  0.00    -0.110 N  
HETATM    5  H   UNL     1      -7.623  10.093  67.361  1.00  0.00     0.000 HD 
BRANCH   4   6
HETATM    6  C   UNL     1      -9.123  11.529  67.544  1.00  0.00    -0.166 C  
HETATM    7  O   UNL     1      -8.896  12.214  66.545  1.00  0.00    -0.204 OA 
BRANCH   6   8
HETATM    8  N   UNL     1     -10.308  11.574  68.275  1.00  0.00    -0.190 N  
BRANCH   8   9
HETATM    9  C   UNL     1     -11.357  10.544  68.292  1.00  0.00    -0.264 C  
HETATM   10 CL   UNL     1     -11.894  10.634  70.983  1.00  0.00    -0.423 Cl 
HETATM   11  C   UNL     1     -11.351   9.699  69.564  1.00  0.00    -0.040 C  
ENDBRANCH   8   9
BRANCH   8  12
HETATM   12  N   UNL     1     -10.486  12.740  69.046  1.00  0.00    -0.434 NA 
HETATM   13  H   UNL     1      -9.629  13.295  69.056  1.00  0.00     0.000 HD 
HETATM   14  H   UNL     1     -11.567  14.222  69.223  1.00  0.00     0.000 HD 
HETATM   15  O   UNL     1     -11.447  13.437  68.703  1.00  0.00    -0.265 OA 
ENDBRANCH   8  12
ENDBRANCH   6   8
ENDBRANCH   4   6
ENDBRANCH   3   4
TORSDOF 5
ENDMDL
MODEL      352
REMARK 921   NORMALIZED FREE ENERGY PREDICTED BY IDOCK:   -1.93 KCAL/MOL
REMARK 922        TOTAL FREE ENERGY PREDICTED BY IDOCK:   -2.57 KCAL/MOL
REMARK 923 INTER-LIGAND FREE ENERGY PREDICTED BY IDOCK:   -2.42 KCAL/MOL
REMARK 924 INTRA-LIGAND FREE ENERGY PREDICTED BY IDOCK:   -0.15 KCAL/MOL
REMARK 927      BINDING AFFINITY PREDICTED BY RF-SCORE:    0.00 PKD
ROOT
HETATM    1 CL   UNL     1     -10.926   9.583  67.586  1.00  0.00    -0.248 Cl 
HETATM    2  C   UNL     1     -10.397   8.025  66.898  1.00  0.00    -0.338 C  
HETATM    3  C   UNL     1     -10.508   6.897  67.917  1.00  0.00    -0.212 C  
ENDROOT
BRANCH   3   4
HETATM    4  N   UNL     1      -9.740   7.139  69.131  1.00  0.00    -0.157 N  
HETATM    5  H   UNL     1      -9.251   8.025  69.254  1.00  0.00     0.000 HD 
BRANCH   4   6
HETATM    6  C   UNL     1      -9.670   6.174  70.116  1.00  0.00    -0.163 C  
HETATM    7  O   UNL     1      -9.185   5.072  69.856  1.00  0.00    -0.114 OA 
BRANCH   6   8
HETATM    8  N   UNL     1     -10.195   6.528  71.356  1.00  0.00    -0.196 N  
BRANCH   8   9
HETATM    9  C   UNL     1     -10.166   5.709  72.577  1.00  0.00    -0.190 C  
HETATM   10 CL   UNL     1      -8.059   6.978  73.799  1.00  0.00    -0.131 Cl 
HETATM   11  C   UNL     1      -8.754   5.484  73.116  1.00  0.00    -0.120 C  
ENDBRANCH   8   9
BRANCH   8  12
HETATM   12  N   UNL     1     -10.818   7.792  71.398  1.00  0.00    -0.227 NA 
HETATM   13  H   UNL     1     -11.832   7.691  71.353  1.00  0.00     0.000 HD 
HETATM   14  H   UNL     1     -10.915   9.338  72.396  1.00  0.00     0.000 HD 
HETATM   15  O   UNL     1     -10.496   8.487  72.368  1.00  0.00    -0.322 OA 
ENDBRANCH   8  12
ENDBRANCH   6   8
ENDBRANCH   4   6
ENDBRANCH   3   4
TORSDOF 5
ENDMDL
MODEL      353
REMARK 921   NORMALIZED FREE ENERGY PREDICTED BY IDOCK:   -1.92 KCAL/MOL
REMARK 922        TOTAL FREE ENERGY PREDICTED BY IDOCK:   -2.57 KCAL/MOL
REMARK 923 INTER-LIGAND FREE ENERGY PREDICTED BY IDOCK:   -3.07 KCAL/MOL
REMARK 924 INTRA-LIGAND FREE ENERGY PREDICTED BY IDOCK:    0.50 KCAL/MOL
REMARK 927      BINDING AFFINITY PREDICTED BY RF-SCORE:    0.00 PKD
ROOT
HETATM    1 CL   UNL     1      -9.776   4.929  68.436  1.00  0.00    -0.204 Cl 
HETATM    2  C   UNL     1     -10.359   6.114  67.239  1.00  0.00    -0.219 C  
HETATM    3  C   UNL     1      -9.846   7.516  67.543  1.00  0.00    -0.162 C  
ENDROOT
BRANCH   3   4
HETATM    4  N   UNL     1     -10.219   7.992  68.869  1.00  0.00    -0.206 N  
HETATM    5  H   UNL     1     -10.451   7.321  69.602  1.00  0.00     0.000 HD 
BRANCH   4   6
HETATM    6  C   UNL     1     -10.262   9.345  69.138  1.00  0.00    -0.202 C  
HETATM    7  O   UNL     1      -9.991   9.751  70.269  1.00  0.00    -0.248 OA 
BRANCH   6   8
HETATM    8  N   UNL     1     -10.646  10.165  68.079  1.00  0.00    -0.213 N  
BRANCH   8   9
HETATM    9  C   UNL     1      -9.894  10.387  66.836  1.00  0.00    -0.191 C  
HETATM   10 CL   UNL     1      -8.289  12.416  67.754  1.00  0.00    -0.153 Cl 
HETATM   11  C   UNL     1      -9.532  11.852  66.605  1.00  0.00    -0.209 C  
ENDBRANCH   8   9
BRANCH   8  12
HETATM   12  N   UNL     1     -11.870  10.840  68.266  1.00  0.00    -0.765 NA 
HETATM   13  H   UNL     1     -12.594  10.188  68.566  1.00  0.00     0.000 HD 
HETATM   14  H   UNL     1     -12.632  12.257  69.163  1.00  0.00     0.000 HD 
HETATM   15  O   UNL     1     -11.808  11.803  69.038  1.00  0.00    -0.295 OA 
ENDBRANCH   8  12
ENDBRANCH   6   8
ENDBRANCH   4   6
ENDBRANCH   3   4
TORSDOF 5
ENDMDL
MODEL      354
REMARK 921   NORMALIZED FREE ENERGY PREDICTED BY IDOCK:   -1.92 KCAL/MOL
REMARK 922        TOTAL FREE ENERGY PREDICTED BY IDOCK:   -2.56 KCAL/MOL
REMARK 923 INTER-LIGAND FREE ENERGY PREDICTED BY IDOCK:   -2.13 KCAL/MOL
REMARK 924 INTRA-LIGAND FREE ENERGY PREDICTED BY IDOCK:   -0.44 KCAL/MOL
REMARK 927      BINDING AFFINITY PREDICTED BY RF-SCORE:    0.00 PKD
ROOT
HETATM    1 CL   UNL     1     -10.507   1.477  63.281  1.00  0.00    -0.129 Cl 
HETATM    2  C   UNL     1     -10.346   3.229  62.990  1.00  0.00    -0.172 C  
HETATM    3  C   UNL     1      -9.557   3.911  64.103  1.00  0.00    -0.165 C  
ENDROOT
BRANCH   3   4
HETATM    4  N   UNL     1     -10.144   3.724  65.423  1.00  0.00    -0.402 N  
HETATM    5  H   UNL     1     -10.619   2.850  65.649  1.00  0.00     0.000 HD 
BRANCH   4   6
HETATM    6  C   UNL     1     -10.061   4.724  66.370  1.00  0.00    -0.262 C  
HETATM    7  O   UNL     1     -11.012   5.492  66.531  1.00  0.00    -0.250 OA 
BRANCH   6   8
HETATM    8  N   UNL     1      -8.860   4.803  67.072  1.00  0.00    -0.107 N  
BRANCH   8   9
HETATM    9  C   UNL     1      -7.785   5.779  66.844  1.00  0.00    -0.101 C  
HETATM   10 CL   UNL     1      -8.073   7.171  69.193  1.00  0.00    -0.119 Cl 
HETATM   11  C   UNL     1      -8.099   7.163  67.409  1.00  0.00    -0.112 C  
ENDBRANCH   8   9
BRANCH   8  12
HETATM   12  N   UNL     1      -8.694   3.827  68.075  1.00  0.00    -0.098 NA 
HETATM   13  H   UNL     1      -8.700   4.261  68.998  1.00  0.00     0.000 HD 
HETATM   14  H   UNL     1      -9.401   2.245  68.703  1.00  0.00     0.000 HD 
HETATM   15  O   UNL     1      -9.513   2.903  68.027  1.00  0.00    -0.208 OA 
ENDBRANCH   8  12
ENDBRANCH   6   8
ENDBRANCH   4   6
ENDBRANCH   3   4
TORSDOF 5
ENDMDL
MODEL      355
REMARK 921   NORMALIZED FREE ENERGY PREDICTED BY IDOCK:   -1.92 KCAL/MOL
REMARK 922        TOTAL FREE ENERGY PREDICTED BY IDOCK:   -2.56 KCAL/MOL
REMARK 923 INTER-LIGAND FREE ENERGY PREDICTED BY IDOCK:   -2.07 KCAL/MOL
REMARK 924 INTRA-LIGAND FREE ENERGY PREDICTED BY IDOCK:   -0.49 KCAL/MOL
REMARK 927      BINDING AFFINITY PREDICTED BY RF-SCORE:    0.00 PKD
ROOT
HETATM    1 CL   UNL     1      -9.239   6.745  71.745  1.00  0.00    -0.147 Cl 
HETATM    2  C   UNL     1     -10.798   6.515  70.910  1.00  0.00    -0.253 C  
HETATM    3  C   UNL     1     -10.626   5.740  69.609  1.00  0.00    -0.326 C  
ENDROOT
BRANCH   3   4
HETATM    4  N   UNL     1      -9.704   6.376  68.677  1.00  0.00    -0.123 N  
HETATM    5  H   UNL     1      -8.756   6.604  68.977  1.00  0.00     0.000 HD 
BRANCH   4   6
HETATM    6  C   UNL     1     -10.106   6.671  67.390  1.00  0.00    -0.164 C  
HETATM    7  O   UNL     1     -11.262   7.046  67.184  1.00  0.00    -0.315 OA 
BRANCH   6   8
HETATM    8  N   UNL     1      -9.149   6.490  66.394  1.00  0.00    -0.153 N  
BRANCH   8   9
HETATM    9  C   UNL     1      -8.457   7.554  65.653  1.00  0.00    -0.132 C  
HETATM   10 CL   UNL     1      -6.401   7.940  67.432  1.00  0.00    -0.054 Cl 
HETATM   11  C   UNL     1      -7.812   8.599  66.562  1.00  0.00    -0.099 C  
ENDBRANCH   8   9
BRANCH   8  12
HETATM   12  N   UNL     1      -8.858   5.145  66.088  1.00  0.00    -0.128 NA 
HETATM   13  H   UNL     1      -7.875   4.944  66.272  1.00  0.00     0.000 HD 
HETATM   14  H   UNL     1      -9.385   3.418  66.455  1.00  0.00     0.000 HD 
HETATM   15  O   UNL     1      -9.581   4.324  66.662  1.00  0.00    -0.173 OA 
ENDBRANCH   8  12
ENDBRANCH   6   8
ENDBRANCH   4   6
ENDBRANCH   3   4
TORSDOF 5
ENDMDL
MODEL      356
REMARK 921   NORMALIZED FREE ENERGY PREDICTED BY IDOCK:   -1.91 KCAL/MOL
REMARK 922        TOTAL FREE ENERGY PREDICTED BY IDOCK:   -2.55 KCAL/MOL
REMARK 923 INTER-LIGAND FREE ENERGY PREDICTED BY IDOCK:   -2.07 KCAL/MOL
REMARK 924 INTRA-LIGAND FREE ENERGY PREDICTED BY IDOCK:   -0.48 KCAL/MOL
REMARK 927      BINDING AFFINITY PREDICTED BY RF-SCORE:    0.00 PKD
ROOT
HETATM    1 CL   UNL     1     -11.562   7.699  71.534  1.00  0.00    -0.287 Cl 
HETATM    2  C   UNL     1      -9.781   7.648  71.575  1.00  0.00    -0.165 C  
HETATM    3  C   UNL     1      -9.180   9.048  71.531  1.00  0.00    -0.190 C  
ENDROOT
BRANCH   3   4
HETATM    4  N   UNL     1      -9.583   9.812  70.357  1.00  0.00    -0.352 N  
HETATM    5  H   UNL     1     -10.502  10.252  70.329  1.00  0.00     0.000 HD 
BRANCH   4   6
HETATM    6  C   UNL     1      -8.726   9.942  69.283  1.00  0.00    -0.169 C  
HETATM    7  O   UNL     1      -7.772   9.171  69.167  1.00  0.00    -0.078 OA 
BRANCH   6   8
HETATM    8  N   UNL     1      -9.006  10.985  68.402  1.00  0.00    -0.152 N  
BRANCH   8   9
HETATM    9  C   UNL     1      -8.630  12.395  68.580  1.00  0.00    -0.060 C  
HETATM   10 CL   UNL     1      -6.178  12.261  67.352  1.00  0.00    -0.141 Cl 
HETATM   11  C   UNL     1      -7.135  12.593  68.820  1.00  0.00    -0.087 C  
ENDBRANCH   8   9
BRANCH   8  12
HETATM   12  N   UNL     1      -9.732  10.612  67.252  1.00  0.00    -0.166 NA 
HETATM   13  H   UNL     1      -9.096  10.402  66.483  1.00  0.00     0.000 HD 
HETATM   14  H   UNL     1     -11.010   9.427  66.654  1.00  0.00     0.000 HD 
HETATM   15  O   UNL     1     -10.520   9.677  67.429  1.00  0.00    -0.228 OA 
ENDBRANCH   8  12
ENDBRANCH   6   8
ENDBRANCH   4   6
ENDBRANCH   3   4
TORSDOF 5
ENDMDL
MODEL      357
REMARK 921   NORMALIZED FREE ENERGY PREDICTED BY IDOCK:   -1.89 KCAL/MOL
REMARK 922        TOTAL FREE ENERGY PREDICTED BY IDOCK:   -2.53 KCAL/MOL
REMARK 923 INTER-LIGAND FREE ENERGY PREDICTED BY IDOCK:   -2.22 KCAL/MOL
REMARK 924 INTRA-LIGAND FREE ENERGY PREDICTED BY IDOCK:   -0.31 KCAL/MOL
REMARK 927      BINDING AFFINITY PREDICTED BY RF-SCORE:    0.00 PKD
ROOT
HETATM    1 CL   UNL     1      -9.507   2.223  68.770  1.00  0.00    -0.224 Cl 
HETATM    2  C   UNL     1      -9.160   2.166  70.518  1.00  0.00    -0.098 C  
HETATM    3  C   UNL     1      -9.750   3.368  71.246  1.00  0.00    -0.157 C  
ENDROOT
BRANCH   3   4
HETATM    4  N   UNL     1      -9.273   4.645  70.732  1.00  0.00    -0.132 N  
HETATM    5  H   UNL     1      -8.509   4.667  70.056  1.00  0.00     0.000 HD 
BRANCH   4   6
HETATM    6  C   UNL     1      -9.848   5.826  71.155  1.00  0.00    -0.180 C  
HETATM    7  O   UNL     1     -11.047   5.852  71.439  1.00  0.00    -0.276 OA 
BRANCH   6   8
HETATM    8  N   UNL     1      -9.005   6.934  71.203  1.00  0.00    -0.143 N  
BRANCH   8   9
HETATM    9  C   UNL     1      -8.294   7.533  70.065  1.00  0.00    -0.136 C  
HETATM   10 CL   UNL     1     -10.393   9.000  69.074  1.00  0.00    -0.226 Cl 
HETATM   11  C   UNL     1      -9.178   7.717  68.832  1.00  0.00    -0.139 C  
ENDBRANCH   8   9
BRANCH   8  12
HETATM   12  N   UNL     1      -8.832   7.493  72.486  1.00  0.00    -0.127 NA 
HETATM   13  H   UNL     1      -7.931   7.216  72.876  1.00  0.00     0.000 HD 
HETATM   14  H   UNL     1      -8.847   9.097  73.392  1.00  0.00     0.000 HD 
HETATM   15  O   UNL     1      -8.963   8.721  72.528  1.00  0.00    -0.386 OA 
ENDBRANCH   8  12
ENDBRANCH   6   8
ENDBRANCH   4   6
ENDBRANCH   3   4
TORSDOF 5
ENDMDL
MODEL      358
REMARK 921   NORMALIZED FREE ENERGY PREDICTED BY IDOCK:   -1.89 KCAL/MOL
REMARK 922        TOTAL FREE ENERGY PREDICTED BY IDOCK:   -2.53 KCAL/MOL
REMARK 923 INTER-LIGAND FREE ENERGY PREDICTED BY IDOCK:   -2.09 KCAL/MOL
REMARK 924 INTRA-LIGAND FREE ENERGY PREDICTED BY IDOCK:   -0.44 KCAL/MOL
REMARK 927      BINDING AFFINITY PREDICTED BY RF-SCORE:    0.00 PKD
ROOT
HETATM    1 CL   UNL     1      -8.222   8.271  69.500  1.00  0.00    -0.117 Cl 
HETATM    2  C   UNL     1      -7.033   9.390  70.216  1.00  0.00    -0.087 C  
HETATM    3  C   UNL     1      -7.140  10.784  69.608  1.00  0.00    -0.136 C  
ENDROOT
BRANCH   3   4
HETATM    4  N   UNL     1      -6.961  10.798  68.162  1.00  0.00    -0.071 N  
HETATM    5  H   UNL     1      -6.844   9.920  67.657  1.00  0.00     0.000 HD 
BRANCH   4   6
HETATM    6  C   UNL     1      -6.949  11.994  67.474  1.00  0.00    -0.130 C  
HETATM    7  O   UNL     1      -5.920  12.358  66.901  1.00  0.00    -0.273 OA 
BRANCH   6   8
HETATM    8  N   UNL     1      -8.132  12.729  67.505  1.00  0.00    -0.168 N  
BRANCH   8   9
HETATM    9  C   UNL     1      -8.314  14.056  68.112  1.00  0.00    -0.164 C  
HETATM   10 CL   UNL     1      -9.308  15.325  65.889  1.00  0.00    -0.354 Cl 
HETATM   11  C   UNL     1      -8.043  15.204  67.142  1.00  0.00    -0.214 C  
ENDBRANCH   8   9
BRANCH   8  12
HETATM   12  N   UNL     1      -9.238  12.099  66.899  1.00  0.00    -0.197 NA 
HETATM   13  H   UNL     1      -8.925  11.421  66.204  1.00  0.00     0.000 HD 
HETATM   14  H   UNL     1     -10.766  11.145  67.287  1.00  0.00     0.000 HD 
HETATM   15  O   UNL     1     -10.021  11.570  67.695  1.00  0.00    -0.180 OA 
ENDBRANCH   8  12
ENDBRANCH   6   8
ENDBRANCH   4   6
ENDBRANCH   3   4
TORSDOF 5
ENDMDL
MODEL      359
REMARK 921   NORMALIZED FREE ENERGY PREDICTED BY IDOCK:   -1.89 KCAL/MOL
REMARK 922        TOTAL FREE ENERGY PREDICTED BY IDOCK:   -2.52 KCAL/MOL
REMARK 923 INTER-LIGAND FREE ENERGY PREDICTED BY IDOCK:   -1.89 KCAL/MOL
REMARK 924 INTRA-LIGAND FREE ENERGY PREDICTED BY IDOCK:   -0.63 KCAL/MOL
REMARK 927      BINDING AFFINITY PREDICTED BY RF-SCORE:    0.00 PKD
ROOT
HETATM    1 CL   UNL     1     -10.785   4.633  65.723  1.00  0.00    -0.303 Cl 
HETATM    2  C   UNL     1      -9.246   4.859  66.596  1.00  0.00    -0.126 C  
HETATM    3  C   UNL     1      -9.456   4.873  68.105  1.00  0.00    -0.137 C  
ENDROOT
BRANCH   3   4
HETATM    4  N   UNL     1     -10.384   5.906  68.549  1.00  0.00    -0.192 N  
HETATM    5  H   UNL     1     -11.219   5.646  69.073  1.00  0.00     0.000 HD 
BRANCH   4   6
HETATM    6  C   UNL     1     -10.136   7.233  68.264  1.00  0.00    -0.170 C  
HETATM    7  O   UNL     1     -10.780   7.796  67.378  1.00  0.00    -0.278 OA 
BRANCH   6   8
HETATM    8  N   UNL     1      -9.127   7.839  69.008  1.00  0.00    -0.145 N  
BRANCH   8   9
HETATM    9  C   UNL     1      -7.719   7.982  68.608  1.00  0.00    -0.105 C  
HETATM   10 CL   UNL     1      -6.677   6.106  70.321  1.00  0.00    -0.048 Cl 
HETATM   11  C   UNL     1      -6.743   7.801  69.769  1.00  0.00    -0.039 C  
ENDBRANCH   8   9
BRANCH   8  12
HETATM   12  N   UNL     1      -9.532   8.337  70.263  1.00  0.00    -0.163 NA 
HETATM   13  H   UNL     1     -10.241   9.061  70.147  1.00  0.00     0.000 HD 
HETATM   14  H   UNL     1     -10.198   7.805  71.897  1.00  0.00     0.000 HD 
HETATM   15  O   UNL     1      -9.926   7.470  71.052  1.00  0.00    -0.186 OA 
ENDBRANCH   8  12
ENDBRANCH   6   8
ENDBRANCH   4   6
ENDBRANCH   3   4
TORSDOF 5
ENDMDL
MODEL      360
REMARK 921   NORMALIZED FREE ENERGY PREDICTED BY IDOCK:   -1.88 KCAL/MOL
REMARK 922        TOTAL FREE ENERGY PREDICTED BY IDOCK:   -2.52 KCAL/MOL
REMARK 923 INTER-LIGAND FREE ENERGY PREDICTED BY IDOCK:   -2.16 KCAL/MOL
REMARK 924 INTRA-LIGAND FREE ENERGY PREDICTED BY IDOCK:   -0.35 KCAL/MOL
REMARK 927      BINDING AFFINITY PREDICTED BY RF-SCORE:    0.00 PKD
ROOT
HETATM    1 CL   UNL     1      -9.189   2.227  68.515  1.00  0.00    -0.215 Cl 
HETATM    2  C   UNL     1      -9.265   3.420  69.838  1.00  0.00    -0.152 C  
HETATM    3  C   UNL     1      -9.869   4.738  69.368  1.00  0.00    -0.212 C  
ENDROOT
BRANCH   3   4
HETATM    4  N   UNL     1      -9.144   5.341  68.257  1.00  0.00    -0.109 N  
HETATM    5  H   UNL     1      -8.166   5.606  68.373  1.00  0.00     0.000 HD 
BRANCH   4   6
HETATM    6  C   UNL     1      -9.775   5.555  67.048  1.00  0.00    -0.146 C  
HETATM    7  O   UNL     1     -11.000   5.680  67.014  1.00  0.00    -0.237 OA 
BRANCH   6   8
HETATM    8  N   UNL     1      -8.950   5.588  65.926  1.00  0.00    -0.153 N  
BRANCH   8   9
HETATM    9  C   UNL     1      -8.410   4.422  65.211  1.00  0.00    -0.112 C  
HETATM   10 CL   UNL     1     -10.745   3.646  63.994  1.00  0.00    -0.280 Cl 
HETATM   11  C   UNL     1      -9.404   3.267  65.107  1.00  0.00    -0.149 C  
ENDBRANCH   8   9
BRANCH   8  12
HETATM   12  N   UNL     1      -8.612   6.880  65.475  1.00  0.00    -0.278 NA 
HETATM   13  H   UNL     1      -7.975   7.331  66.132  1.00  0.00     0.000 HD 
HETATM   14  H   UNL     1      -7.923   7.786  64.027  1.00  0.00     0.000 HD 
HETATM   15  O   UNL     1      -8.149   6.916  64.330  1.00  0.00    -0.120 OA 
ENDBRANCH   8  12
ENDBRANCH   6   8
ENDBRANCH   4   6
ENDBRANCH   3   4
TORSDOF 5
ENDMDL
MODEL      361
REMARK 921   NORMALIZED FREE ENERGY PREDICTED BY IDOCK:   -1.88 KCAL/MOL
REMARK 922        TOTAL FREE ENERGY PREDICTED BY IDOCK:   -2.51 KCAL/MOL
REMARK 923 INTER-LIGAND FREE ENERGY PREDICTED BY IDOCK:   -2.23 KCAL/MOL
REMARK 924 INTRA-LIGAND FREE ENERGY PREDICTED BY IDOCK:   -0.28 KCAL/MOL
REMARK 927      BINDING AFFINITY PREDICTED BY RF-SCORE:    0.00 PKD
ROOT
HETATM    1 CL   UNL     1      -7.752   8.923  70.954  1.00  0.00    -0.119 Cl 
HETATM    2  C   UNL     1      -9.483   8.873  71.377  1.00  0.00    -0.274 C  
HETATM    3  C   UNL     1      -9.696   8.390  72.807  1.00  0.00    -0.228 C  
ENDROOT
BRANCH   3   4
HETATM    4  N   UNL     1      -9.130   7.071  73.060  1.00  0.00    -0.130 N  
HETATM    5  H   UNL     1      -8.124   6.967  73.189  1.00  0.00     0.000 HD 
BRANCH   4   6
HETATM    6  C   UNL     1      -9.950   5.963  73.126  1.00  0.00    -0.177 C  
HETATM    7  O   UNL     1     -10.947   5.984  73.849  1.00  0.00    -0.103 OA 
BRANCH   6   8
HETATM    8  N   UNL     1      -9.555   4.865  72.365  1.00  0.00    -0.144 N  
BRANCH   8   9
HETATM    9  C   UNL     1      -9.069   4.901  70.978  1.00  0.00    -0.140 C  
HETATM   10 CL   UNL     1     -11.236   6.181  69.881  1.00  0.00    -0.475 Cl 
HETATM   11  C   UNL     1     -10.184   4.742  69.946  1.00  0.00    -0.168 C  
ENDBRANCH   8   9
BRANCH   8  12
HETATM   12  N   UNL     1      -9.660   3.621  73.018  1.00  0.00    -0.116 NA 
HETATM   13  H   UNL     1      -9.616   3.745  74.030  1.00  0.00     0.000 HD 
HETATM   14  H   UNL     1     -10.732   2.127  73.147  1.00  0.00     0.000 HD 
HETATM   15  O   UNL     1     -10.661   2.966  72.707  1.00  0.00    -0.154 OA 
ENDBRANCH   8  12
ENDBRANCH   6   8
ENDBRANCH   4   6
ENDBRANCH   3   4
TORSDOF 5
ENDMDL
MODEL      362
REMARK 921   NORMALIZED FREE ENERGY PREDICTED BY IDOCK:   -1.87 KCAL/MOL
REMARK 922        TOTAL FREE ENERGY PREDICTED BY IDOCK:   -2.49 KCAL/MOL
REMARK 923 INTER-LIGAND FREE ENERGY PREDICTED BY IDOCK:   -2.52 KCAL/MOL
REMARK 924 INTRA-LIGAND FREE ENERGY PREDICTED BY IDOCK:    0.02 KCAL/MOL
REMARK 927      BINDING AFFINITY PREDICTED BY RF-SCORE:    0.00 PKD
ROOT
HETATM    1 CL   UNL     1      -8.356   6.502  65.883  1.00  0.00    -0.134 Cl 
HETATM    2  C   UNL     1      -9.005   7.431  67.260  1.00  0.00    -0.124 C  
HETATM    3  C   UNL     1     -10.207   8.273  66.849  1.00  0.00    -0.318 C  
ENDROOT
BRANCH   3   4
HETATM    4  N   UNL     1      -9.915   9.209  65.771  1.00  0.00    -0.434 N  
HETATM    5  H   UNL     1      -9.838   8.870  64.812  1.00  0.00     0.000 HD 
BRANCH   4   6
HETATM    6  C   UNL     1      -9.740  10.551  66.041  1.00  0.00    -0.205 C  
HETATM    7  O   UNL     1      -9.515  11.334  65.117  1.00  0.00    -0.219 OA 
BRANCH   6   8
HETATM    8  N   UNL     1      -9.810  10.918  67.383  1.00  0.00    -0.171 N  
BRANCH   8   9
HETATM    9  C   UNL     1      -8.744  10.759  68.383  1.00  0.00    -0.142 C  
HETATM   10 CL   UNL     1      -6.770  12.077  67.002  1.00  0.00    -0.131 Cl 
HETATM   11  C   UNL     1      -7.360  10.575  67.762  1.00  0.00    -0.086 C  
ENDBRANCH   8   9
BRANCH   8  12
HETATM   12  N   UNL     1     -11.042  11.476  67.782  1.00  0.00    -0.240 NA 
HETATM   13  H   UNL     1     -11.135  12.426  67.424  1.00  0.00     0.000 HD 
HETATM   14  H   UNL     1     -12.859  11.176  67.745  1.00  0.00     0.000 HD 
HETATM   15  O   UNL     1     -12.030  10.800  67.476  1.00  0.00    -0.313 OA 
ENDBRANCH   8  12
ENDBRANCH   6   8
ENDBRANCH   4   6
ENDBRANCH   3   4
TORSDOF 5
ENDMDL
MODEL      363
REMARK 921   NORMALIZED FREE ENERGY PREDICTED BY IDOCK:   -1.87 KCAL/MOL
REMARK 922        TOTAL FREE ENERGY PREDICTED BY IDOCK:   -2.49 KCAL/MOL
REMARK 923 INTER-LIGAND FREE ENERGY PREDICTED BY IDOCK:   -2.51 KCAL/MOL
REMARK 924 INTRA-LIGAND FREE ENERGY PREDICTED BY IDOCK:    0.01 KCAL/MOL
REMARK 927      BINDING AFFINITY PREDICTED BY RF-SCORE:    0.00 PKD
ROOT
HETATM    1 CL   UNL     1      -8.468   6.620  66.296  1.00  0.00    -0.124 Cl 
HETATM    2  C   UNL     1      -8.416   6.363  68.059  1.00  0.00    -0.118 C  
HETATM    3  C   UNL     1      -9.707   6.819  68.729  1.00  0.00    -0.132 C  
ENDROOT
BRANCH   3   4
HETATM    4  N   UNL     1     -10.019   8.221  68.486  1.00  0.00    -0.185 N  
HETATM    5  H   UNL     1     -10.685   8.474  67.756  1.00  0.00     0.000 HD 
BRANCH   4   6
HETATM    6  C   UNL     1      -9.417   9.209  69.239  1.00  0.00    -0.158 C  
HETATM    7  O   UNL     1      -8.909  10.180  68.676  1.00  0.00    -0.125 OA 
BRANCH   6   8
HETATM    8  N   UNL     1      -9.409   9.008  70.617  1.00  0.00    -0.213 N  
BRANCH   8   9
HETATM    9  C   UNL     1     -10.554   9.173  71.525  1.00  0.00    -0.358 C  
HETATM   10 CL   UNL     1      -9.548   7.721  73.626  1.00  0.00    -0.336 Cl 
HETATM   11  C   UNL     1     -10.816   7.944  72.392  1.00  0.00    -0.317 C  
ENDBRANCH   8   9
BRANCH   8  12
HETATM   12  N   UNL     1      -8.163   8.624  71.154  1.00  0.00    -0.139 NA 
HETATM   13  H   UNL     1      -7.637   8.075  70.474  1.00  0.00     0.000 HD 
HETATM   14  H   UNL     1      -6.640   9.305  71.936  1.00  0.00     0.000 HD 
HETATM   15  O   UNL     1      -7.479   9.564  71.574  1.00  0.00    -0.303 OA 
ENDBRANCH   8  12
ENDBRANCH   6   8
ENDBRANCH   4   6
ENDBRANCH   3   4
TORSDOF 5
ENDMDL
MODEL      364
REMARK 921   NORMALIZED FREE ENERGY PREDICTED BY IDOCK:   -1.86 KCAL/MOL
REMARK 922        TOTAL FREE ENERGY PREDICTED BY IDOCK:   -2.49 KCAL/MOL
REMARK 923 INTER-LIGAND FREE ENERGY PREDICTED BY IDOCK:   -2.02 KCAL/MOL
REMARK 924 INTRA-LIGAND FREE ENERGY PREDICTED BY IDOCK:   -0.46 KCAL/MOL
REMARK 927      BINDING AFFINITY PREDICTED BY RF-SCORE:    0.00 PKD
ROOT
HETATM    1 CL   UNL     1     -10.469   1.870  73.130  1.00  0.00    -0.198 Cl 
HETATM    2  C   UNL     1      -8.849   2.614  73.132  1.00  0.00    -0.078 C  
HETATM    3  C   UNL     1      -8.854   3.966  72.428  1.00  0.00    -0.105 C  
ENDROOT
BRANCH   3   4
HETATM    4  N   UNL     1      -9.318   3.897  71.049  1.00  0.00    -0.138 N  
HETATM    5  H   UNL     1     -10.237   3.506  70.842  1.00  0.00     0.000 HD 
BRANCH   4   6
HETATM    6  C   UNL     1      -8.520   4.356  70.021  1.00  0.00    -0.065 C  
HETATM    7  O   UNL     1      -7.314   4.523  70.213  1.00  0.00    -0.048 OA 
BRANCH   6   8
HETATM    8  N   UNL     1      -9.169   4.628  68.819  1.00  0.00    -0.120 N  
BRANCH   8   9
HETATM    9  C   UNL     1      -9.513   5.960  68.299  1.00  0.00    -0.116 C  
HETATM   10 CL   UNL     1     -11.565   6.496  70.044  1.00  0.00    -0.478 Cl 
HETATM   11  C   UNL     1     -11.009   6.263  68.365  1.00  0.00    -0.325 C  
ENDBRANCH   8   9
BRANCH   8  12
HETATM   12  N   UNL     1      -9.525   3.490  68.066  1.00  0.00    -0.182 NA 
HETATM   13  H   UNL     1      -9.066   3.508  67.156  1.00  0.00     0.000 HD 
HETATM   14  H   UNL     1      -9.552   1.649  68.130  1.00  0.00     0.000 HD 
HETATM   15  O   UNL     1      -9.311   2.415  68.637  1.00  0.00    -0.169 OA 
ENDBRANCH   8  12
ENDBRANCH   6   8
ENDBRANCH   4   6
ENDBRANCH   3   4
TORSDOF 5
ENDMDL
MODEL      365
REMARK 921   NORMALIZED FREE ENERGY PREDICTED BY IDOCK:   -1.86 KCAL/MOL
REMARK 922        TOTAL FREE ENERGY PREDICTED BY IDOCK:   -2.48 KCAL/MOL
REMARK 923 INTER-LIGAND FREE ENERGY PREDICTED BY IDOCK:   -2.52 KCAL/MOL
REMARK 924 INTRA-LIGAND FREE ENERGY PREDICTED BY IDOCK:    0.04 KCAL/MOL
REMARK 927      BINDING AFFINITY PREDICTED BY RF-SCORE:    0.00 PKD
ROOT
HETATM    1 CL   UNL     1     -11.859  12.886  67.451  1.00  0.00    -0.428 Cl 
HETATM    2  C   UNL     1     -10.599  12.998  66.196  1.00  0.00    -0.277 C  
HETATM    3  C   UNL     1      -9.202  12.868  66.792  1.00  0.00    -0.230 C  
ENDROOT
BRANCH   3   4
HETATM    4  N   UNL     1      -8.915  13.869  67.812  1.00  0.00    -0.179 N  
HETATM    5  H   UNL     1      -9.434  13.863  68.689  1.00  0.00     0.000 HD 
BRANCH   4   6
HETATM    6  C   UNL     1      -7.944  14.826  67.595  1.00  0.00    -0.176 C  
HETATM    7  O   UNL     1      -6.977  14.562  66.879  1.00  0.00     0.055 OA 
BRANCH   6   8
HETATM    8  N   UNL     1      -8.131  16.044  68.245  1.00  0.00    -0.147 N  
BRANCH   8   9
HETATM    9  C   UNL     1      -8.885  17.197  67.730  1.00  0.00    -0.225 C  
HETATM   10 CL   UNL     1      -7.128  17.901  65.740  1.00  0.00    -0.289 Cl 
HETATM   11  C   UNL     1      -7.987  18.333  67.243  1.00  0.00    -0.224 C  
ENDBRANCH   8   9
BRANCH   8  12
HETATM   12  N   UNL     1      -7.510  16.144  69.507  1.00  0.00    -0.169 NA 
HETATM   13  H   UNL     1      -7.110  15.246  69.779  1.00  0.00     0.000 HD 
HETATM   14  H   UNL     1      -6.243  17.105  70.437  1.00  0.00     0.000 HD 
HETATM   15  O   UNL     1      -6.660  17.038  69.587  1.00  0.00    -0.234 OA 
ENDBRANCH   8  12
ENDBRANCH   6   8
ENDBRANCH   4   6
ENDBRANCH   3   4
TORSDOF 5
ENDMDL
MODEL      366
REMARK 921   NORMALIZED FREE ENERGY PREDICTED BY IDOCK:   -1.85 KCAL/MOL
REMARK 922        TOTAL FREE ENERGY PREDICTED BY IDOCK:   -2.48 KCAL/MOL
REMARK 923 INTER-LIGAND FREE ENERGY PREDICTED BY IDOCK:   -2.38 KCAL/MOL
REMARK 924 INTRA-LIGAND FREE ENERGY PREDICTED BY IDOCK:   -0.09 KCAL/MOL
REMARK 927      BINDING AFFINITY PREDICTED BY RF-SCORE:    0.00 PKD
ROOT
HETATM    1 CL   UNL     1      -7.490   5.242  70.252  1.00  0.00    -0.069 Cl 
HETATM    2  C   UNL     1      -8.008   4.499  71.788  1.00  0.00    -0.097 C  
HETATM    3  C   UNL     1      -9.504   4.675  72.018  1.00  0.00    -0.142 C  
ENDROOT
BRANCH   3   4
HETATM    4  N   UNL     1      -9.925   6.070  72.027  1.00  0.00    -0.170 N  
HETATM    5  H   UNL     1     -10.135   6.531  72.912  1.00  0.00     0.000 HD 
BRANCH   4   6
HETATM    6  C   UNL     1     -10.042   6.770  70.843  1.00  0.00    -0.190 C  
HETATM    7  O   UNL     1      -9.306   7.736  70.631  1.00  0.00    -0.161 OA 
BRANCH   6   8
HETATM    8  N   UNL     1     -11.031   6.329  69.968  1.00  0.00    -0.322 N  
BRANCH   8   9
HETATM    9  C   UNL     1     -10.837   5.437  68.816  1.00  0.00     0.073 C  
HETATM   10 CL   UNL     1      -9.035   7.005  67.460  1.00  0.00    -0.118 Cl 
HETATM   11  C   UNL     1     -10.621   6.189  67.503  1.00  0.00    -0.273 C  
ENDBRANCH   8   9
BRANCH   8  12
HETATM   12  N   UNL     1     -12.325   6.820  70.239  1.00  0.00    -0.561 NA 
HETATM   13  H   UNL     1     -13.022   6.303  69.703  1.00  0.00     0.000 HD 
HETATM   14  H   UNL     1     -13.496   7.163  71.620  1.00  0.00     0.000 HD 
HETATM   15  O   UNL     1     -12.624   6.832  71.438  1.00  0.00    -0.355 OA 
ENDBRANCH   8  12
ENDBRANCH   6   8
ENDBRANCH   4   6
ENDBRANCH   3   4
TORSDOF 5
ENDMDL
MODEL      367
REMARK 921   NORMALIZED FREE ENERGY PREDICTED BY IDOCK:   -1.83 KCAL/MOL
REMARK 922        TOTAL FREE ENERGY PREDICTED BY IDOCK:   -2.45 KCAL/MOL
REMARK 923 INTER-LIGAND FREE ENERGY PREDICTED BY IDOCK:   -1.91 KCAL/MOL
REMARK 924 INTRA-LIGAND FREE ENERGY PREDICTED BY IDOCK:   -0.54 KCAL/MOL
REMARK 927      BINDING AFFINITY PREDICTED BY RF-SCORE:    0.00 PKD
ROOT
HETATM    1 CL   UNL     1      -6.920   4.759  67.194  1.00  0.00    -0.059 Cl 
HETATM    2  C   UNL     1      -7.920   6.028  66.440  1.00  0.00    -0.105 C  
HETATM    3  C   UNL     1      -8.233   7.151  67.422  1.00  0.00    -0.116 C  
ENDROOT
BRANCH   3   4
HETATM    4  N   UNL     1      -8.917   6.692  68.624  1.00  0.00    -0.125 N  
HETATM    5  H   UNL     1      -9.820   6.224  68.547  1.00  0.00     0.000 HD 
BRANCH   4   6
HETATM    6  C   UNL     1      -8.349   6.887  69.867  1.00  0.00    -0.139 C  
HETATM    7  O   UNL     1      -7.124   6.967  69.971  1.00  0.00    -0.070 OA 
BRANCH   6   8
HETATM    8  N   UNL     1      -9.235   6.954  70.940  1.00  0.00    -0.157 N  
BRANCH   8   9
HETATM    9  C   UNL     1      -9.932   5.818  71.562  1.00  0.00    -0.180 C  
HETATM   10 CL   UNL     1     -12.496   6.653  71.041  1.00  0.00    -0.323 Cl 
HETATM   11  C   UNL     1     -11.245   6.214  72.235  1.00  0.00    -0.289 C  
ENDBRANCH   8   9
BRANCH   8  12
HETATM   12  N   UNL     1      -9.470   8.252  71.435  1.00  0.00    -0.162 NA 
HETATM   13  H   UNL     1      -8.657   8.589  71.951  1.00  0.00     0.000 HD 
HETATM   14  H   UNL     1      -9.964   9.948  70.909  1.00  0.00     0.000 HD 
HETATM   15  O   UNL     1      -9.806   9.073  70.575  1.00  0.00    -0.185 OA 
ENDBRANCH   8  12
ENDBRANCH   6   8
ENDBRANCH   4   6
ENDBRANCH   3   4
TORSDOF 5
ENDMDL
MODEL      368
REMARK 921   NORMALIZED FREE ENERGY PREDICTED BY IDOCK:   -1.82 KCAL/MOL
REMARK 922        TOTAL FREE ENERGY PREDICTED BY IDOCK:   -2.43 KCAL/MOL
REMARK 923 INTER-LIGAND FREE ENERGY PREDICTED BY IDOCK:   -1.99 KCAL/MOL
REMARK 924 INTRA-LIGAND FREE ENERGY PREDICTED BY IDOCK:   -0.44 KCAL/MOL
REMARK 927      BINDING AFFINITY PREDICTED BY RF-SCORE:    0.00 PKD
ROOT
HETATM    1 CL   UNL     1     -10.608   7.451  69.448  1.00  0.00    -0.230 Cl 
HETATM    2  C   UNL     1      -8.932   7.976  69.144  1.00  0.00    -0.145 C  
HETATM    3  C   UNL     1      -8.851   9.478  68.900  1.00  0.00    -0.137 C  
ENDROOT
BRANCH   3   4
HETATM    4  N   UNL     1      -9.674   9.926  67.784  1.00  0.00    -0.148 N  
HETATM    5  H   UNL     1     -10.622  10.262  67.955  1.00  0.00     0.000 HD 
BRANCH   4   6
HETATM    6  C   UNL     1      -9.177   9.898  66.497  1.00  0.00    -0.155 C  
HETATM    7  O   UNL     1      -9.864   9.427  65.589  1.00  0.00    -0.296 OA 
BRANCH   6   8
HETATM    8  N   UNL     1      -7.887  10.397  66.329  1.00  0.00    -0.126 N  
BRANCH   8   9
HETATM    9  C   UNL     1      -6.643   9.613  66.356  1.00  0.00    -0.071 C  
HETATM   10 CL   UNL     1      -6.618   8.908  63.702  1.00  0.00    -0.088 Cl 
HETATM   11  C   UNL     1      -6.670   8.411  65.415  1.00  0.00    -0.056 C  
ENDBRANCH   8   9
BRANCH   8  12
HETATM   12  N   UNL     1      -7.811  11.791  66.134  1.00  0.00    -0.362 NA 
HETATM   13  H   UNL     1      -8.192  12.043  65.222  1.00  0.00     0.000 HD 
HETATM   14  H   UNL     1      -8.293  13.399  66.893  1.00  0.00     0.000 HD 
HETATM   15  O   UNL     1      -8.345  12.460  67.025  1.00  0.00    -0.179 OA 
ENDBRANCH   8  12
ENDBRANCH   6   8
ENDBRANCH   4   6
ENDBRANCH   3   4
TORSDOF 5
ENDMDL
MODEL      369
REMARK 921   NORMALIZED FREE ENERGY PREDICTED BY IDOCK:   -1.81 KCAL/MOL
REMARK 922        TOTAL FREE ENERGY PREDICTED BY IDOCK:   -2.42 KCAL/MOL
REMARK 923 INTER-LIGAND FREE ENERGY PREDICTED BY IDOCK:   -2.15 KCAL/MOL
REMARK 924 INTRA-LIGAND FREE ENERGY PREDICTED BY IDOCK:   -0.26 KCAL/MOL
REMARK 927      BINDING AFFINITY PREDICTED BY RF-SCORE:    0.00 PKD
ROOT
HETATM    1 CL   UNL     1     -10.647   8.084  67.154  1.00  0.00    -0.399 Cl 
HETATM    2  C   UNL     1     -10.724   6.375  67.658  1.00  0.00    -0.311 C  
HETATM    3  C   UNL     1     -11.266   6.234  69.075  1.00  0.00    -0.343 C  
ENDROOT
BRANCH   3   4
HETATM    4  N   UNL     1     -10.485   6.962  70.066  1.00  0.00    -0.201 N  
HETATM    5  H   UNL     1     -10.923   7.704  70.613  1.00  0.00     0.000 HD 
BRANCH   4   6
HETATM    6  C   UNL     1      -9.155   6.654  70.268  1.00  0.00    -0.156 C  
HETATM    7  O   UNL     1      -8.806   5.474  70.337  1.00  0.00    -0.127 OA 
BRANCH   6   8
HETATM    8  N   UNL     1      -8.291   7.738  70.409  1.00  0.00    -0.121 N  
BRANCH   8   9
HETATM    9  C   UNL     1      -6.996   7.731  71.103  1.00  0.00    -0.049 C  
HETATM   10 CL   UNL     1      -5.819   9.756  69.669  1.00  0.00    -0.036 Cl 
HETATM   11  C   UNL     1      -5.818   8.048  70.183  1.00  0.00    -0.022 C  
ENDBRANCH   8   9
BRANCH   8  12
HETATM   12  N   UNL     1      -8.748   8.939  69.829  1.00  0.00    -0.133 NA 
HETATM   13  H   UNL     1      -9.217   8.751  68.943  1.00  0.00     0.000 HD 
HETATM   14  H   UNL     1      -9.779  10.427  70.175  1.00  0.00     0.000 HD 
HETATM   15  O   UNL     1      -9.472   9.618  70.566  1.00  0.00    -0.256 OA 
ENDBRANCH   8  12
ENDBRANCH   6   8
ENDBRANCH   4   6
ENDBRANCH   3   4
TORSDOF 5
ENDMDL
MODEL      370
REMARK 921   NORMALIZED FREE ENERGY PREDICTED BY IDOCK:   -1.78 KCAL/MOL
REMARK 922        TOTAL FREE ENERGY PREDICTED BY IDOCK:   -2.39 KCAL/MOL
REMARK 923 INTER-LIGAND FREE ENERGY PREDICTED BY IDOCK:   -2.10 KCAL/MOL
REMARK 924 INTRA-LIGAND FREE ENERGY PREDICTED BY IDOCK:   -0.29 KCAL/MOL
REMARK 927      BINDING AFFINITY PREDICTED BY RF-SCORE:    0.00 PKD
ROOT
HETATM    1 CL   UNL     1      -8.898   2.446  65.815  1.00  0.00    -0.126 Cl 
HETATM    2  C   UNL     1      -8.407   3.380  67.251  1.00  0.00    -0.092 C  
HETATM    3  C   UNL     1      -9.427   4.461  67.591  1.00  0.00    -0.165 C  
ENDROOT
BRANCH   3   4
HETATM    4  N   UNL     1      -9.658   5.399  66.500  1.00  0.00    -0.147 N  
HETATM    5  H   UNL     1      -9.384   5.149  65.549  1.00  0.00     0.000 HD 
BRANCH   4   6
HETATM    6  C   UNL     1     -10.245   6.623  66.746  1.00  0.00    -0.195 C  
HETATM    7  O   UNL     1     -11.394   6.671  67.187  1.00  0.00    -0.343 OA 
BRANCH   6   8
HETATM    8  N   UNL     1      -9.473   7.742  66.441  1.00  0.00    -0.198 N  
BRANCH   8   9
HETATM    9  C   UNL     1      -8.035   7.748  66.133  1.00  0.00    -0.105 C  
HETATM   10 CL   UNL     1      -7.122   7.704  68.722  1.00  0.00    -0.078 Cl 
HETATM   11  C   UNL     1      -7.207   8.535  67.146  1.00  0.00    -0.080 C  
ENDBRANCH   8   9
BRANCH   8  12
HETATM   12  N   UNL     1     -10.172   8.967  66.455  1.00  0.00    -0.297 NA 
HETATM   13  H   UNL     1      -9.866   9.542  67.239  1.00  0.00     0.000 HD 
HETATM   14  H   UNL     1     -10.574  10.429  65.408  1.00  0.00     0.000 HD 
HETATM   15  O   UNL     1     -10.103   9.605  65.399  1.00  0.00    -0.272 OA 
ENDBRANCH   8  12
ENDBRANCH   6   8
ENDBRANCH   4   6
ENDBRANCH   3   4
TORSDOF 5
ENDMDL
MODEL      371
REMARK 921   NORMALIZED FREE ENERGY PREDICTED BY IDOCK:   -1.78 KCAL/MOL
REMARK 922        TOTAL FREE ENERGY PREDICTED BY IDOCK:   -2.38 KCAL/MOL
REMARK 923 INTER-LIGAND FREE ENERGY PREDICTED BY IDOCK:   -1.89 KCAL/MOL
REMARK 924 INTRA-LIGAND FREE ENERGY PREDICTED BY IDOCK:   -0.49 KCAL/MOL
REMARK 927      BINDING AFFINITY PREDICTED BY RF-SCORE:    0.00 PKD
ROOT
HETATM    1 CL   UNL     1      -8.298   2.278  68.526  1.00  0.00    -0.074 Cl 
HETATM    2  C   UNL     1      -7.415   3.317  69.676  1.00  0.00    -0.044 C  
HETATM    3  C   UNL     1      -8.321   4.389  70.270  1.00  0.00    -0.073 C  
ENDROOT
BRANCH   3   4
HETATM    4  N   UNL     1      -8.935   5.247  69.265  1.00  0.00    -0.102 N  
HETATM    5  H   UNL     1      -9.251   4.848  68.381  1.00  0.00     0.000 HD 
BRANCH   4   6
HETATM    6  C   UNL     1      -9.090   6.598  69.503  1.00  0.00    -0.144 C  
HETATM    7  O   UNL     1      -8.635   7.414  68.701  1.00  0.00    -0.128 OA 
BRANCH   6   8
HETATM    8  N   UNL     1      -9.749   6.938  70.682  1.00  0.00    -0.176 N  
BRANCH   8   9
HETATM    9  C   UNL     1      -9.180   7.695  71.807  1.00  0.00    -0.137 C  
HETATM   10 CL   UNL     1      -9.176   5.650  73.639  1.00  0.00    -0.131 Cl 
HETATM   11  C   UNL     1      -9.743   7.273  73.162  1.00  0.00    -0.209 C  
ENDBRANCH   8   9
BRANCH   8  12
HETATM   12  N   UNL     1     -11.080   6.481  70.772  1.00  0.00    -0.280 NA 
HETATM   13  H   UNL     1     -11.611   7.059  71.424  1.00  0.00     0.000 HD 
HETATM   14  H   UNL     1     -12.562   6.096  69.748  1.00  0.00     0.000 HD 
HETATM   15  O   UNL     1     -11.666   6.404  69.687  1.00  0.00    -0.389 OA 
ENDBRANCH   8  12
ENDBRANCH   6   8
ENDBRANCH   4   6
ENDBRANCH   3   4
TORSDOF 5
ENDMDL
MODEL      372
REMARK 921   NORMALIZED FREE ENERGY PREDICTED BY IDOCK:   -1.76 KCAL/MOL
REMARK 922        TOTAL FREE ENERGY PREDICTED BY IDOCK:   -2.36 KCAL/MOL
REMARK 923 INTER-LIGAND FREE ENERGY PREDICTED BY IDOCK:   -2.17 KCAL/MOL
REMARK 924 INTRA-LIGAND FREE ENERGY PREDICTED BY IDOCK:   -0.19 KCAL/MOL
REMARK 927      BINDING AFFINITY PREDICTED BY RF-SCORE:    0.00 PKD
ROOT
HETATM    1 CL   UNL     1      -8.861   5.444  65.200  1.00  0.00    -0.142 Cl 
HETATM    2  C   UNL     1      -9.616   5.403  66.814  1.00  0.00    -0.147 C  
HETATM    3  C   UNL     1     -10.813   6.343  66.897  1.00  0.00    -0.357 C  
ENDROOT
BRANCH   3   4
HETATM    4  N   UNL     1     -10.480   7.728  66.589  1.00  0.00    -0.491 N  
HETATM    5  H   UNL     1     -10.522   8.058  65.624  1.00  0.00     0.000 HD 
BRANCH   4   6
HETATM    6  C   UNL     1     -10.108   8.595  67.595  1.00  0.00    -0.213 C  
HETATM    7  O   UNL     1     -10.784   8.663  68.623  1.00  0.00    -0.164 OA 
BRANCH   6   8
HETATM    8  N   UNL     1      -8.975   9.367  67.348  1.00  0.00    -0.124 N  
BRANCH   8   9
HETATM    9  C   UNL     1      -8.736  10.205  66.163  1.00  0.00    -0.142 C  
HETATM   10 CL   UNL     1      -6.108   9.516  65.771  1.00  0.00    -0.059 Cl 
HETATM   11  C   UNL     1      -7.322  10.779  66.108  1.00  0.00    -0.127 C  
ENDBRANCH   8   9
BRANCH   8  12
HETATM   12  N   UNL     1      -7.981   9.299  68.346  1.00  0.00    -0.101 NA 
HETATM   13  H   UNL     1      -8.313   9.727  69.209  1.00  0.00     0.000 HD 
HETATM   14  H   UNL     1      -6.887   8.112  69.236  1.00  0.00     0.000 HD 
HETATM   15  O   UNL     1      -7.557   8.158  68.565  1.00  0.00    -0.099 OA 
ENDBRANCH   8  12
ENDBRANCH   6   8
ENDBRANCH   4   6
ENDBRANCH   3   4
TORSDOF 5
ENDMDL
MODEL      373
REMARK 921   NORMALIZED FREE ENERGY PREDICTED BY IDOCK:   -1.76 KCAL/MOL
REMARK 922        TOTAL FREE ENERGY PREDICTED BY IDOCK:   -2.35 KCAL/MOL
REMARK 923 INTER-LIGAND FREE ENERGY PREDICTED BY IDOCK:   -2.28 KCAL/MOL
REMARK 924 INTRA-LIGAND FREE ENERGY PREDICTED BY IDOCK:   -0.07 KCAL/MOL
REMARK 927      BINDING AFFINITY PREDICTED BY RF-SCORE:    0.00 PKD
ROOT
HETATM    1 CL   UNL     1      -9.491   3.059  72.771  1.00  0.00    -0.141 Cl 
HETATM    2  C   UNL     1      -8.691   4.286  73.788  1.00  0.00    -0.094 C  
HETATM    3  C   UNL     1      -9.643   5.418  74.153  1.00  0.00    -0.145 C  
ENDROOT
BRANCH   3   4
HETATM    4  N   UNL     1     -10.209   6.093  72.992  1.00  0.00    -0.187 N  
HETATM    5  H   UNL     1     -10.889   5.610  72.406  1.00  0.00     0.000 HD 
BRANCH   4   6
HETATM    6  C   UNL     1      -9.828   7.382  72.681  1.00  0.00    -0.178 C  
HETATM    7  O   UNL     1      -9.330   8.097  73.552  1.00  0.00    -0.255 OA 
BRANCH   6   8
HETATM    8  N   UNL     1     -10.069   7.792  71.372  1.00  0.00    -0.181 N  
BRANCH   8   9
HETATM    9  C   UNL     1      -9.095   7.797  70.270  1.00  0.00    -0.152 C  
HETATM   10 CL   UNL     1     -10.074   9.994  68.947  1.00  0.00    -0.185 Cl 
HETATM   11  C   UNL     1      -9.694   8.252  68.940  1.00  0.00    -0.164 C  
ENDBRANCH   8   9
BRANCH   8  12
HETATM   12  N   UNL     1     -11.379   8.252  71.125  1.00  0.00    -0.257 NA 
HETATM   13  H   UNL     1     -11.915   7.545  70.622  1.00  0.00     0.000 HD 
HETATM   14  H   UNL     1     -12.871   8.927  71.970  1.00  0.00     0.000 HD 
HETATM   15  O   UNL     1     -11.989   8.617  72.136  1.00  0.00    -0.343 OA 
ENDBRANCH   8  12
ENDBRANCH   6   8
ENDBRANCH   4   6
ENDBRANCH   3   4
TORSDOF 5
ENDMDL
MODEL      374
REMARK 921   NORMALIZED FREE ENERGY PREDICTED BY IDOCK:   -1.73 KCAL/MOL
REMARK 922        TOTAL FREE ENERGY PREDICTED BY IDOCK:   -2.32 KCAL/MOL
REMARK 923 INTER-LIGAND FREE ENERGY PREDICTED BY IDOCK:   -1.81 KCAL/MOL
REMARK 924 INTRA-LIGAND FREE ENERGY PREDICTED BY IDOCK:   -0.51 KCAL/MOL
REMARK 927      BINDING AFFINITY PREDICTED BY RF-SCORE:    0.00 PKD
ROOT
HETATM    1 CL   UNL     1      -6.915   4.749  67.161  1.00  0.00    -0.059 Cl 
HETATM    2  C   UNL     1      -7.623   6.156  66.326  1.00  0.00    -0.090 C  
HETATM    3  C   UNL     1      -8.466   7.003  67.273  1.00  0.00    -0.121 C  
ENDROOT
BRANCH   3   4
HETATM    4  N   UNL     1      -9.549   6.259  67.903  1.00  0.00    -0.118 N  
HETATM    5  H   UNL     1     -10.332   5.928  67.339  1.00  0.00     0.000 HD 
BRANCH   4   6
HETATM    6  C   UNL     1      -9.521   6.001  69.258  1.00  0.00    -0.132 C  
HETATM    7  O   UNL     1      -9.549   4.836  69.658  1.00  0.00    -0.146 OA 
BRANCH   6   8
HETATM    8  N   UNL     1      -9.486   7.117  70.091  1.00  0.00    -0.162 N  
BRANCH   8   9
HETATM    9  C   UNL     1      -8.331   7.582  70.872  1.00  0.00    -0.114 C  
HETATM   10 CL   UNL     1      -9.480   7.375  73.357  1.00  0.00    -0.248 Cl 
HETATM   11  C   UNL     1      -8.725   8.395  72.103  1.00  0.00    -0.205 C  
ENDBRANCH   8   9
BRANCH   8  12
HETATM   12  N   UNL     1     -10.699   7.830  70.178  1.00  0.00    -0.238 NA 
HETATM   13  H   UNL     1     -10.792   8.264  71.096  1.00  0.00     0.000 HD 
HETATM   14  H   UNL     1     -11.678   9.150  69.344  1.00  0.00     0.000 HD 
HETATM   15  O   UNL     1     -10.861   8.670  69.286  1.00  0.00    -0.180 OA 
ENDBRANCH   8  12
ENDBRANCH   6   8
ENDBRANCH   4   6
ENDBRANCH   3   4
TORSDOF 5
ENDMDL
MODEL      375
REMARK 921   NORMALIZED FREE ENERGY PREDICTED BY IDOCK:   -1.69 KCAL/MOL
REMARK 922        TOTAL FREE ENERGY PREDICTED BY IDOCK:   -2.26 KCAL/MOL
REMARK 923 INTER-LIGAND FREE ENERGY PREDICTED BY IDOCK:   -2.03 KCAL/MOL
REMARK 924 INTRA-LIGAND FREE ENERGY PREDICTED BY IDOCK:   -0.24 KCAL/MOL
REMARK 927      BINDING AFFINITY PREDICTED BY RF-SCORE:    0.00 PKD
ROOT
HETATM    1 CL   UNL     1     -10.677   7.819  67.130  1.00  0.00    -0.391 Cl 
HETATM    2  C   UNL     1     -11.029   6.231  67.860  1.00  0.00    -0.327 C  
HETATM    3  C   UNL     1     -11.393   6.362  69.335  1.00  0.00    -0.377 C  
ENDROOT
BRANCH   3   4
HETATM    4  N   UNL     1     -10.356   7.005  70.130  1.00  0.00    -0.194 N  
HETATM    5  H   UNL     1     -10.377   8.015  70.272  1.00  0.00     0.000 HD 
BRANCH   4   6
HETATM    6  C   UNL     1      -9.344   6.254  70.693  1.00  0.00    -0.162 C  
HETATM    7  O   UNL     1      -9.624   5.272  71.382  1.00  0.00    -0.150 OA 
BRANCH   6   8
HETATM    8  N   UNL     1      -8.046   6.698  70.449  1.00  0.00    -0.115 N  
BRANCH   8   9
HETATM    9  C   UNL     1      -7.630   8.093  70.242  1.00  0.00    -0.080 C  
HETATM   10 CL   UNL     1      -5.625   8.143  72.116  1.00  0.00    -0.036 Cl 
HETATM   11  C   UNL     1      -7.182   8.785  71.528  1.00  0.00    -0.088 C  
ENDBRANCH   8   9
BRANCH   8  12
HETATM   12  N   UNL     1      -7.072   5.681  70.388  1.00  0.00    -0.063 NA 
HETATM   13  H   UNL     1      -7.421   4.828  70.825  1.00  0.00     0.000 HD 
HETATM   14  H   UNL     1      -5.999   4.757  69.209  1.00  0.00     0.000 HD 
HETATM   15  O   UNL     1      -6.655   5.443  69.249  1.00  0.00    -0.043 OA 
ENDBRANCH   8  12
ENDBRANCH   6   8
ENDBRANCH   4   6
ENDBRANCH   3   4
TORSDOF 5
ENDMDL
MODEL      376
REMARK 921   NORMALIZED FREE ENERGY PREDICTED BY IDOCK:   -1.66 KCAL/MOL
REMARK 922        TOTAL FREE ENERGY PREDICTED BY IDOCK:   -2.22 KCAL/MOL
REMARK 923 INTER-LIGAND FREE ENERGY PREDICTED BY IDOCK:   -1.92 KCAL/MOL
REMARK 924 INTRA-LIGAND FREE ENERGY PREDICTED BY IDOCK:   -0.30 KCAL/MOL
REMARK 927      BINDING AFFINITY PREDICTED BY RF-SCORE:    0.00 PKD
ROOT
HETATM    1 CL   UNL     1     -10.261   7.302  70.930  1.00  0.00    -0.200 Cl 
HETATM    2  C   UNL     1      -8.729   6.794  70.174  1.00  0.00    -0.141 C  
HETATM    3  C   UNL     1      -8.137   7.902  69.310  1.00  0.00    -0.126 C  
ENDROOT
BRANCH   3   4
HETATM    4  N   UNL     1      -9.035   8.351  68.254  1.00  0.00    -0.139 N  
HETATM    5  H   UNL     1      -9.965   8.697  68.491  1.00  0.00     0.000 HD 
BRANCH   4   6
HETATM    6  C   UNL     1      -8.634   8.310  66.934  1.00  0.00    -0.119 C  
HETATM    7  O   UNL     1      -8.146   7.275  66.477  1.00  0.00    -0.108 OA 
BRANCH   6   8
HETATM    8  N   UNL     1      -8.796   9.488  66.209  1.00  0.00    -0.145 N  
BRANCH   8   9
HETATM    9  C   UNL     1      -9.888   9.788  65.271  1.00  0.00    -0.265 C  
HETATM   10 CL   UNL     1      -8.656   8.870  62.996  1.00  0.00    -0.176 Cl 
HETATM   11  C   UNL     1      -9.394  10.223  63.893  1.00  0.00    -0.291 C  
ENDBRANCH   8   9
BRANCH   8  12
HETATM   12  N   UNL     1      -7.788  10.453  66.412  1.00  0.00    -0.122 NA 
HETATM   13  H   UNL     1      -7.692  10.664  67.406  1.00  0.00     0.000 HD 
HETATM   14  H   UNL     1      -6.013  10.803  66.064  1.00  0.00     0.000 HD 
HETATM   15  O   UNL     1      -6.692  10.153  65.927  1.00  0.00    -0.092 OA 
ENDBRANCH   8  12
ENDBRANCH   6   8
ENDBRANCH   4   6
ENDBRANCH   3   4
TORSDOF 5
ENDMDL
MODEL      377
REMARK 921   NORMALIZED FREE ENERGY PREDICTED BY IDOCK:   -1.57 KCAL/MOL
REMARK 922        TOTAL FREE ENERGY PREDICTED BY IDOCK:   -2.11 KCAL/MOL
REMARK 923 INTER-LIGAND FREE ENERGY PREDICTED BY IDOCK:   -1.54 KCAL/MOL
REMARK 924 INTRA-LIGAND FREE ENERGY PREDICTED BY IDOCK:   -0.57 KCAL/MOL
REMARK 927      BINDING AFFINITY PREDICTED BY RF-SCORE:    0.00 PKD
ROOT
HETATM    1 CL   UNL     1      -7.601   3.384  65.639  1.00  0.00    -0.077 Cl 
HETATM    2  C   UNL     1      -7.484   4.236  67.200  1.00  0.00    -0.077 C  
HETATM    3  C   UNL     1      -8.660   5.182  67.412  1.00  0.00    -0.104 C  
ENDROOT
BRANCH   3   4
HETATM    4  N   UNL     1      -8.791   6.182  66.360  1.00  0.00    -0.137 N  
HETATM    5  H   UNL     1      -9.398   6.001  65.560  1.00  0.00     0.000 HD 
BRANCH   4   6
HETATM    6  C   UNL     1      -8.097   7.372  66.440  1.00  0.00    -0.118 C  
HETATM    7  O   UNL     1      -7.158   7.583  65.672  1.00  0.00    -0.059 OA 
BRANCH   6   8
HETATM    8  N   UNL     1      -8.514   8.256  67.433  1.00  0.00    -0.124 N  
BRANCH   8   9
HETATM    9  C   UNL     1      -7.762   8.618  68.644  1.00  0.00    -0.099 C  
HETATM   10 CL   UNL     1      -9.211   7.108  70.421  1.00  0.00    -0.156 Cl 
HETATM   11  C   UNL     1      -8.639   8.712  69.891  1.00  0.00    -0.131 C  
ENDBRANCH   8   9
BRANCH   8  12
HETATM   12  N   UNL     1      -9.789   8.822  67.227  1.00  0.00    -0.185 NA 
HETATM   13  H   UNL     1      -9.890   9.678  67.773  1.00  0.00     0.000 HD 
HETATM   14  H   UNL     1     -10.927   9.411  65.903  1.00  0.00     0.000 HD 
HETATM   15  O   UNL     1     -10.068   9.030  66.042  1.00  0.00    -0.278 OA 
ENDBRANCH   8  12
ENDBRANCH   6   8
ENDBRANCH   4   6
ENDBRANCH   3   4
TORSDOF 5
ENDMDL
MODEL      378
REMARK 921   NORMALIZED FREE ENERGY PREDICTED BY IDOCK:   -1.49 KCAL/MOL
REMARK 922        TOTAL FREE ENERGY PREDICTED BY IDOCK:   -2.01 KCAL/MOL
REMARK 923 INTER-LIGAND FREE ENERGY PREDICTED BY IDOCK:   -1.88 KCAL/MOL
REMARK 924 INTRA-LIGAND FREE ENERGY PREDICTED BY IDOCK:   -0.13 KCAL/MOL
REMARK 927      BINDING AFFINITY PREDICTED BY RF-SCORE:    0.00 PKD
ROOT
HETATM    1 CL   UNL     1     -10.323   5.382  74.326  1.00  0.00    -0.290 Cl 
HETATM    2  C   UNL     1     -10.516   3.619  74.138  1.00  0.00    -0.202 C  
HETATM    3  C   UNL     1      -9.620   3.073  73.033  1.00  0.00    -0.098 C  
ENDROOT
BRANCH   3   4
HETATM    4  N   UNL     1      -9.858   3.694  71.737  1.00  0.00    -0.169 N  
HETATM    5  H   UNL     1     -10.735   3.522  71.245  1.00  0.00     0.000 HD 
BRANCH   4   6
HETATM    6  C   UNL     1      -8.903   4.515  71.171  1.00  0.00    -0.116 C  
HETATM    7  O   UNL     1      -7.721   4.167  71.176  1.00  0.00    -0.063 OA 
BRANCH   6   8
HETATM    8  N   UNL     1      -9.366   5.720  70.648  1.00  0.00    -0.157 N  
BRANCH   8   9
HETATM    9  C   UNL     1     -10.680   5.950  70.030  1.00  0.00    -0.326 C  
HETATM   10 CL   UNL     1     -10.296   4.394  67.800  1.00  0.00     0.082 Cl 
HETATM   11  C   UNL     1     -10.627   5.999  68.504  1.00  0.00    -0.265 C  
ENDBRANCH   8   9
BRANCH   8  12
HETATM   12  N   UNL     1      -8.451   6.790  70.724  1.00  0.00    -0.132 NA 
HETATM   13  H   UNL     1      -7.619   6.586  70.171  1.00  0.00     0.000 HD 
HETATM   14  H   UNL     1      -8.308   8.608  70.457  1.00  0.00     0.000 HD 
HETATM   15  O   UNL     1      -8.924   7.887  70.405  1.00  0.00    -0.144 OA 
ENDBRANCH   8  12
ENDBRANCH   6   8
ENDBRANCH   4   6
ENDBRANCH   3   4
TORSDOF 5
ENDMDL
MODEL      379
REMARK 921   NORMALIZED FREE ENERGY PREDICTED BY IDOCK:   -1.42 KCAL/MOL
REMARK 922        TOTAL FREE ENERGY PREDICTED BY IDOCK:   -1.92 KCAL/MOL
REMARK 923 INTER-LIGAND FREE ENERGY PREDICTED BY IDOCK:   -1.71 KCAL/MOL
REMARK 924 INTRA-LIGAND FREE ENERGY PREDICTED BY IDOCK:   -0.22 KCAL/MOL
REMARK 927      BINDING AFFINITY PREDICTED BY RF-SCORE:    0.00 PKD
ROOT
HETATM    1 CL   UNL     1      -9.612   6.945  71.711  1.00  0.00    -0.160 Cl 
HETATM    2  C   UNL     1      -7.850   6.865  71.975  1.00  0.00    -0.095 C  
HETATM    3  C   UNL     1      -7.082   6.962  70.661  1.00  0.00    -0.068 C  
ENDROOT
BRANCH   3   4
HETATM    4  N   UNL     1      -7.444   5.924  69.705  1.00  0.00    -0.074 N  
HETATM    5  H   UNL     1      -7.573   4.963  70.022  1.00  0.00     0.000 HD 
BRANCH   4   6
HETATM    6  C   UNL     1      -7.612   6.234  68.370  1.00  0.00    -0.096 C  
HETATM    7  O   UNL     1      -7.179   5.469  67.507  1.00  0.00    -0.072 OA 
BRANCH   6   8
HETATM    8  N   UNL     1      -8.255   7.440  68.100  1.00  0.00    -0.124 N  
BRANCH   8   9
HETATM    9  C   UNL     1      -9.696   7.703  68.231  1.00  0.00    -0.157 C  
HETATM   10 CL   UNL     1     -10.575   5.615  66.679  1.00  0.00    -0.356 Cl 
HETATM   11  C   UNL     1     -10.485   7.374  66.965  1.00  0.00    -0.333 C  
ENDBRANCH   8   9
BRANCH   8  12
HETATM   12  N   UNL     1      -7.412   8.474  67.647  1.00  0.00    -0.092 NA 
HETATM   13  H   UNL     1      -6.494   8.404  68.087  1.00  0.00     0.000 HD 
HETATM   14  H   UNL     1      -6.730   9.234  66.113  1.00  0.00     0.000 HD 
HETATM   15  O   UNL     1      -7.297   8.536  66.418  1.00  0.00    -0.078 OA 
ENDBRANCH   8  12
ENDBRANCH   6   8
ENDBRANCH   4   6
ENDBRANCH   3   4
TORSDOF 5
ENDMDL
MODEL      380
REMARK 921   NORMALIZED FREE ENERGY PREDICTED BY IDOCK:   -1.38 KCAL/MOL
REMARK 922        TOTAL FREE ENERGY PREDICTED BY IDOCK:   -1.86 KCAL/MOL
REMARK 923 INTER-LIGAND FREE ENERGY PREDICTED BY IDOCK:   -1.37 KCAL/MOL
REMARK 924 INTRA-LIGAND FREE ENERGY PREDICTED BY IDOCK:   -0.50 KCAL/MOL
REMARK 927      BINDING AFFINITY PREDICTED BY RF-SCORE:    0.00 PKD
ROOT
HETATM    1 CL   UNL     1      -8.391  12.362  68.365  1.00  0.00    -0.162 Cl 
HETATM    2  C   UNL     1      -9.761  11.343  67.852  1.00  0.00    -0.180 C  
HETATM    3  C   UNL     1      -9.607   9.909  68.346  1.00  0.00    -0.148 C  
ENDROOT
BRANCH   3   4
HETATM    4  N   UNL     1      -8.377   9.273  67.894  1.00  0.00    -0.116 N  
HETATM    5  H   UNL     1      -8.037   9.440  66.947  1.00  0.00     0.000 HD 
BRANCH   4   6
HETATM    6  C   UNL     1      -7.669   8.444  68.741  1.00  0.00    -0.102 C  
HETATM    7  O   UNL     1      -6.926   8.934  69.593  1.00  0.00    -0.051 OA 
BRANCH   6   8
HETATM    8  N   UNL     1      -7.838   7.076  68.539  1.00  0.00    -0.120 N  
BRANCH   8   9
HETATM    9  C   UNL     1      -9.006   6.278  68.939  1.00  0.00    -0.126 C  
HETATM   10 CL   UNL     1      -8.545   6.312  71.645  1.00  0.00    -0.133 Cl 
HETATM   11  C   UNL     1      -8.735   5.374  70.140  1.00  0.00    -0.126 C  
ENDBRANCH   8   9
BRANCH   8  12
HETATM   12  N   UNL     1      -6.758   6.432  67.902  1.00  0.00    -0.062 NA 
HETATM   13  H   UNL     1      -6.966   5.443  67.762  1.00  0.00     0.000 HD 
HETATM   14  H   UNL     1      -5.680   6.522  66.410  1.00  0.00     0.000 HD 
HETATM   15  O   UNL     1      -6.408   6.955  66.839  1.00  0.00    -0.042 OA 
ENDBRANCH   8  12
ENDBRANCH   6   8
ENDBRANCH   4   6
ENDBRANCH   3   4
TORSDOF 5
ENDMDL
MODEL      381
REMARK 921   NORMALIZED FREE ENERGY PREDICTED BY IDOCK:   -1.28 KCAL/MOL
REMARK 922        TOTAL FREE ENERGY PREDICTED BY IDOCK:   -1.74 KCAL/MOL
REMARK 923 INTER-LIGAND FREE ENERGY PREDICTED BY IDOCK:   -1.64 KCAL/MOL
REMARK 924 INTRA-LIGAND FREE ENERGY PREDICTED BY IDOCK:   -0.10 KCAL/MOL
REMARK 927      BINDING AFFINITY PREDICTED BY RF-SCORE:    0.00 PKD
ROOT
HETATM    1 CL   UNL     1     -10.564   4.595  74.403  1.00  0.00    -0.325 Cl 
HETATM    2  C   UNL     1     -10.653   4.023  72.717  1.00  0.00    -0.137 C  
HETATM    3  C   UNL     1      -9.723   4.817  71.807  1.00  0.00    -0.166 C  
ENDROOT
BRANCH   3   4
HETATM    4  N   UNL     1      -9.995   6.249  71.813  1.00  0.00    -0.171 N  
HETATM    5  H   UNL     1     -10.516   6.663  72.586  1.00  0.00     0.000 HD 
BRANCH   4   6
HETATM    6  C   UNL     1      -9.549   7.047  70.779  1.00  0.00    -0.164 C  
HETATM    7  O   UNL     1     -10.362   7.540  69.996  1.00  0.00    -0.211 OA 
BRANCH   6   8
HETATM    8  N   UNL     1      -8.169   7.215  70.688  1.00  0.00    -0.116 N  
BRANCH   8   9
HETATM    9  C   UNL     1      -7.307   7.875  71.680  1.00  0.00    -0.070 C  
HETATM   10 CL   UNL     1      -5.524   5.815  72.020  1.00  0.00    -0.021 Cl 
HETATM   11  C   UNL     1      -6.743   6.911  72.722  1.00  0.00    -0.066 C  
ENDBRANCH   8   9
BRANCH   8  12
HETATM   12  N   UNL     1      -7.586   6.702  69.511  1.00  0.00    -0.093 NA 
HETATM   13  H   UNL     1      -6.625   6.408  69.690  1.00  0.00     0.000 HD 
HETATM   14  H   UNL     1      -7.833   5.442  68.190  1.00  0.00     0.000 HD 
HETATM   15  O   UNL     1      -8.226   5.787  68.982  1.00  0.00    -0.100 OA 
ENDBRANCH   8  12
ENDBRANCH   6   8
ENDBRANCH   4   6
ENDBRANCH   3   4
TORSDOF 5
ENDMDL
MODEL      382
REMARK 921   NORMALIZED FREE ENERGY PREDICTED BY IDOCK:   -0.59 KCAL/MOL
REMARK 922        TOTAL FREE ENERGY PREDICTED BY IDOCK:   -0.84 KCAL/MOL
REMARK 923 INTER-LIGAND FREE ENERGY PREDICTED BY IDOCK:   -2.11 KCAL/MOL
REMARK 924 INTRA-LIGAND FREE ENERGY PREDICTED BY IDOCK:    1.27 KCAL/MOL
REMARK 927      BINDING AFFINITY PREDICTED BY RF-SCORE:    0.00 PKD
ROOT
HETATM    1 CL   UNL     1     -10.766  16.934  70.832  1.00  0.00     0.641 Cl 
HETATM    2  C   UNL     1     -11.280  16.587  69.160  1.00  0.00    -0.221 C  
HETATM    3  C   UNL     1     -10.189  16.935  68.155  1.00  0.00    -0.311 C  
ENDROOT
BRANCH   3   4
HETATM    4  N   UNL     1      -9.771  18.330  68.218  1.00  0.00    -0.318 N  
HETATM    5  H   UNL     1     -10.469  19.064  68.339  1.00  0.00     0.000 HD 
BRANCH   4   6
HETATM    6  C   UNL     1      -8.436  18.662  68.115  1.00  0.00    -0.312 C  
HETATM    7  O   UNL     1      -7.931  19.424  68.941  1.00  0.00    -0.358 OA 
BRANCH   6   8
HETATM    8  N   UNL     1      -7.751  18.110  67.034  1.00  0.00    -0.215 N  
BRANCH   8   9
HETATM    9  C   UNL     1      -6.298  18.149  66.816  1.00  0.00    -0.181 C  
HETATM   10 CL   UNL     1      -6.352  19.184  64.273  1.00  0.00     0.048 Cl 
HETATM   11  C   UNL     1      -5.899  17.853  65.371  1.00  0.00    -0.034 C  
ENDBRANCH   8   9
BRANCH   8  12
HETATM   12  N   UNL     1      -8.569  17.479  66.074  1.00  0.00    -0.527 NA 
HETATM   13  H   UNL     1      -8.407  17.880  65.150  1.00  0.00     0.000 HD 
HETATM   14  H   UNL     1      -9.004  15.824  65.390  1.00  0.00     0.000 HD 
HETATM   15  O   UNL     1      -8.453  16.249  66.036  1.00  0.00    -0.324 OA 
ENDBRANCH   8  12
ENDBRANCH   6   8
ENDBRANCH   4   6
ENDBRANCH   3   4
TORSDOF 5
ENDMDL
MODEL      383
REMARK 921   NORMALIZED FREE ENERGY PREDICTED BY IDOCK:    7.66 KCAL/MOL
REMARK 922        TOTAL FREE ENERGY PREDICTED BY IDOCK:    9.82 KCAL/MOL
REMARK 923 INTER-LIGAND FREE ENERGY PREDICTED BY IDOCK:    6.80 KCAL/MOL
REMARK 924 INTRA-LIGAND FREE ENERGY PREDICTED BY IDOCK:    3.02 KCAL/MOL
REMARK 927      BINDING AFFINITY PREDICTED BY RF-SCORE:    0.00 PKD
ROOT
HETATM    1 CL   UNL     1     -11.953  16.205  68.666  1.00  0.00    -0.117 Cl 
HETATM    2  C   UNL     1     -10.523  15.193  68.997  1.00  0.00    -0.248 C  
HETATM    3  C   UNL     1      -9.853  14.732  67.707  1.00  0.00    -0.214 C  
ENDROOT
BRANCH   3   4
HETATM    4  N   UNL     1     -10.744  13.984  66.830  1.00  0.00    -0.284 N  
HETATM    5  H   UNL     1     -10.572  12.993  66.658  1.00  0.00     0.000 HD 
BRANCH   4   6
HETATM    6  C   UNL     1     -11.819  14.609  66.231  1.00  0.00    -0.291 C  
HETATM    7  O   UNL     1     -12.368  15.555  66.798  1.00  0.00     0.701 OA 
BRANCH   6   8
HETATM    8  N   UNL     1     -12.224  14.085  65.005  1.00  0.00    -0.412 N  
BRANCH   8   9
HETATM    9  C   UNL     1     -11.441  14.082  63.761  1.00  0.00     0.214 C  
HETATM   10 CL   UNL     1     -10.018  16.381  64.236  1.00  0.00     2.611 Cl 
HETATM   11  C   UNL     1     -11.172  15.483  63.215  1.00  0.00     3.337 C  
ENDBRANCH   8   9
BRANCH   8  12
HETATM   12  N   UNL     1     -13.520  13.530  64.997  1.00  0.00    -0.075 NA 
HETATM   13  H   UNL     1     -13.526  12.633  65.483  1.00  0.00     0.000 HD 
HETATM   14  H   UNL     1     -15.269  13.899  65.446  1.00  0.00     0.000 HD 
HETATM   15  O   UNL     1     -14.396  14.274  65.452  1.00  0.00     1.583 OA 
ENDBRANCH   8  12
ENDBRANCH   6   8
ENDBRANCH   4   6
ENDBRANCH   3   4
TORSDOF 5
ENDMDL
